# generated using pymatgen
data_CdH28C27(N2O3)2
_symmetry_space_group_name_H-M   'P 1'
_cell_length_a   8.81406133
_cell_length_b   10.41855102
_cell_length_c   14.72099613
_cell_angle_alpha   86.80556065
_cell_angle_beta   87.92310571
_cell_angle_gamma   77.41999669
_symmetry_Int_Tables_number   1
_chemical_formula_structural   CdH28C27(N2O3)2
_chemical_formula_sum   'Cd2 H56 C54 N8 O12'
_cell_volume   1316.91875143
_cell_formula_units_Z   2
loop_
 _symmetry_equiv_pos_site_id
 _symmetry_equiv_pos_as_xyz
  1  'x, y, z'
loop_
 _atom_site_type_symbol
 _atom_site_label
 _atom_site_symmetry_multiplicity
 _atom_site_fract_x
 _atom_site_fract_y
 _atom_site_fract_z
 _atom_site_occupancy
 _atom_site_hle17_bader_spin_density
 _atom_site_hle17_ddec_charge
 _atom_site_hle17_ddec_spin_density
 _atom_site_hle17_ddec_sum_bond_order
 _atom_site_hle17_magmom
 _atom_site_hse06_10hf_bader_spin_density
 _atom_site_hse06_10hf_ddec_charge
 _atom_site_hse06_10hf_ddec_spin_density
 _atom_site_hse06_10hf_ddec_sum_bond_order
 _atom_site_hse06_10hf_magmom
 _atom_site_hse06_bader_spin_density
 _atom_site_hse06_ddec_charge
 _atom_site_hse06_ddec_spin_density
 _atom_site_hse06_ddec_sum_bond_order
 _atom_site_hse06_magmom
 _atom_site_pbe_bader_spin_density
 _atom_site_pbe_cm5_charge
 _atom_site_pbe_ddec_charge
 _atom_site_pbe_ddec_spin_density
 _atom_site_pbe_ddec_sum_bond_order
 _atom_site_pbe_magmom
Cd  Cd0  1  0.34835476  0.39049703  0.03212692  1  0  1.120711  0  1.73376  0  0  0.927827  0  2.194733  0  0  0.986248  0  2.140177  0  0  0.77716  0.883383  0  2.23378  0
Cd  Cd1  1  0.65164476  0.60950416  0.96787337  1  0  1.120615  0  1.733969  0  0  0.927742  0  2.194905  0  0  0.986164  0  2.140346  0  0  0.777112  0.883299  0  2.233954  0
H  H2  1  0.48120122  0.12997556  0.74540574  1  0  0.288514  0  0.880562  0  0  0.283395  0  0.923828  0  0  0.288686  0  0.921346  0  0  0.328379  0.278731  0  0.927362  0
H  H3  1  0.51880086  0.87002462  0.25459656  1  0  0.288488  0  0.880598  0  0  0.283316  0  0.923938  0  0  0.288608  0  0.921457  0  0  0.328354  0.278654  0  0.927465  0
H  H4  1  0.29400438  0.46876345  0.50718829  1  0  0.292595  0  0.957517  0  0  0.271112  0  1.030632  0  0  0.279357  0  1.024187  0  0  0.296375  0.265337  0  1.035186  0
H  H5  1  0.70599883  0.53123674  0.49281329  1  0  0.292517  0  0.957612  0  0  0.271046  0  1.030713  0  0  0.279286  0  1.024278  0  0  0.296397  0.265275  0  1.035251  0
H  H6  1  0.07728684  0.56418268  0.91882774  1  0  0.106905  0  0.941575  0  0  0.111795  0  1.005637  0  0  0.114905  0  1.002558  0  0  0.124302  0.109383  0  1.008131  0
H  H7  1  0.92271078  0.43582146  0.08117181  1  0  0.106932  0  0.941533  0  0  0.111797  0  1.005619  0  0  0.114913  0  1.002525  0  0  0.124305  0.109384  0  1.008116  0
H  H8  1  0.95805827  0.58236187  0.76783949  1  0  0.118589  0  0.948502  0  0  0.12674  0  1.008944  0  0  0.130342  0  1.007826  0  0  0.112409  0.124484  0  1.009421  0
H  H9  1  0.04194260  0.41763834  0.23215876  1  0  0.118594  0  0.948446  0  0  0.126752  0  1.008894  0  0  0.130343  0  1.007787  0  0  0.112413  0.124494  0  1.009363  0
H  H10  1  0.10233594  0.44118972  0.64243659  1  0  0.103271  0  0.938909  0  0  0.115385  0  0.997398  0  0  0.11843  0  0.995192  0  0  0.113559  0.113198  0  0.998895  0
H  H11  1  0.89766723  0.55881048  0.35756295  1  0  0.103282  0  0.938879  0  0  0.115412  0  0.99735  0  0  0.118457  0  0.995145  0  0  0.113557  0.11322  0  0.998843  0
H  H12  1  0.46416121  0.28992482  0.83522020  1  0  0.089988  0  0.925061  0  0  0.098405  0  0.990188  0  0  0.100901  0  0.988068  0  0  0.124282  0.096284  0  0.992216  0
H  H13  1  0.53583517  0.71007538  0.16478089  1  0  0.090009  0  0.925046  0  0  0.098425  0  0.990173  0  0  0.10093  0  0.988035  0  0  0.124309  0.096331  0  0.992174  0
H  H14  1  0.56023347  0.12561305  0.54865274  1  0  0.061418  0  0.934166  0  0  0.076738  0  1.00179  0  0  0.077583  0  1.000631  0  0  0.107675  0.076123  0  1.002611  0
H  H15  1  0.43977252  0.87438516  0.45134951  1  0  0.061418  0  0.934166  0  0  0.076726  0  1.001792  0  0  0.077569  0  1.000632  0  0  0.107646  0.07611  0  1.002614  0
H  H16  1  0.47442086  0.99888521  0.59714436  1  0  0.040844  0  0.930947  0  0  0.060903  0  0.995121  0  0  0.05979  0  0.996347  0  0  0.097844  0.061523  0  0.994547  0
H  H17  1  0.52558003  0.00111499  0.40285525  1  0  0.040865  0  0.931027  0  0  0.060912  0  0.995203  0  0  0.059804  0  0.996421  0  0  0.097845  0.061528  0  0.994632  0
H  H18  1  0.69701171  0.93563094  0.70765660  1  0  0.070468  0  0.930578  0  0  0.089501  0  0.989008  0  0  0.089625  0  0.990576  0  0  0.089721  0.089364  0  0.98804  0
H  H19  1  0.30298523  0.06436727  0.29234795  1  0  0.070435  0  0.930621  0  0  0.08951  0  0.988976  0  0  0.089634  0  0.990544  0  0  0.089702  0.089369  0  0.988012  0
H  H20  1  0.78238879  0.05927184  0.65314525  1  0  0.093353  0  0.932569  0  0  0.112967  0  0.987778  0  0  0.113989  0  0.988376  0  0  0.097488  0.112095  0  0.987526  0
H  H21  1  0.21761203  0.94072441  0.34685791  1  0  0.093388  0  0.932554  0  0  0.112956  0  0.987802  0  0  0.113977  0  0.988404  0  0  0.097472  0.112083  0  0.987542  0
H  H22  1  0.70717892  0.81986562  0.56379539  1  0  0.060984  0  0.953684  0  0  0.078171  0  1.018324  0  0  0.07849  0  1.019817  0  0  0.082867  0.07789  0  1.017381  0
H  H23  1  0.29281376  0.18013161  0.43621067  1  0  0.060917  0  0.95374  0  0  0.078146  0  1.018349  0  0  0.078463  0  1.019843  0  0  0.082836  0.077861  0  1.017412  0
H  H24  1  0.77742986  0.94528563  0.50275176  1  0  0.049191  0  0.933702  0  0  0.069338  0  0.994166  0  0  0.069966  0  0.994421  0  0  0.082941  0.06884  0  0.99409  0
H  H25  1  0.22256584  0.05470864  0.49725433  1  0  0.049188  0  0.933632  0  0  0.069315  0  0.994136  0  0  0.069942  0  0.994391  0  0  0.082926  0.068812  0  0.994067  0
H  H26  1  0.95341454  0.77935369  0.65974462  1  0  0.058492  0  0.937898  0  0  0.080839  0  0.995953  0  0  0.080973  0  0.997084  0  0  0.087619  0.080487  0  0.995416  0
H  H27  1  0.04657918  0.22063470  0.34025836  1  0  0.058433  0  0.938053  0  0  0.080818  0  0.996057  0  0  0.080938  0  0.997208  0  0  0.087619  0.08044  0  0.995542  0
H  H28  1  0.02038615  0.89497712  0.58561386  1  0  0.050849  0  0.935067  0  0  0.073972  0  0.991497  0  0  0.074148  0  0.99253  0  0  0.084865  0.073659  0  0.990964  0
H  H29  1  0.97960845  0.10501714  0.41439431  1  0  0.050876  0  0.935051  0  0  0.074049  0  0.991434  0  0  0.074233  0  0.992453  0  0  0.084875  0.07373  0  0.990896  0
H  H30  1  0.95377969  0.63030518  0.53636873  1  0  0.063786  0  0.941283  0  0  0.081818  0  1.004638  0  0  0.082552  0  1.005224  0  0  0.08487  0.081244  0  1.004262  0
H  H31  1  0.04621706  0.36969309  0.46362631  1  0  0.063807  0  0.941238  0  0  0.081839  0  1.004589  0  0  0.082574  0  1.005173  0  0  0.084871  0.081271  0  1.004206  0
H  H32  1  0.98438215  0.75111450  0.45257887  1  0  0.075995  0  0.935044  0  0  0.094166  0  0.994557  0  0  0.095307  0  0.994591  0  0  0.091459  0.09335  0  0.994524  0
H  H33  1  0.01561388  0.24889160  0.54742269  1  0  0.07591  0  0.934995  0  0  0.094084  0  0.994522  0  0  0.095226  0  0.994556  0  0  0.091422  0.093266  0  0.994501  0
H  H34  1  0.23959308  0.75295503  0.51271903  1  0  0.051796  0  0.927094  0  0  0.070797  0  0.99103  0  0  0.070998  0  0.990607  0  0  0.102459  0.070695  0  0.991245  0
H  H35  1  0.76040135  0.24704815  0.48727861  1  0  0.051824  0  0.927024  0  0  0.070834  0  0.99096  0  0  0.071028  0  0.990553  0  0  0.102484  0.070734  0  0.991173  0
H  H36  1  0.21485147  0.63719144  0.60234414  1  0  0.045363  0  0.962151  0  0  0.063277  0  1.028763  0  0  0.062425  0  1.030823  0  0  0.098143  0.063929  0  1.027193  0
H  H37  1  0.78514503  0.36281270  0.39765612  1  0  0.045304  0  0.962196  0  0  0.063237  0  1.028782  0  0  0.062374  0  1.030869  0  0  0.09812  0.063894  0  1.027201  0
H  H38  1  0.49402253  0.34769072  0.44246533  1  0  0.106508  0  0.968129  0  0  0.114154  0  1.035282  0  0  0.117995  0  1.031523  0  0  0.111031  0.111305  0  1.038077  0
H  H39  1  0.50598295  0.65230947  0.55753619  1  0  0.106555  0  0.968044  0  0  0.114205  0  1.035184  0  0  0.118045  0  1.031426  0  0  0.111067  0.111357  0  1.037973  0
H  H40  1  0.64599475  0.18412130  0.33676649  1  0  0.091719  0  0.971806  0  0  0.101174  0  1.035625  0  0  0.10452  0  1.034571  0  0  0.104294  0.098648  0  1.036848  0
H  H41  1  0.35400957  0.81587889  0.66323438  1  0  0.091721  0  0.971801  0  0  0.101176  0  1.035617  0  0  0.10454  0  1.034546  0  0  0.1043  0.098653  0  1.036834  0
H  H42  1  0.60078447  0.21925836  0.16853403  1  0  0.092089  0  0.9201  0  0  0.103112  0  0.977182  0  0  0.105613  0  0.974989  0  0  0.12396  0.100996  0  0.979093  0
H  H43  1  0.39921494  0.78073888  0.83146777  1  0  0.092167  0  0.920039  0  0  0.103159  0  0.977146  0  0  0.105675  0  0.974932  0  0  0.123969  0.10103  0  0.979071  0
H  H44  1  0.26795666  0.56047833  0.20753050  1  0  0.092343  0  0.971524  0  0  0.096341  0  1.042396  0  0  0.099236  0  1.039889  0  0  0.120285  0.094232  0  1.043987  0
H  H45  1  0.73204809  0.43952480  0.79247229  1  0  0.092316  0  0.971547  0  0  0.096327  0  1.042373  0  0  0.099223  0  1.039866  0  0  0.120276  0.094232  0  1.043958  0
H  H46  1  0.34526995  0.91873623  0.01319780  1  0  0.120259  0  0.949922  0  0  0.125789  0  1.019031  0  0  0.130567  0  1.014312  0  0  0.103327  0.122255  0  1.022885  0
H  H47  1  0.65473342  0.08125413  0.98680143  1  0  0.120254  0  0.949869  0  0  0.125816  0  1.018955  0  0  0.130597  0  1.014228  0  0  0.1033  0.122284  0  1.02281  0
H  H48  1  0.99364773  0.14934041  0.18228124  1  0  0.093879  0  0.958891  0  0  0.102283  0  1.026148  0  0  0.106164  0  1.023228  0  0  0.097639  0.099372  0  1.028553  0
H  H49  1  0.00635042  0.85066972  0.81770516  1  0  0.093835  0  0.959103  0  0  0.102211  0  1.026367  0  0  0.106088  0  1.023454  0  0  0.097631  0.099296  0  1.028784  0
H  H50  1  0.01408345  0.73449266  0.16238589  1  0  0.095619  0  0.966211  0  0  0.104256  0  1.032983  0  0  0.107142  0  1.031795  0  0  0.097498  0.10221  0  1.033799  0
H  H51  1  0.98591641  0.26551239  0.83762443  1  0  0.095741  0  0.966105  0  0  0.104324  0  1.03294  0  0  0.107209  0  1.031752  0  0  0.097535  0.102279  0  1.033756  0
H  H52  1  0.74331878  0.96377453  0.21509087  1  0  0.100531  0  0.945919  0  0  0.122412  0  1.006097  0  0  0.1235  0  1.00619  0  0  0.088619  0.121272  0  1.006837  0
H  H53  1  0.25668052  0.03623650  0.78490905  1  0  0.100579  0  0.945882  0  0  0.122431  0  1.006102  0  0  0.123519  0  1.006196  0  0  0.088626  0.121296  0  1.00683  0
H  H54  1  0.84732637  0.03485802  0.29281694  1  0  0.089185  0  0.976168  0  0  0.107679  0  1.046662  0  0  0.109453  0  1.045529  0  0  0.083328  0.106717  0  1.046974  0
H  H55  1  0.15267517  0.96515301  0.70718155  1  0  0.089118  0  0.976244  0  0  0.107643  0  1.0467  0  0  0.10942  0  1.045567  0  0  0.083325  0.106678  0  1.047015  0
H  H56  1  0.86872800  0.86123511  0.29402714  1  0  0.103871  0  0.959016  0  0  0.123977  0  1.022814  0  0  0.125492  0  1.02262  0  0  0.08755  0.123157  0  1.022534  0
H  H57  1  0.13127329  0.13877691  0.70597133  1  0  0.103822  0  0.959096  0  0  0.123944  0  1.022891  0  0  0.12546  0  1.022699  0  0  0.087547  0.123128  0  1.022617  0
C  C58  1  0.13645975  0.50637852  0.86342075  1  0  0.165613  0  3.628093  0  0  0.131489  0  3.878179  0  0  0.141412  0  3.892877  0  0  0.06726  0.124757  0  3.868567  0
C  C59  1  0.86354113  0.49362169  0.13657818  1  0  0.165624  0  3.628088  0  0  0.131545  0  3.878136  0  0  0.141469  0  3.89283  0  0  0.067289  0.124804  0  3.868534  0
C  C60  1  0.07059930  0.51602072  0.77789945  1  0  -0.105837  0  3.702156  0  0  -0.117893  0  3.957291  0  0  -0.125554  0  3.97623  0  0  -0.074214  -0.113108  0  3.944437  0
C  C61  1  0.92940040  0.48397950  0.22209747  1  0  -0.105888  0  3.70211  0  0  -0.117977  0  3.957265  0  0  -0.12563  0  3.976208  0  0  -0.074285  -0.113191  0  3.944403  0
C  C62  1  0.15026903  0.43946186  0.70982661  1  0  -0.022809  0  3.702488  0  0  -0.051055  0  3.949219  0  0  -0.045469  0  3.965863  0  0  -0.061173  -0.054185  0  3.93741  0
C  C63  1  0.84973135  0.56054031  0.29017225  1  0  -0.022827  0  3.702472  0  0  -0.051098  0  3.949204  0  0  -0.045509  0  3.965841  0  0  -0.061191  -0.054224  0  3.937383  0
C  C64  1  0.29459781  0.35563648  0.72849500  1  0  -0.116808  0  3.785849  0  0  -0.094237  0  4.030836  0  0  -0.105953  0  4.054887  0  0  -0.011126  -0.086712  0  4.014387  0
C  C65  1  0.70540404  0.64436468  0.27150794  1  0  -0.116716  0  3.785934  0  0  -0.094098  0  4.030845  0  0  -0.105813  0  4.054896  0  0  -0.011078  -0.086574  0  4.0144  0
C  C66  1  0.35195790  0.35168205  0.81599711  1  0  0.11899  0  3.679752  0  0  0.076867  0  3.93278  0  0  0.085744  0  3.951017  0  0  0.057077  0.071216  0  3.919938  0
C  C67  1  0.64804277  0.64831913  0.18400382  1  0  0.118886  0  3.679752  0  0  0.076752  0  3.93279  0  0  0.085629  0  3.951031  0  0  0.057001  0.071072  0  3.919953  0
C  C68  1  0.37834380  0.27489374  0.65411604  1  0  0.544562  0  3.870419  0  0  0.491161  0  4.165245  0  0  0.521004  0  4.165121  0  0  0.244553  0.47121  0  4.164415  0
C  C69  1  0.62165708  0.72510647  0.34588289  1  0  0.544538  0  3.870381  0  0  0.491153  0  4.165179  0  0  0.520996  0  4.165053  0  0  0.244561  0.471201  0  4.164348  0
C  C70  1  0.54938506  0.06701471  0.61195887  1  0  0.077223  0  3.671443  0  0  0.013152  0  3.945638  0  0  0.019499  0  3.956703  0  0  -0.058189  0.008956  0  3.937861  0
C  C71  1  0.45061792  0.93298646  0.38804403  1  0  0.077234  0  3.671468  0  0  0.01318  0  3.945625  0  0  0.019532  0  3.95668  0  0  -0.058126  0.00899  0  3.937846  0
C  C72  1  0.70786617  0.98977803  0.64200812  1  0  -0.151687  0  3.693265  0  0  -0.193161  0  3.95667  0  0  -0.195346  0  3.971102  0  0  -0.169368  -0.191402  0  3.946604  0
C  C73  1  0.29213466  0.01021822  0.35799504  1  0  -0.151692  0  3.693336  0  0  -0.193128  0  3.956716  0  0  -0.195318  0  3.971152  0  0  -0.169349  -0.191372  0  3.946641  0
C  C74  1  0.77934105  0.89280240  0.57016976  1  0  -0.096807  0  3.703238  0  0  -0.133461  0  3.963583  0  0  -0.134646  0  3.979391  0  0  -0.165822  -0.132543  0  3.95257  0
C  C75  1  0.22065271  0.10719484  0.42983356  1  0  -0.096764  0  3.70331  0  0  -0.133481  0  3.963696  0  0  -0.134665  0  3.979506  0  0  -0.165798  -0.132555  0  3.952669  0
C  C76  1  0.94626001  0.82185642  0.58929694  1  0  -0.094404  0  3.693306  0  0  -0.133477  0  3.951359  0  0  -0.134656  0  3.967665  0  0  -0.163417  -0.132388  0  3.939948  0
C  C77  1  0.05373637  0.17813492  0.41070585  1  0  -0.09439  0  3.693469  0  0  -0.133512  0  3.95154  0  0  -0.134687  0  3.967847  0  0  -0.163427  -0.132403  0  3.940109  0
C  C78  1  0.01030818  0.71420989  0.52305886  1  0  -0.139147  0  3.690703  0  0  -0.179709  0  3.955627  0  0  -0.181611  0  3.96939  0  0  -0.1705  -0.178359  0  3.945963  0
C  C79  1  0.98968741  0.28579328  0.47694010  1  0  -0.139059  0  3.690538  0  0  -0.179624  0  3.955478  0  0  -0.181523  0  3.96923  0  0  -0.170455  -0.178275  0  3.945808  0
C  C80  1  0.18609145  0.66858174  0.53148605  1  0  0.061044  0  3.69747  0  0  -0.002755  0  3.969833  0  0  0.003356  0  3.981383  0  0  -0.066396  -0.006732  0  3.961516  0
C  C81  1  0.81390525  0.33142144  0.46851152  1  0  0.061039  0  3.69739  0  0  -0.00279  0  3.969805  0  0  0.003321  0  3.981345  0  0  -0.066403  -0.006768  0  3.961476  0
C  C82  1  0.28357585  0.58295161  0.38529818  1  0  0.527492  0  3.885935  0  0  0.481724  0  4.170743  0  0  0.510835  0  4.171738  0  0  0.230143  0.46235  0  4.169321  0
C  C83  1  0.71643044  0.41703674  0.61470852  1  0  0.527413  0  3.886368  0  0  0.481744  0  4.17102  0  0  0.510853  0  4.172008  0  0  0.230083  0.462372  0  4.16961  0
C  C84  1  0.37113494  0.46952882  0.33261575  1  0  -0.099513  0  3.744008  0  0  -0.072445  0  3.976546  0  0  -0.083814  0  3.999785  0  0  -0.009065  -0.066094  0  3.961764  0
C  C85  1  0.62886547  0.53047335  0.66738448  1  0  -0.099618  0  3.743895  0  0  -0.072582  0  3.976428  0  0  -0.083951  0  3.999666  0  0  -0.009073  -0.066235  0  3.961655  0
C  C86  1  0.47632816  0.36042746  0.36938109  1  0  -0.021315  0  3.687968  0  0  -0.052353  0  3.937812  0  0  -0.04583  0  3.953171  0  0  -0.06432  -0.05651  0  3.928337  0
C  C87  1  0.52367620  0.63957272  0.63062114  1  0  -0.021265  0  3.688052  0  0  -0.052306  0  3.937901  0  0  -0.045783  0  3.95327  0  0  -0.064321  -0.056458  0  3.928419  0
C  C88  1  0.56040015  0.26860004  0.31064704  1  0  -0.129705  0  3.756194  0  0  -0.13934  0  4.010041  0  0  -0.147574  0  4.031186  0  0  -0.086043  -0.134924  0  3.997008  0
C  C89  1  0.43960354  0.73139819  0.68935392  1  0  -0.129714  0  3.756232  0  0  -0.139343  0  4.010057  0  0  -0.147598  0  4.031207  0  0  -0.086078  -0.134933  0  3.99702  0
C  C90  1  0.53617358  0.28684785  0.21750374  1  0  0.136053  0  3.686064  0  0  0.102745  0  3.934934  0  0  0.111343  0  3.952519  0  0  0.054784  0.09727  0  3.923288  0
C  C91  1  0.46382786  0.71315037  0.78249864  1  0  0.1359  0  3.686138  0  0  0.102627  0  3.93498  0  0  0.111215  0  3.952571  0  0  0.054771  0.097162  0  3.923326  0
C  C92  1  0.35171670  0.47864694  0.23845074  1  0  0.11777  0  3.677064  0  0  0.07788  0  3.923767  0  0  0.086312  0  3.941611  0  0  0.056377  0.073036  0  3.911017  0
C  C93  1  0.64828880  0.52135323  0.76155214  1  0  0.11784  0  3.676932  0  0  0.077968  0  3.923644  0  0  0.086398  0  3.941487  0  0  0.056406  0.073116  0  3.910899  0
C  C94  1  0.25657726  0.68200685  0.04637699  1  0  0.652089  0  3.914197  0  0  0.601383  0  4.204898  0  0  0.637047  0  4.196612  0  0  0.202875  0.577021  0  4.209754  0
C  C95  1  0.74341692  0.31798446  0.95362994  1  0  0.652008  0  3.91444  0  0  0.601284  0  4.205152  0  0  0.636949  0  4.196868  0  0  0.202791  0.576916  0  4.210008  0
C  C96  1  0.18354302  0.81388597  0.08240404  1  0  -0.072951  0  3.773179  0  0  -0.047453  0  4.012082  0  0  -0.057697  0  4.036158  0  0  -0.024034  -0.04098  0  3.996035  0
C  C97  1  0.81645819  0.18611323  0.91759900  1  0  -0.072886  0  3.773108  0  0  -0.047423  0  4.012049  0  0  -0.057669  0  4.036129  0  0  -0.024012  -0.040935  0  3.99599  0
C  C98  1  0.24335309  0.92553877  0.05839833  1  0  -0.077271  0  3.681527  0  0  -0.115231  0  3.929293  0  0  -0.112541  0  3.947836  0  0  -0.081446  -0.116939  0  3.918039  0
C  C99  1  0.75665203  0.07445357  0.94159942  1  0  -0.077307  0  3.681361  0  0  -0.115258  0  3.929101  0  0  -0.112565  0  3.947646  0  0  -0.08141  -0.116965  0  3.917839  0
C  C100  1  0.17238066  0.04640611  0.09405520  1  0  -0.059303  0  3.785684  0  0  -0.033103  0  4.019969  0  0  -0.042437  0  4.044212  0  0  -0.023345  -0.027335  0  4.00415  0
C  C101  1  0.82762185  0.95358725  0.90593783  1  0  -0.059293  0  3.785445  0  0  -0.033112  0  4.019761  0  0  -0.042449  0  4.044008  0  0  -0.02338  -0.027342  0  4.003945  0
C  C102  1  0.04534599  0.05389979  0.15505353  1  0  -0.118376  0  3.703912  0  0  -0.152401  0  3.94766  0  0  -0.151572  0  3.96731  0  0  -0.084066  -0.152194  0  3.933924  0
C  C103  1  0.95465604  0.94610440  0.84493842  1  0  -0.11821  0  3.703699  0  0  -0.152184  0  3.947441  0  0  -0.151354  0  3.967091  0  0  -0.083928  -0.151972  0  3.933701  0
C  C104  1  0.98769730  0.94261185  0.18171008  1  0  0.128958  0  3.772343  0  0  0.162323  0  4.004248  0  0  0.160181  0  4.029596  0  0  -0.012542  0.163776  0  3.986226  0
C  C105  1  0.01230476  0.05739721  0.81828916  1  0  0.128901  0  3.772107  0  0  0.162238  0  4.004068  0  0  0.160094  0  4.02942  0  0  -0.012632  0.163688  0  3.986051  0
C  C106  1  0.05663100  0.82327656  0.14369698  1  0  -0.094259  0  3.671125  0  0  -0.128497  0  3.912684  0  0  -0.126111  0  3.930659  0  0  -0.080375  -0.128903  0  3.899493  0
C  C107  1  0.94337078  0.17672951  0.85630781  1  0  -0.0944  0  3.670855  0  0  -0.128592  0  3.912476  0  0  -0.126205  0  3.930449  0  0  -0.080414  -0.129  0  3.899287  0
C  C108  1  0.85478095  0.95100167  0.24961506  1  0  -0.323995  0  3.74426  0  0  -0.405834  0  3.981948  0  0  -0.407742  0  3.992051  0  0  -0.239496  -0.404118  0  3.974333  0
C  C109  1  0.14522033  0.04901035  0.75038273  1  0  -0.323914  0  3.744277  0  0  -0.405746  0  3.981949  0  0  -0.407657  0  3.992055  0  0  -0.239482  -0.404027  0  3.974334  0
C  C110  1  0.23234140  0.16842298  0.07028338  1  0  0.617139  0  3.961682  0  0  0.572946  0  4.245712  0  0  0.607128  0  4.240765  0  0  0.180666  0.549896  0  4.247575  0
C  C111  1  0.76766362  0.83157337  0.92970199  1  0  0.617082  0  3.962075  0  0  0.572866  0  4.24615  0  0  0.607051  0  4.241201  0  0  0.180706  0.549814  0  4.248009  0
N  N112  1  0.27409814  0.42561463  0.88153535  1  0  -0.320993  0  3.261839  0  0  -0.241524  0  3.528393  0  0  -0.262848  0  3.546622  0  0  -0.323265  -0.226672  0  3.515141  0
N  N113  1  0.72590226  0.57438754  0.11846420  1  0  -0.320938  0  3.261748  0  0  -0.241488  0  3.528302  0  0  -0.262815  0  3.546532  0  0  -0.323241  -0.22664  0  3.515075  0
N  N114  1  0.47063265  0.15821824  0.67841674  1  0  -0.40993  0  3.331875  0  0  -0.352217  0  3.579809  0  0  -0.3736  0  3.59027  0  0  -0.410839  -0.337844  0  3.573058  0
N  N115  1  0.52936766  0.84177998  0.32158568  1  0  -0.409919  0  3.33195  0  0  -0.35218  0  3.579915  0  0  -0.373567  0  3.590375  0  0  -0.410852  -0.337813  0  3.573166  0
N  N116  1  0.25824809  0.56036872  0.47537196  1  0  -0.452373  0  3.328985  0  0  -0.394987  0  3.587353  0  0  -0.417909  0  3.596221  0  0  -0.430631  -0.379298  0  3.580756  0
N  N117  1  0.74175328  0.43963839  0.52462465  1  0  -0.452401  0  3.328701  0  0  -0.395025  0  3.587029  0  0  -0.417948  0  3.595894  0  0  -0.430702  -0.379329  0  3.580421  0
N  N118  1  0.43141809  0.38968384  0.18240604  1  0  -0.312349  0  3.251994  0  0  -0.235503  0  3.517067  0  0  -0.255962  0  3.535931  0  0  -0.322418  -0.222065  0  3.503858  0
N  N119  1  0.56858194  0.61031538  0.81759498  1  0  -0.312291  0  3.252151  0  0  -0.235449  0  3.517199  0  0  -0.255911  0  3.536067  0  0  -0.322397  -0.222012  0  3.50399  0
O  O120  1  0.18360063  0.58926116  0.06258769  1  0  -0.642205  0  2.010188  0  0  -0.575718  0  2.258697  0  0  -0.604545  0  2.248435  0  0  -0.326414  -0.554701  0  2.265876  0
O  O121  1  0.81637984  0.41073907  0.93741317  1  0  -0.642296  0  2.010554  0  0  -0.575752  0  2.258994  0  0  -0.604578  0  2.248724  0  0  -0.326469  -0.554734  0  2.266179  0
O  O122  1  0.38661929  0.66689226  0.00358802  1  0  -0.688538  0  2.055307  0  0  -0.624736  0  2.329888  0  0  -0.653201  0  2.315184  0  0  -0.345841  -0.60376  0  2.338323  0
O  O123  1  0.61338433  0.33308916  0.99642581  1  0  -0.688458  0  2.055245  0  0  -0.624653  0  2.329811  0  0  -0.653119  0  2.315117  0  0  -0.345711  -0.603674  0  2.338238  0
O  O124  1  0.16401813  0.27517895  0.10678179  1  0  -0.659914  0  1.953064  0  0  -0.602325  0  2.192259  0  0  -0.630725  0  2.183534  0  0  -0.343221  -0.580955  0  2.197964  0
O  O125  1  0.83599643  0.72482031  0.89320660  1  0  -0.659731  0  1.953256  0  0  -0.602152  0  2.19247  0  0  -0.630548  0  2.183743  0  0  -0.34316  -0.580779  0  2.198167  0
O  O126  1  0.34976825  0.16209092  0.01609223  1  0  -0.640214  0  1.92453  0  0  -0.582364  0  2.153804  0  0  -0.610327  0  2.14417  0  0  -0.342997  -0.562018  0  2.159752  0
O  O127  1  0.65022853  0.83790156  0.98388605  1  0  -0.640314  0  1.924774  0  0  -0.582464  0  2.154113  0  0  -0.610432  0  2.144475  0  0  -0.343061  -0.562112  0  2.16006  0
O  O128  1  0.35819084  0.31362673  0.57239518  1  0  -0.574903  0  1.97542  0  0  -0.526332  0  2.207268  0  0  -0.548016  0  2.200732  0  0  -0.298798  -0.511273  0  2.211076  0
O  O129  1  0.64180856  0.68637051  0.42760594  1  0  -0.574855  0  1.975247  0  0  -0.526317  0  2.207088  0  0  -0.548003  0  2.200552  0  0  -0.29879  -0.511263  0  2.210897  0
O  O130  1  0.23944480  0.69298449  0.34570197  1  0  -0.550454  0  1.891458  0  0  -0.511897  0  2.109688  0  0  -0.532586  0  2.105946  0  0  -0.306318  -0.497654  0  2.111521  0
O  O131  1  0.76054556  0.30702560  0.65429280  1  0  -0.550222  0  1.892325  0  0  -0.511757  0  2.110553  0  0  -0.532438  0  2.106806  0  0  -0.306232  -0.497522  0  2.112396  0
