# generated using pymatgen
data_ZnH14(C11N3)2
_symmetry_space_group_name_H-M   'P 1'
_cell_length_a   7.39574869
_cell_length_b   8.80149644
_cell_length_c   10.86407458
_cell_angle_alpha   113.95938243
_cell_angle_beta   90.08692538
_cell_angle_gamma   114.88864376
_symmetry_Int_Tables_number   1
_chemical_formula_structural   ZnH14(C11N3)2
_chemical_formula_sum   'Zn1 H14 C22 N6'
_cell_volume   573.40719278
_cell_formula_units_Z   1
loop_
 _symmetry_equiv_pos_site_id
 _symmetry_equiv_pos_as_xyz
  1  'x, y, z'
loop_
 _atom_site_type_symbol
 _atom_site_label
 _atom_site_symmetry_multiplicity
 _atom_site_fract_x
 _atom_site_fract_y
 _atom_site_fract_z
 _atom_site_occupancy
 _atom_site_pbe_bader_spin_density
 _atom_site_pbe_cm5_charge
 _atom_site_pbe_ddec_charge
 _atom_site_pbe_ddec_spin_density
 _atom_site_pbe_ddec_sum_bond_order
 _atom_site_pbe_magmom
Zn  Zn0  1  0.99999499  0.99999694  0.00000208  1  0  0.725549  0.780312  0  2.536827  0
H  H1  1  0.62875140  0.25733469  0.02083845  1  0  0.105449  0.102132  0  1.006846  0
H  H2  1  0.37123725  0.74265672  0.97915156  1  0  0.10545  0.102034  0  1.006893  0
H  H3  1  0.93104219  0.86229684  0.22858969  1  0  0.111281  0.073591  0  1.025509  0
H  H4  1  0.06894706  0.13769844  0.77141063  1  0  0.111259  0.073544  0  1.025527  0
H  H5  1  0.76899998  0.95549812  0.59499841  1  0  0.09383  0.095853  0  1.023987  0
H  H6  1  0.81246672  0.04216279  0.40455804  1  0  0.093694  0.095969  0  1.024411  0
H  H7  1  0.23099497  0.04450855  0.40500693  1  0  0.093879  0.095905  0  1.024069  0
H  H8  1  0.18753045  0.95784561  0.59545056  1  0  0.093705  0.095942  0  1.024505  0
H  H9  1  0.79932581  0.59641223  0.80352092  1  0  0.116294  0.090685  0  0.999777  0
H  H10  1  0.20068047  0.40358736  0.19648154  1  0  0.11628  0.090643  0  0.999745  0
H  H11  1  0.64042276  0.27873822  0.79715177  1  0  0.101073  0.102567  0  1.055792  0
H  H12  1  0.35958183  0.72126341  0.20284479  1  0  0.101068  0.102506  0  1.05574  0
H  H13  1  0.77783171  0.55668507  0.24226117  1  0  0.11151  0.117197  0  0.98228  0
H  H14  1  0.22215101  0.44330258  0.75773149  1  0  0.111546  0.117209  0  0.982237  0
C  C15  1  0.69689190  0.39313135  0.01983918  1  0  -0.062973  -0.012647  0  3.941551  0
C  C16  1  0.30310503  0.60686040  0.98015370  1  0  -0.062986  -0.012516  0  3.9416  0
C  C17  1  0.60586466  0.89324687  0.79079328  1  0  0.181766  0.286604  0  4.130085  0
C  C18  1  0.71283638  0.10589220  0.20909725  1  0  0.180779  0.286239  0  4.13012  0
C  C19  1  0.39415682  0.10675070  0.20920308  1  0  0.181814  0.286826  0  4.130087  0
C  C20  1  0.28717765  0.89410128  0.79089889  1  0  0.180755  0.28609  0  4.129933  0
C  C21  1  0.45281614  0.90630483  0.72826693  1  0  -0.063101  -0.222542  0  4.244347  0
C  C22  1  0.54719591  0.09370357  0.27174168  1  0  -0.063111  -0.222806  0  4.244192  0
C  C23  1  0.47486561  0.95003012  0.61069171  1  0  -0.019447  0.088706  0  4.091864  0
C  C24  1  0.52513349  0.04998214  0.38931519  1  0  -0.019489  0.088698  0  4.091999  0
C  C25  1  0.86454736  0.72887496  0.13583046  1  0  0.043683  0.083384  0  3.96625  0
C  C26  1  0.13544114  0.27111882  0.86416852  1  0  0.043741  0.083542  0  3.96616  0
C  C27  1  0.65004862  0.97480759  0.55370369  1  0  -0.10648  -0.147371  0  4.018006  0
C  C28  1  0.67466853  0.02388128  0.44610742  1  0  -0.106951  -0.149264  0  4.019025  0
C  C29  1  0.34995468  0.02521305  0.44630555  1  0  -0.106475  -0.147357  0  4.01805  0
C  C30  1  0.32532831  0.97612647  0.55389546  1  0  -0.106948  -0.149178  0  4.01904  0
C  C31  1  0.79082829  0.57985316  0.89782728  1  0  0.048254  0.094385  0  3.937903  0
C  C32  1  0.20917587  0.42014762  0.10217366  1  0  0.048322  0.094485  0  3.937802  0
C  C33  1  0.70291248  0.40415818  0.89539260  1  0  -0.084116  -0.124587  0  3.968567  0
C  C34  1  0.29709607  0.59583787  0.10460241  1  0  -0.08412  -0.124527  0  3.968485  0
C  C35  1  0.77941323  0.55886110  0.14264503  1  0  -0.082347  -0.129666  0  3.980695  0
C  C36  1  0.22057564  0.44113074  0.85734880  1  0  -0.082433  -0.129802  0  3.980691  0
N  N37  1  0.73727438  0.88253621  0.84243007  1  0  -0.353045  -0.446046  0  3.160366  0
N  N38  1  0.85435726  0.11601317  0.15713212  1  0  -0.35224  -0.445434  0  3.161757  0
N  N39  1  0.26273669  0.11745673  0.15757330  1  0  -0.353104  -0.446202  0  3.160269  0
N  N40  1  0.14563414  0.88398641  0.84287032  1  0  -0.352247  -0.445483  0  3.161133  0
N  N41  1  0.87032392  0.73958656  0.01588632  1  0  -0.319676  -0.229763  0  3.550066  0
N  N42  1  0.12966812  0.26041431  0.98411556  1  0  -0.319693  -0.229858  0  3.550073  0
