# generated using pymatgen
data_GdH21(C7O3)4
_symmetry_space_group_name_H-M   'P 1'
_cell_length_a   9.58794245
_cell_length_b   11.42857591
_cell_length_c   12.50392741
_cell_angle_alpha   75.17278076
_cell_angle_beta   73.69071374
_cell_angle_gamma   73.40591136
_symmetry_Int_Tables_number   1
_chemical_formula_structural   GdH21(C7O3)4
_chemical_formula_sum   'Gd2 H42 C56 O24'
_cell_volume   1237.02746427
_cell_formula_units_Z   2
loop_
 _symmetry_equiv_pos_site_id
 _symmetry_equiv_pos_as_xyz
  1  'x, y, z'
loop_
 _atom_site_type_symbol
 _atom_site_label
 _atom_site_symmetry_multiplicity
 _atom_site_fract_x
 _atom_site_fract_y
 _atom_site_fract_z
 _atom_site_occupancy
 _atom_site_hle17_bader_spin_density
 _atom_site_hle17_ddec_charge
 _atom_site_hle17_ddec_spin_density
 _atom_site_hle17_ddec_sum_bond_order
 _atom_site_hle17_magmom
 _atom_site_hse06_10hf_bader_spin_density
 _atom_site_hse06_10hf_ddec_charge
 _atom_site_hse06_10hf_ddec_spin_density
 _atom_site_hse06_10hf_ddec_sum_bond_order
 _atom_site_hse06_10hf_magmom
 _atom_site_hse06_bader_spin_density
 _atom_site_hse06_ddec_charge
 _atom_site_hse06_ddec_spin_density
 _atom_site_hse06_ddec_sum_bond_order
 _atom_site_hse06_magmom
 _atom_site_pbe_bader_spin_density
 _atom_site_pbe_cm5_charge
 _atom_site_pbe_ddec_charge
 _atom_site_pbe_ddec_spin_density
 _atom_site_pbe_ddec_sum_bond_order
 _atom_site_pbe_magmom
Gd  Gd0  1  0.28841947  0.95514596  0.05152692  1  0  2.150404  0  1.784594  0  0  2.06003  0  2.143703  0  0  2.116349  0  2.085427  0  0  1.467843  2.017172  0  2.188719  0
Gd  Gd1  1  0.71158081  0.04485436  0.94847311  1  0  2.150438  0  1.784579  0  0  2.060019  0  2.14372  0  0  2.116316  0  2.08548  0  0  1.467847  2.017173  0  2.188715  0
H  H2  1  0.20801490  0.69102974  0.26244134  1  0  0.417899  0  0.867099  0  0  0.385093  0  0.948292  0  0  0.397926  0  0.933285  0  0  0.312765  0.375973  0  0.958463  0
H  H3  1  0.79198512  0.30897151  0.73755853  1  0  0.4179  0  0.867123  0  0  0.385093  0  0.94832  0  0  0.397927  0  0.933294  0  0  0.312763  0.375972  0  0.958492  0
H  H4  1  0.48889586  0.92641336  0.20114134  1  0  0.435313  0  0.87125  0  0  0.405561  0  0.933495  0  0  0.416458  0  0.917694  0  0  0.298916  0.397915  0  0.944574  0
H  H5  1  0.51110468  0.07358603  0.79885806  1  0  0.435298  0  0.871266  0  0  0.405531  0  0.933535  0  0  0.416428  0  0.917734  0  0  0.298905  0.397886  0  0.944613  0
H  H6  1  0.39627908  0.82060136  0.26089964  1  0  0.434418  0  0.865516  0  0  0.404686  0  0.927981  0  0  0.415616  0  0.91209  0  0  0.296892  0.396844  0  0.939392  0
H  H7  1  0.60372199  0.17939617  0.73910008  1  0  0.434424  0  0.865504  0  0  0.404697  0  0.927971  0  0  0.415626  0  0.91208  0  0  0.296913  0.396856  0  0.93938  0
H  H8  1  0.14816590  0.89025159  0.89188571  1  0  0.444231  0  0.828098  0  0  0.414606  0  0.898504  0  0  0.424095  0  0.884634  0  0  0.317205  0.407728  0  0.908598  0
H  H9  1  0.85183465  0.10974780  0.10811448  1  0  0.444258  0  0.828077  0  0  0.414639  0  0.898457  0  0  0.424128  0  0.884587  0  0  0.317213  0.407761  0  0.90855  0
H  H10  1  0.04977507  0.85215381  0.01210947  1  0  0.458028  0  0.83362  0  0  0.425727  0  0.899156  0  0  0.437068  0  0.882559  0  0  0.310311  0.417697  0  0.910902  0
H  H11  1  0.95022440  0.14784557  0.98789097  1  0  0.458025  0  0.833626  0  0  0.425726  0  0.899158  0  0  0.437066  0  0.882562  0  0  0.310313  0.417695  0  0.910904  0
H  H12  1  0.09517970  0.76857669  0.43551517  1  0  0.09281  0  0.949163  0  0  0.103484  0  1.010394  0  0  0.106722  0  1.008027  0  0  0.104934  0.101062  0  1.012268  0
H  H13  1  0.90482084  0.23142270  0.56448423  1  0  0.092811  0  0.949178  0  0  0.10349  0  1.010397  0  0  0.106728  0  1.00803  0  0  0.104934  0.101069  0  1.012272  0
H  H14  1  0.93671305  0.76452501  0.63304766  1  0  0.08659  0  0.961976  0  0  0.097744  0  1.024144  0  0  0.100422  0  1.023573  0  0  0.097191  0.095687  0  1.024968  0
H  H15  1  0.06328776  0.23547345  0.36695270  1  0  0.086574  0  0.961949  0  0  0.097722  0  1.024133  0  0  0.100402  0  1.023559  0  0  0.097177  0.095663  0  1.024962  0
H  H16  1  0.70334923  0.92898901  0.66814114  1  0  0.101664  0  0.947627  0  0  0.113486  0  1.003257  0  0  0.116618  0  1.000988  0  0  0.106724  0.111118  0  1.005256  0
H  H17  1  0.29665133  0.07101038  0.33185985  1  0  0.101622  0  0.947573  0  0  0.113462  0  1.003195  0  0  0.116595  0  1.000923  0  0  0.106699  0.111093  0  1.005197  0
H  H18  1  0.62359910  0.08994402  0.50841468  1  0  0.111065  0  0.957062  0  0  0.123379  0  1.014728  0  0  0.126175  0  1.014412  0  0  0.106135  0.121802  0  1.013977  0
H  H19  1  0.37640120  0.91005631  0.49158695  1  0  0.111098  0  0.957023  0  0  0.1234  0  1.014701  0  0  0.126199  0  1.014382  0  0  0.106147  0.121807  0  1.01397  0
H  H20  1  0.79936561  0.27383734  0.39264457  1  0  0.112858  0  0.957769  0  0  0.123642  0  1.018172  0  0  0.126365  0  1.017676  0  0  0.107637  0.121541  0  1.019039  0
H  H21  1  0.20063441  0.72616391  0.60735610  1  0  0.112856  0  0.957832  0  0  0.123643  0  1.018217  0  0  0.126365  0  1.017725  0  0  0.107623  0.121541  0  1.019085  0
H  H22  1  0.63348055  0.48806080  0.38993490  1  0  0.100679  0  0.964648  0  0  0.10784  0  1.030072  0  0  0.110177  0  1.029783  0  0  0.104559  0.106248  0  1.030129  0
H  H23  1  0.36651754  0.51193950  0.61006402  1  0  0.100656  0  0.964676  0  0  0.107816  0  1.030099  0  0  0.110158  0  1.029798  0  0  0.104541  0.106225  0  1.030156  0
H  H24  1  0.35986214  0.39741264  0.21739120  1  0  0.098453  0  0.979359  0  0  0.105483  0  1.04501  0  0  0.107216  0  1.045954  0  0  0.104907  0.104062  0  1.044702  0
H  H25  1  0.64013813  0.60258768  0.78260803  1  0  0.098471  0  0.97934  0  0  0.1055  0  1.044995  0  0  0.107234  0  1.045939  0  0  0.104924  0.104079  0  1.044687  0
H  H26  1  0.53033505  0.18527409  0.21508437  1  0  0.129017  0  0.938551  0  0  0.138297  0  0.997748  0  0  0.141832  0  0.996307  0  0  0.115936  0.135682  0  0.999101  0
H  H27  1  0.46966632  0.81472623  0.78491542  1  0  0.129017  0  0.938555  0  0  0.138289  0  0.997762  0  0  0.141824  0  0.99632  0  0  0.115931  0.135673  0  0.999114  0
H  H28  1  0.44220048  0.46056137  0.94919204  1  0  0.099345  0  0.966562  0  0  0.108711  0  1.029715  0  0  0.110968  0  1.029026  0  0  0.105331  0.10729  0  1.02985  0
H  H29  1  0.55779785  0.53943800  0.05080465  1  0  0.099345  0  0.966633  0  0  0.108704  0  1.02976  0  0  0.110951  0  1.029103  0  0  0.105325  0.107284  0  1.029892  0
H  H30  1  0.25156911  0.64700203  0.01047760  1  0  0.134996  0  0.958188  0  0  0.143344  0  1.019086  0  0  0.14761  0  1.01654  0  0  0.112978  0.140191  0  1.021198  0
H  H31  1  0.74842896  0.35299826  0.98951973  1  0  0.135012  0  0.958281  0  0  0.143362  0  1.019182  0  0  0.147626  0  1.016642  0  0  0.112999  0.140209  0  1.021294  0
H  H32  1  0.94356459  0.41359415  0.18907169  1  0  0.110481  0  0.957885  0  0  0.120616  0  1.018525  0  0  0.123368  0  1.018836  0  0  0.104293  0.118719  0  1.018305  0
H  H33  1  0.05643705  0.58640525  0.81092905  1  0  0.11048  0  0.957899  0  0  0.120632  0  1.018526  0  0  0.123362  0  1.018861  0  0  0.104283  0.118735  0  1.018305  0
H  H34  1  0.13418026  0.22848249  0.13109123  1  0  0.114366  0  0.958612  0  0  0.121759  0  1.023218  0  0  0.125519  0  1.019833  0  0  0.113477  0.118968  0  1.02582  0
H  H35  1  0.86582167  0.77151599  0.86891127  1  0  0.114362  0  0.95864  0  0  0.121762  0  1.023226  0  0  0.125522  0  1.01984  0  0  0.113467  0.118969  0  1.025833  0
H  H36  1  0.01247858  0.48556465  0.33107968  1  0  0.106842  0  0.970135  0  0  0.11655  0  1.033609  0  0  0.119722  0  1.032765  0  0  0.103625  0.114358  0  1.034087  0
H  H37  1  0.98752061  0.51443567  0.66892059  1  0  0.106825  0  0.970162  0  0  0.116534  0  1.033629  0  0  0.119707  0  1.032783  0  0  0.103617  0.114343  0  1.034107  0
H  H38  1  0.84535202  0.51791001  0.51747072  1  0  0.086979  0  0.957978  0  0  0.09839  0  1.017546  0  0  0.100903  0  1.016236  0  0  0.099598  0.09652  0  1.01859  0
H  H39  1  0.15464611  0.48209030  0.48253059  1  0  0.087035  0  0.958046  0  0  0.098452  0  1.017588  0  0  0.100965  0  1.016278  0  0  0.099634  0.096581  0  1.018633  0
H  H40  1  0.64041723  0.70963123  0.53155561  1  0  0.082737  0  0.999544  0  0  0.090289  0  1.067229  0  0  0.091682  0  1.069953  0  0  0.092654  0.089242  0  1.065506  0
H  H41  1  0.35958144  0.29037095  0.46844434  1  0  0.082697  0  0.99957  0  0  0.090265  0  1.06725  0  0  0.091658  0  1.069973  0  0  0.092633  0.089218  0  1.065531  0
H  H42  1  0.60966511  0.86956507  0.35703396  1  0  0.095194  0  0.947164  0  0  0.107663  0  1.004349  0  0  0.110715  0  1.001949  0  0  0.10606  0.105401  0  1.006051  0
H  H43  1  0.39033462  0.13043711  0.64296415  1  0  0.09518  0  0.947163  0  0  0.107671  0  1.004319  0  0  0.110724  0  1.001915  0  0  0.106036  0.105404  0  1.006021  0
C  C44  1  0.05433736  0.93416641  0.24854007  1  0  0.679301  0  3.875778  0  0  0.627995  0  4.175537  0  0  0.663302  0  4.166292  0  0  0.207233  0.603868  0  4.181293  0
C  C45  1  0.94566264  0.06583484  0.75145900  1  0  0.679287  0  3.875745  0  0  0.628016  0  4.175461  0  0  0.663318  0  4.166222  0  0  0.207247  0.603889  0  4.181221  0
C  C46  1  0.95061242  0.93103570  0.36197313  1  0  -0.168682  0  3.741842  0  0  -0.152362  0  3.981727  0  0  -0.163967  0  4.004026  0  0  -0.024288  -0.144793  0  3.966998  0
C  C47  1  0.04938923  0.06896370  0.63802761  1  0  -0.168637  0  3.741774  0  0  -0.152342  0  3.981674  0  0  -0.163944  0  4.003973  0  0  -0.024264  -0.144774  0  3.966948  0
C  C48  1  0.99094114  0.83800834  0.45292104  1  0  -0.04164  0  3.748391  0  0  -0.065077  0  3.99849  0  0  -0.062829  0  4.019222  0  0  -0.078756  -0.066644  0  3.984393  0
C  C49  1  0.00905696  0.16199197  0.54707868  1  0  -0.041703  0  3.748303  0  0  -0.06514  0  3.998407  0  0  -0.062893  0  4.019139  0  0  -0.078788  -0.066706  0  3.98431  0
C  C50  1  0.90339861  0.83620270  0.56261236  1  0  -0.09695  0  3.782939  0  0  -0.115113  0  4.043542  0  0  -0.120155  0  4.065685  0  0  -0.098131  -0.111505  0  4.02854  0
C  C51  1  0.09660220  0.16379576  0.43738799  1  0  -0.096924  0  3.782887  0  0  -0.115087  0  4.043494  0  0  -0.120128  0  4.065637  0  0  -0.098114  -0.111477  0  4.028493  0
C  C52  1  0.77173250  0.92757337  0.58246476  1  0  -0.011494  0  3.743946  0  0  -0.027903  0  3.99743  0  0  -0.025228  0  4.016002  0  0  -0.077539  -0.029618  0  3.984388  0
C  C53  1  0.22826941  0.07242510  0.41753615  1  0  -0.011489  0  3.743991  0  0  -0.027904  0  3.997463  0  0  -0.02523  0  4.016035  0  0  -0.077544  -0.029618  0  3.984414  0
C  C54  1  0.72726274  0.01951808  0.49314509  1  0  -0.201429  0  3.753158  0  0  -0.222419  0  4.009388  0  0  -0.229658  0  4.029738  0  0  -0.104587  -0.216842  0  3.993556  0
C  C55  1  0.27273756  0.98048224  0.50685574  1  0  -0.201412  0  3.753229  0  0  -0.2224  0  4.009451  0  0  -0.229642  0  4.029799  0  0  -0.104574  -0.216808  0  3.993622  0
C  C56  1  0.81631138  0.02164969  0.38338431  1  0  0.279593  0  3.739241  0  0  0.259784  0  4.003211  0  0  0.272893  0  4.01826  0  0  0.097818  0.250681  0  3.992966  0
C  C57  1  0.18368892  0.97835063  0.61661651  1  0  0.279619  0  3.73919  0  0  0.259824  0  4.003152  0  0  0.272932  0  4.018201  0  0  0.097848  0.250723  0  3.992904  0
C  C58  1  0.67329472  0.21909575  0.30312698  1  0  0.289506  0  3.763445  0  0  0.276677  0  4.026399  0  0  0.289228  0  4.040615  0  0  0.094358  0.267986  0  4.016797  0
C  C59  1  0.32670476  0.78090364  0.69687504  1  0  0.289538  0  3.76348  0  0  0.276717  0  4.026412  0  0  0.28927  0  4.040627  0  0  0.094385  0.268029  0  4.016807  0
C  C60  1  0.70354424  0.30240180  0.35377937  1  0  -0.183752  0  3.736046  0  0  -0.201807  0  3.987429  0  0  -0.208174  0  4.006272  0  0  -0.095248  -0.197748  0  3.975242  0
C  C61  1  0.29645469  0.69759945  0.64622074  1  0  -0.183837  0  3.736113  0  0  -0.201891  0  3.987476  0  0  -0.208259  0  4.006317  0  0  -0.095257  -0.197831  0  3.975287  0
C  C62  1  0.61077278  0.42092031  0.35279594  1  0  -0.031239  0  3.726732  0  0  -0.055182  0  3.973796  0  0  -0.052072  0  3.993248  0  0  -0.074875  -0.057042  0  3.960519  0
C  C63  1  0.38923126  0.57907817  0.64720209  1  0  -0.031184  0  3.726692  0  0  -0.055119  0  3.973743  0  0  -0.052006  0  3.993197  0  0  -0.074823  -0.056979  0  3.960468  0
C  C64  1  0.48659181  0.45606867  0.30357026  1  0  -0.102192  0  3.782771  0  0  -0.081048  0  4.017603  0  0  -0.091926  0  4.041245  0  0  -0.022132  -0.07416  0  4.001971  0
C  C65  1  0.51340845  0.54393165  0.69642818  1  0  -0.102125  0  3.782749  0  0  -0.080981  0  4.017599  0  0  -0.091861  0  4.041246  0  0  -0.022146  -0.074094  0  4.001968  0
C  C66  1  0.45653940  0.37056708  0.25498954  1  0  -0.039345  0  3.728557  0  0  -0.060699  0  3.974768  0  0  -0.057805  0  3.994243  0  0  -0.076368  -0.06239  0  3.961898  0
C  C67  1  0.54345979  0.62943323  0.74500994  1  0  -0.039354  0  3.728518  0  0  -0.060702  0  3.974729  0  0  -0.05781  0  3.994207  0  0  -0.076358  -0.062392  0  3.961856  0
C  C68  1  0.55015703  0.25248494  0.25376256  1  0  -0.170064  0  3.701167  0  0  -0.192728  0  3.958699  0  0  -0.198789  0  3.976792  0  0  -0.089493  -0.188848  0  3.946835  0
C  C69  1  0.44984325  0.74751538  0.74623747  1  0  -0.170086  0  3.701218  0  0  -0.192748  0  3.958747  0  0  -0.198807  0  3.97684  0  0  -0.089505  -0.188866  0  3.94688  0
C  C70  1  0.39117519  0.58381829  0.30231892  1  0  0.661964  0  3.80878  0  0  0.61067  0  4.107831  0  0  0.644678  0  4.098083  0  0  0.237908  0.587362  0  4.114348  0
C  C71  1  0.60882542  0.41618484  0.69768356  1  0  0.661879  0  3.808698  0  0  0.61054  0  4.107846  0  0  0.644547  0  4.098103  0  0  0.237846  0.587232  0  4.114362  0
C  C72  1  0.42557946  0.22535364  0.01078003  1  0  0.686211  0  3.884057  0  0  0.641651  0  4.176143  0  0  0.677204  0  4.166654  0  0  0.216971  0.617314  0  4.182022  0
C  C73  1  0.57442083  0.77464668  0.98922080  1  0  0.686215  0  3.884021  0  0  0.641687  0  4.176068  0  0  0.677242  0  4.166577  0  0  0.216921  0.617351  0  4.181942  0
C  C74  1  0.30233032  0.33280746  0.03840695  1  0  -0.102382  0  3.777181  0  0  -0.082206  0  4.01282  0  0  -0.093651  0  4.036732  0  0  -0.027749  -0.074919  0  3.996921  0
C  C75  1  0.69767105  0.66719287  0.96159363  1  0  -0.102471  0  3.777254  0  0  -0.0823  0  4.012876  0  0  -0.093749  0  4.036789  0  0  -0.027783  -0.075014  0  3.996974  0
C  C76  1  0.33286696  0.45160488  0.00184493  1  0  -0.040821  0  3.744871  0  0  -0.062987  0  3.991501  0  0  -0.060229  0  4.011568  0  0  -0.078881  -0.06451  0  3.977387  0
C  C77  1  0.66713032  0.54839448  0.99815519  1  0  -0.040797  0  3.74493  0  0  -0.06292  0  3.991537  0  0  -0.060163  0  4.0116  0  0  -0.07885  -0.064441  0  3.977422  0
C  C78  1  0.22816849  0.55478842  0.03546796  1  0  -0.165897  0  3.706043  0  0  -0.19029  0  3.963067  0  0  -0.19614  0  3.979806  0  0  -0.093684  -0.186391  0  3.951694  0
C  C79  1  0.77182984  0.44521095  0.96452953  1  0  -0.165915  0  3.706091  0  0  -0.19034  0  3.963143  0  0  -0.196189  0  3.979881  0  0  -0.093696  -0.186443  0  3.951771  0
C  C80  1  0.09081068  0.53885792  0.10663112  1  0  0.300682  0  3.760871  0  0  0.286127  0  4.024164  0  0  0.299569  0  4.038188  0  0  0.096761  0.27698  0  4.014516  0
C  C81  1  0.90919094  0.46114147  0.89336804  1  0  0.300772  0  3.760842  0  0  0.286221  0  4.024154  0  0  0.299663  0  4.038171  0  0  0.096828  0.277073  0  4.014505  0
C  C82  1  0.05431826  0.42272741  0.13892133  1  0  -0.202265  0  3.756935  0  0  -0.219458  0  4.010414  0  0  -0.227151  0  4.03042  0  0  -0.101854  -0.214239  0  3.996708  0
C  C83  1  0.94568230  0.57727198  0.86107966  1  0  -0.202342  0  3.757028  0  0  -0.219552  0  4.010509  0  0  -0.227227  0  4.030524  0  0  -0.101889  -0.214331  0  3.9968  0
C  C84  1  0.16113998  0.31944472  0.10507243  1  0  -0.028798  0  3.702284  0  0  -0.054888  0  3.95405  0  0  -0.050592  0  3.971293  0  0  -0.074272  -0.05751  0  3.942413  0
C  C85  1  0.83886031  0.68055560  0.89492840  1  0  -0.028784  0  3.702329  0  0  -0.054872  0  3.954102  0  0  -0.050572  0  3.971338  0  0  -0.074271  -0.057493  0  3.942463  0
C  C86  1  0.90175547  0.65705376  0.23863745  1  0  0.305133  0  3.71822  0  0  0.283236  0  3.9795  0  0  0.298811  0  3.992777  0  0  0.10547  0.272318  0  3.970565  0
C  C87  1  0.09824264  0.34294655  0.76136227  1  0  0.305083  0  3.718327  0  0  0.283172  0  3.979606  0  0  0.298747  0  3.992885  0  0  0.10548  0.272251  0  3.970675  0
C  C88  1  0.92144641  0.56799757  0.33683609  1  0  -0.209365  0  3.765337  0  0  -0.230417  0  4.022769  0  0  -0.23831  0  4.042495  0  0  -0.107998  -0.225006  0  4.008873  0
C  C89  1  0.07855036  0.43200367  0.66316530  1  0  -0.209319  0  3.765306  0  0  -0.230372  0  4.022747  0  0  -0.238263  0  4.04247  0  0  -0.107979  -0.224959  0  4.008852  0
C  C90  1  0.82754388  0.58729240  0.44139782  1  0  -0.028462  0  3.761205  0  0  -0.039864  0  4.006683  0  0  -0.037315  0  4.026017  0  0  -0.083822  -0.0411  0  3.99326  0
C  C91  1  0.17245505  0.41270885  0.55860229  1  0  -0.028478  0  3.761301  0  0  -0.039885  0  4.006779  0  0  -0.037336  0  4.026112  0  0  -0.083818  -0.04112  0  3.993358  0
C  C92  1  0.71287016  0.69464174  0.44972453  1  0  -0.098471  0  3.787762  0  0  -0.114377  0  4.044058  0  0  -0.120278  0  4.067387  0  0  -0.102021  -0.110523  0  4.027997  0
C  C93  1  0.28712984  0.30535951  0.55027454  1  0  -0.098412  0  3.787853  0  0  -0.114338  0  4.04414  0  0  -0.120238  0  4.06747  0  0  -0.102014  -0.110484  0  4.028081  0
C  C94  1  0.69520236  0.78347092  0.35261164  1  0  -0.0243  0  3.740238  0  0  -0.050454  0  3.992809  0  0  -0.046162  0  4.010719  0  0  -0.077118  -0.053344  0  3.980774  0
C  C95  1  0.30479738  0.21653126  0.64738727  1  0  -0.024331  0  3.740304  0  0  -0.050509  0  3.992874  0  0  -0.046214  0  4.010784  0  0  -0.077111  -0.05339  0  3.980834  0
C  C96  1  0.78864853  0.76779114  0.24613337  1  0  -0.17626  0  3.715149  0  0  -0.162654  0  3.96171  0  0  -0.175005  0  3.982045  0  0  -0.027439  -0.15471  0  3.948846  0
C  C97  1  0.21135174  0.23220918  0.75386586  1  0  -0.176256  0  3.715253  0  0  -0.162634  0  3.961778  0  0  -0.17499  0  3.982122  0  0  -0.027446  -0.154688  0  3.948917  0
C  C98  1  0.76832885  0.86991638  0.14768846  1  0  0.671195  0  3.867711  0  0  0.617943  0  4.168053  0  0  0.653524  0  4.158447  0  0  0.204839  0.593799  0  4.174005  0
C  C99  1  0.23167115  0.13008487  0.85230981  1  0  0.671151  0  3.86777  0  0  0.617928  0  4.168062  0  0  0.653511  0  4.158458  0  0  0.204844  0.593783  0  4.174018  0
O  O100  1  0.13820731  0.83308819  0.21743082  1  0  -0.688614  0  2.027918  0  0  -0.631057  0  2.262788  0  0  -0.658115  0  2.253582  0  0  -0.354011  -0.611585  0  2.268315  0
O  O101  1  0.86179297  0.16691213  0.78256921  1  0  -0.688583  0  2.027933  0  0  -0.631041  0  2.262802  0  0  -0.658096  0  2.253596  0  0  -0.354005  -0.611566  0  2.268323  0
O  O102  1  0.06503316  0.03799506  0.18197840  1  0  -0.676061  0  1.987935  0  0  -0.635371  0  2.230337  0  0  -0.65946  0  2.219449  0  0  -0.373587  -0.618355  0  2.237708  0
O  O103  1  0.93496738  0.96200433  0.81802179  1  0  -0.676092  0  1.987864  0  0  -0.635404  0  2.230239  0  0  -0.659489  0  2.219354  0  0  -0.373595  -0.618387  0  2.23761  0
O  O104  1  0.76971681  0.10459566  0.29125516  1  0  -0.297908  0  2.38785  0  0  -0.223454  0  2.612048  0  0  -0.242636  0  2.613899  0  0  -0.14224  -0.209593  0  2.610578  0
O  O105  1  0.23028376  0.89540374  0.70874663  1  0  -0.297905  0  2.38785  0  0  -0.223461  0  2.61205  0  0  -0.242644  0  2.613903  0  0  -0.142257  -0.209606  0  2.610588  0
O  O106  1  0.42888640  0.66744391  0.32628925  1  0  -0.570538  0  1.958473  0  0  -0.523247  0  2.174041  0  0  -0.544721  0  2.16578  0  0  -0.288961  -0.508442  0  2.17942  0
O  O107  1  0.57110928  0.33255359  0.67371487  1  0  -0.57051  0  1.958208  0  0  -0.523206  0  2.173806  0  0  -0.544682  0  2.165543  0  0  -0.288961  -0.508399  0  2.179185  0
O  O108  1  0.26208913  0.59954878  0.27386903  1  0  -0.556656  0  2.112076  0  0  -0.50644  0  2.343218  0  0  -0.528452  0  2.328524  0  0  -0.325738  -0.490947  0  2.352458  0
O  O109  1  0.73791114  0.40045153  0.72613021  1  0  -0.556653  0  2.112176  0  0  -0.506397  0  2.343304  0  0  -0.528408  0  2.328593  0  0  -0.325712  -0.490916  0  2.352575  0
O  O110  1  0.40426974  0.11421226  0.03618096  1  0  -0.797584  0  2.115675  0  0  -0.751258  0  2.375083  0  0  -0.778923  0  2.364042  0  0  -0.422241  -0.731335  0  2.381889  0
O  O111  1  0.59573190  0.88578714  0.96381979  1  0  -0.797553  0  2.115634  0  0  -0.75122  0  2.375023  0  0  -0.778884  0  2.363983  0  0  -0.422197  -0.731304  0  2.381841  0
O  O112  1  0.55613232  0.24374880  0.96485384  1  0  -0.682991  0  1.993666  0  0  -0.641746  0  2.23705  0  0  -0.666669  0  2.227722  0  0  -0.38807  -0.624001  0  2.243351  0
O  O113  1  0.44386795  0.75625152  0.03514539  1  0  -0.682923  0  1.993594  0  0  -0.641762  0  2.237031  0  0  -0.666686  0  2.227704  0  0  -0.388056  -0.624016  0  2.243331  0
O  O114  1  0.99288995  0.64686955  0.13404304  1  0  -0.271681  0  2.432562  0  0  -0.193326  0  2.651393  0  0  -0.213814  0  2.655288  0  0  -0.129223  -0.17887  0  2.648506  0
O  O115  1  0.00710867  0.35312889  0.86595621  1  0  -0.271675  0  2.432596  0  0  -0.193317  0  2.651443  0  0  -0.213805  0  2.655337  0  0  -0.129255  -0.17886  0  2.648556  0
O  O116  1  0.86349138  0.87152768  0.05293295  1  0  -0.690999  0  2.120686  0  0  -0.643541  0  2.366288  0  0  -0.668577  0  2.356312  0  0  -0.364743  -0.625829  0  2.372835  0
O  O117  1  0.13650864  0.12847358  0.94706692  1  0  -0.69099  0  2.120683  0  0  -0.643543  0  2.366257  0  0  -0.668581  0  2.35628  0  0  -0.364757  -0.625831  0  2.37281  0
O  O118  1  0.65150133  0.96080734  0.15612071  1  0  -0.709433  0  2.030903  0  0  -0.657616  0  2.267372  0  0  -0.683557  0  2.257202  0  0  -0.364647  -0.639067  0  2.274052  0
O  O119  1  0.34849894  0.03919298  0.84387852  1  0  -0.709413  0  2.030935  0  0  -0.657607  0  2.267387  0  0  -0.683552  0  2.257216  0  0  -0.364642  -0.639054  0  2.274062  0
O  O120  1  0.38878355  0.90708263  0.21634823  1  0  -0.919704  0  1.886923  0  0  -0.877386  0  2.072862  0  0  -0.898964  0  2.042911  0  0  -0.651743  -0.861597  0  2.094105  0
O  O121  1  0.61121807  0.09291677  0.78365092  1  0  -0.919697  0  1.886911  0  0  -0.877371  0  2.072845  0  0  -0.898944  0  2.042892  0  0  -0.65176  -0.861587  0  2.094085  0
O  O122  1  0.15251078  0.86310798  0.97195570  1  0  -0.892018  0  1.856262  0  0  -0.854108  0  2.060051  0  0  -0.873421  0  2.028684  0  0  -0.629877  -0.840086  0  2.082338  0
O  O123  1  0.84748976  0.13689141  0.02804449  1  0  -0.892038  0  1.856252  0  0  -0.854134  0  2.060041  0  0  -0.87344  0  2.02867  0  0  -0.62989  -0.840113  0  2.082327  0
