# generated using pymatgen
data_CuH4C3IN
_symmetry_space_group_name_H-M   'P 1'
_cell_length_a   4.20652005
_cell_length_b   13.96673188
_cell_length_c   16.87413275
_cell_angle_alpha   90.00039450
_cell_angle_beta   89.99918206
_cell_angle_gamma   93.03746603
_symmetry_Int_Tables_number   1
_chemical_formula_structural   CuH4C3IN
_chemical_formula_sum   'Cu8 H32 C24 I8 N8'
_cell_volume   989.98508211
_cell_formula_units_Z   8
loop_
 _symmetry_equiv_pos_site_id
 _symmetry_equiv_pos_as_xyz
  1  'x, y, z'
loop_
 _atom_site_type_symbol
 _atom_site_label
 _atom_site_symmetry_multiplicity
 _atom_site_fract_x
 _atom_site_fract_y
 _atom_site_fract_z
 _atom_site_occupancy
 _atom_site_hle17_bader_spin_density
 _atom_site_hle17_ddec_charge
 _atom_site_hle17_ddec_spin_density
 _atom_site_hle17_ddec_sum_bond_order
 _atom_site_hle17_magmom
 _atom_site_hse06_10hf_bader_spin_density
 _atom_site_hse06_10hf_ddec_charge
 _atom_site_hse06_10hf_ddec_spin_density
 _atom_site_hse06_10hf_ddec_sum_bond_order
 _atom_site_hse06_10hf_magmom
 _atom_site_hse06_bader_spin_density
 _atom_site_hse06_ddec_charge
 _atom_site_hse06_ddec_spin_density
 _atom_site_hse06_ddec_sum_bond_order
 _atom_site_hse06_magmom
 _atom_site_pbe_bader_spin_density
 _atom_site_pbe_cm5_charge
 _atom_site_pbe_ddec_charge
 _atom_site_pbe_ddec_spin_density
 _atom_site_pbe_ddec_sum_bond_order
 _atom_site_pbe_magmom
Cu  Cu0  1  0.57375414  0.24944948  0.70773918  1  0  0.265206  0  2.128033  0  0  0.186155  0  2.595493  0  0  0.196009  0  2.544124  0  0  0.263156  0.18149  0  2.629534  0
Cu  Cu1  1  0.07375677  0.74944934  0.79225668  1  0  0.265154  0  2.128051  0  0  0.186037  0  2.595522  0  0  0.195906  0  2.544139  0  0  0.26312  0.181362  0  2.629557  0
Cu  Cu2  1  0.42624509  0.75055062  0.29225940  1  0  0.265232  0  2.128042  0  0  0.186101  0  2.595483  0  0  0.195973  0  2.544108  0  0  0.263144  0.181441  0  2.629523  0
Cu  Cu3  1  0.92624292  0.25055363  0.20774427  1  0  0.265163  0  2.128056  0  0  0.186045  0  2.595498  0  0  0.195925  0  2.544126  0  0  0.263107  0.18138  0  2.629543  0
Cu  Cu4  1  0.91627564  0.16461824  0.60417686  1  0  0.239046  0  2.224452  0  0  0.161865  0  2.702441  0  0  0.170513  0  2.651233  0  0  0.253371  0.158236  0  2.736092  0
Cu  Cu5  1  0.41625854  0.66462098  0.89582559  1  0  0.239  0  2.224534  0  0  0.161867  0  2.702535  0  0  0.170492  0  2.651332  0  0  0.253381  0.158239  0  2.736178  0
Cu  Cu6  1  0.08373311  0.83538188  0.39582350  1  0  0.23904  0  2.224483  0  0  0.16184  0  2.702442  0  0  0.170474  0  2.65124  0  0  0.253347  0.158212  0  2.736098  0
Cu  Cu7  1  0.58374081  0.33537984  0.10417180  1  0  0.239027  0  2.224523  0  0  0.161885  0  2.7025  0  0  0.170506  0  2.651307  0  0  0.2534  0.158264  0  2.736144  0
H  H8  1  0.85023838  0.19661278  0.00048145  1  0  0.094326  0  0.963152  0  0  0.099196  0  1.034891  0  0  0.103158  0  1.031696  0  0  0.108545  0.096057  0  1.037738  0
H  H9  1  0.35023087  0.69662347  0.49951803  1  0  0.094478  0  0.963541  0  0  0.099362  0  1.035259  0  0  0.103325  0  1.032066  0  0  0.108601  0.096221  0  1.038109  0
H  H10  1  0.14975327  0.80338445  0.99951891  1  0  0.094248  0  0.963308  0  0  0.099131  0  1.035048  0  0  0.103088  0  1.031852  0  0  0.108543  0.095991  0  1.037893  0
H  H11  1  0.64976101  0.30337519  0.50048292  1  0  0.094338  0  0.963599  0  0  0.099291  0  1.035242  0  0  0.103252  0  1.032051  0  0  0.108601  0.09615  0  1.038093  0
H  H12  1  0.30726123  0.43125669  0.95735242  1  0  0.086272  0  0.952621  0  0  0.089229  0  1.028573  0  0  0.093028  0  1.025405  0  0  0.103089  0.086378  0  1.031054  0
H  H13  1  0.80725669  0.93126089  0.54264426  1  0  0.086234  0  0.952672  0  0  0.089184  0  1.028664  0  0  0.092982  0  1.025481  0  0  0.10312  0.086333  0  1.031142  0
H  H14  1  0.69272827  0.56874196  0.04264498  1  0  0.086296  0  0.952706  0  0  0.089249  0  1.028673  0  0  0.093051  0  1.025502  0  0  0.10309  0.086395  0  1.031156  0
H  H15  1  0.19275206  0.06873924  0.45735729  1  0  0.086102  0  0.95268  0  0  0.089071  0  1.028638  0  0  0.092852  0  1.025501  0  0  0.103047  0.086221  0  1.031113  0
H  H16  1  0.29659361  0.39111006  0.81254666  1  0  0.084047  0  0.978311  0  0  0.089299  0  1.049471  0  0  0.092684  0  1.047231  0  0  0.094746  0.086622  0  1.051557  0
H  H17  1  0.79660884  0.89111105  0.68744509  1  0  0.084077  0  0.978787  0  0  0.089353  0  1.049853  0  0  0.092725  0  1.047626  0  0  0.094775  0.086676  0  1.051939  0
H  H18  1  0.70339805  0.60888716  0.18744896  1  0  0.084002  0  0.97837  0  0  0.089271  0  1.049516  0  0  0.092655  0  1.047273  0  0  0.094771  0.086594  0  1.051598  0
H  H19  1  0.20340738  0.10889123  0.31255528  1  0  0.084038  0  0.978663  0  0  0.089319  0  1.049756  0  0  0.092692  0  1.047527  0  0  0.094764  0.086644  0  1.05184  0
H  H20  1  0.04673899  0.15360120  0.79975643  1  0  0.0775  0  0.970884  0  0  0.087328  0  1.051743  0  0  0.090381  0  1.048011  0  0  0.081181  0.084817  0  1.054597  0
H  H21  1  0.54671523  0.65360078  0.70024313  1  0  0.077513  0  0.970851  0  0  0.087319  0  1.051709  0  0  0.090401  0  1.047971  0  0  0.081188  0.084816  0  1.054559  0
H  H22  1  0.95325538  0.84639818  0.20024453  1  0  0.077508  0  0.970806  0  0  0.08734  0  1.05165  0  0  0.090387  0  1.047931  0  0  0.08118  0.084826  0  1.054507  0
H  H23  1  0.45327710  0.34640074  0.29975842  1  0  0.077529  0  0.970876  0  0  0.087348  0  1.051735  0  0  0.090423  0  1.04799  0  0  0.0812  0.084842  0  1.054587  0
H  H24  1  0.69240353  0.08553029  0.81407344  1  0  0.089385  0  0.952029  0  0  0.10805  0  1.013223  0  0  0.10969  0  1.013033  0  0  0.084418  0.106585  0  1.013611  0
H  H25  1  0.19237246  0.58553432  0.68592164  1  0  0.08949  0  0.951895  0  0  0.108092  0  1.013147  0  0  0.109748  0  1.012952  0  0  0.084429  0.106621  0  1.013555  0
H  H26  1  0.30759990  0.91446624  0.18592632  1  0  0.089439  0  0.952006  0  0  0.10808  0  1.013203  0  0  0.109727  0  1.01302  0  0  0.084431  0.106613  0  1.013596  0
H  H27  1  0.80762213  0.41446649  0.31407813  1  0  0.089472  0  0.951949  0  0  0.108104  0  1.013188  0  0  0.10975  0  1.012986  0  0  0.084427  0.106637  0  1.013585  0
H  H28  1  0.14663351  0.00865014  0.87920762  1  0  0.103317  0  0.975899  0  0  0.122715  0  1.040348  0  0  0.124615  0  1.040797  0  0  0.071177  0.121048  0  1.040424  0
H  H29  1  0.64662133  0.50864916  0.62079549  1  0  0.103347  0  0.975811  0  0  0.122752  0  1.040254  0  0  0.124649  0  1.040714  0  0  0.0712  0.121088  0  1.040323  0
H  H30  1  0.85337784  0.99135142  0.12079275  1  0  0.103381  0  0.976023  0  0  0.122786  0  1.040432  0  0  0.124685  0  1.040888  0  0  0.071206  0.121121  0  1.040503  0
H  H31  1  0.35338266  0.49135095  0.37920665  1  0  0.103279  0  0.975925  0  0  0.122707  0  1.040345  0  0  0.124607  0  1.040794  0  0  0.071175  0.121043  0  1.040421  0
H  H32  1  0.85851993  0.03765883  0.95033838  1  0  0.096315  0  0.958288  0  0  0.119213  0  1.01837  0  0  0.120417  0  1.018892  0  0  0.08194  0.118247  0  1.01808  0
H  H33  1  0.35851245  0.53765759  0.54966058  1  0  0.096273  0  0.958297  0  0  0.119179  0  1.01837  0  0  0.120384  0  1.018892  0  0  0.081949  0.118213  0  1.018083  0
H  H34  1  0.14148645  0.96234129  0.04966257  1  0  0.096274  0  0.958355  0  0  0.119186  0  1.018421  0  0  0.120391  0  1.018943  0  0  0.081934  0.118217  0  1.018134  0
H  H35  1  0.64148917  0.46234252  0.45034038  1  0  0.096328  0  0.958296  0  0  0.119216  0  1.018395  0  0  0.120421  0  1.018918  0  0  0.081957  0.118278  0  1.018075  0
H  H36  1  0.21793354  0.10945408  0.94197249  1  0  0.083536  0  0.979006  0  0  0.103668  0  1.045774  0  0  0.1037  0  1.047872  0  0  0.076362  0.103657  0  1.044279  0
H  H37  1  0.71793427  0.60945194  0.55802739  1  0  0.083535  0  0.979004  0  0  0.103659  0  1.045782  0  0  0.103695  0  1.047877  0  0  0.076364  0.103649  0  1.044284  0
H  H38  1  0.78206852  0.89054890  0.05802728  1  0  0.083558  0  0.978997  0  0  0.103679  0  1.045784  0  0  0.103714  0  1.047879  0  0  0.076374  0.103668  0  1.044284  0
H  H39  1  0.28207222  0.39054889  0.44197475  1  0  0.083473  0  0.979055  0  0  0.103626  0  1.045807  0  0  0.103659  0  1.047904  0  0  0.076356  0.103617  0  1.044314  0
C  C40  1  0.72154486  0.21569959  0.87746606  1  0  0.223293  0  3.655811  0  0  0.228049  0  3.895117  0  0  0.233866  0  3.913629  0  0  0.120495  0.223728  0  3.883271  0
C  C41  1  0.22153896  0.71570463  0.62254390  1  0  0.223103  0  3.656319  0  0  0.228055  0  3.895258  0  0  0.233881  0  3.913806  0  0  0.120564  0.223735  0  3.883409  0
C  C42  1  0.27844260  0.78430121  0.12253607  1  0  0.22332  0  3.655866  0  0  0.228017  0  3.895123  0  0  0.233845  0  3.913636  0  0  0.120492  0.223694  0  3.883275  0
C  C43  1  0.77846254  0.28429476  0.37745884  1  0  0.223039  0  3.656328  0  0  0.227966  0  3.895362  0  0  0.233774  0  3.9139  0  0  0.120492  0.223648  0  3.883512  0
C  C44  1  0.72818240  0.23998280  0.95762609  1  0  0.015538  0  3.635153  0  0  -0.016844  0  3.884879  0  0  -0.015034  0  3.898468  0  0  0.03481  -0.018766  0  3.87705  0
C  C45  1  0.22821338  0.73998158  0.54235968  1  0  0.015431  0  3.634292  0  0  -0.01719  0  3.883926  0  0  -0.015388  0  3.897517  0  0  0.0347  -0.019115  0  3.876103  0
C  C46  1  0.27180461  0.76001513  0.04237012  1  0  0.01572  0  3.635214  0  0  -0.016697  0  3.884919  0  0  -0.014878  0  3.898502  0  0  0.034838  -0.018619  0  3.877088  0
C  C47  1  0.77179039  0.26001710  0.45763949  1  0  0.015638  0  3.634389  0  0  -0.01697  0  3.884029  0  0  -0.015162  0  3.897619  0  0  0.034753  -0.018899  0  3.87621  0
C  C48  1  0.42879042  0.36983641  0.93470553  1  0  0.062092  0  3.677973  0  0  0.031139  0  3.937046  0  0  0.033757  0  3.950285  0  0  0.03088  0.028727  0  3.929482  0
C  C49  1  0.92881486  0.86983652  0.56527614  1  0  0.062305  0  3.678428  0  0  0.031242  0  3.93741  0  0  0.033845  0  3.950668  0  0  0.030978  0.028836  0  3.929834  0
C  C50  1  0.57120112  0.63016010  0.06528950  1  0  0.062102  0  3.677813  0  0  0.031109  0  3.93694  0  0  0.033725  0  3.950186  0  0  0.030872  0.028699  0  3.929371  0
C  C51  1  0.07118720  0.13016645  0.43472185  1  0  0.062372  0  3.678477  0  0  0.031377  0  3.937448  0  0  0.033975  0  3.950703  0  0  0.031097  0.028971  0  3.929871  0
C  C52  1  0.42254093  0.34735660  0.85456210  1  0  0.087404  0  3.670162  0  0  0.057757  0  3.920604  0  0  0.063045  0  3.933798  0  0  0.034574  0.053461  0  3.913361  0
C  C53  1  0.92251749  0.84736869  0.64544613  1  0  0.087373  0  3.668992  0  0  0.057659  0  3.919456  0  0  0.063019  0  3.932547  0  0  0.034539  0.053358  0  3.912211  0
C  C54  1  0.57745095  0.65264205  0.14543945  1  0  0.087552  0  3.670011  0  0  0.057827  0  3.920466  0  0  0.063116  0  3.933664  0  0  0.034572  0.053534  0  3.913215  0
C  C55  1  0.07748673  0.15263286  0.35455601  1  0  0.087455  0  3.669048  0  0  0.057693  0  3.919568  0  0  0.063049  0  3.932664  0  0  0.034525  0.05339  0  3.912327  0
C  C56  1  0.87595781  0.12952736  0.84625979  1  0  -0.150657  0  3.736937  0  0  -0.185715  0  3.976724  0  0  -0.188483  0  3.989682  0  0  -0.172271  -0.183412  0  3.968094  0
C  C57  1  0.37595199  0.62952905  0.65373549  1  0  -0.150721  0  3.737215  0  0  -0.185765  0  3.976896  0  0  -0.188607  0  3.989922  0  0  -0.172313  -0.183475  0  3.968264  0
C  C58  1  0.12403871  0.87047058  0.15373998  1  0  -0.150703  0  3.737063  0  0  -0.185701  0  3.976778  0  0  -0.188496  0  3.989783  0  0  -0.172251  -0.183396  0  3.968147  0
C  C59  1  0.62405190  0.37047034  0.34626428  1  0  -0.150768  0  3.737154  0  0  -0.185904  0  3.976997  0  0  -0.188696  0  3.989961  0  0  -0.172331  -0.183603  0  3.968359  0
C  C60  1  0.03376851  0.06855451  0.90802666  1  0  -0.280262  0  3.713335  0  0  -0.350904  0  3.949759  0  0  -0.354163  0  3.961615  0  0  -0.257796  -0.348292  0  3.941501  0
C  C61  1  0.53376326  0.56855692  0.59197482  1  0  -0.280224  0  3.713428  0  0  -0.35088  0  3.949827  0  0  -0.354129  0  3.961705  0  0  -0.257814  -0.348262  0  3.941573  0
C  C62  1  0.96623333  0.93144703  0.09197489  1  0  -0.280291  0  3.713544  0  0  -0.350959  0  3.949937  0  0  -0.354209  0  3.961793  0  0  -0.257827  -0.348342  0  3.941681  0
C  C63  1  0.46624096  0.43144463  0.40802672  1  0  -0.280133  0  3.713501  0  0  -0.350801  0  3.949909  0  0  -0.354061  0  3.961774  0  0  -0.257794  -0.348208  0  3.941644  0
I  I64  1  0.40680555  0.07143529  0.65516145  1  0  -0.343797  0  1.815925  0  0  -0.287136  0  2.286954  0  0  -0.304835  0  2.244791  0  0  -0.153188  -0.274376  0  2.316013  0
I  I65  1  0.90679737  0.57143525  0.84484227  1  0  -0.343809  0  1.815955  0  0  -0.287141  0  2.286976  0  0  -0.304828  0  2.244806  0  0  -0.153198  -0.274375  0  2.316029  0
I  I66  1  0.59319629  0.92856626  0.34484069  1  0  -0.343822  0  1.815958  0  0  -0.287164  0  2.286996  0  0  -0.304852  0  2.244826  0  0  -0.153192  -0.274403  0  2.316058  0
I  I67  1  0.09319960  0.42856557  0.15515690  1  0  -0.343822  0  1.815957  0  0  -0.287129  0  2.286939  0  0  -0.304818  0  2.244777  0  0  -0.153196  -0.274369  0  2.315995  0
I  I68  1  0.07636852  0.34461280  0.65150279  1  0  -0.351643  0  1.738009  0  0  -0.297861  0  2.193748  0  0  -0.314626  0  2.152888  0  0  -0.153645  -0.285831  0  2.222014  0
I  I69  1  0.57636716  0.84461209  0.84849480  1  0  -0.351605  0  1.738035  0  0  -0.297805  0  2.193744  0  0  -0.314575  0  2.152878  0  0  -0.153644  -0.28578  0  2.222024  0
I  I70  1  0.92363105  0.65538945  0.34849757  1  0  -0.35162  0  1.738001  0  0  -0.297816  0  2.193735  0  0  -0.314587  0  2.152876  0  0  -0.153636  -0.285798  0  2.222024  0
I  I71  1  0.42363513  0.15539232  0.15150556  1  0  -0.35161  0  1.738028  0  0  -0.297818  0  2.193736  0  0  -0.314595  0  2.152887  0  0  -0.153654  -0.285802  0  2.22202  0
N  N72  1  0.56511388  0.27078765  0.82513730  1  0  -0.268409  0  3.289467  0  0  -0.200528  0  3.568451  0  0  -0.208583  0  3.574793  0  0  -0.346542  -0.195927  0  3.5644  0
N  N73  1  0.06513666  0.77078237  0.67485695  1  0  -0.268399  0  3.289858  0  0  -0.200409  0  3.568479  0  0  -0.208499  0  3.574848  0  0  -0.346511  -0.195794  0  3.56441  0
N  N74  1  0.43488469  0.72920815  0.17486070  1  0  -0.268599  0  3.289672  0  0  -0.200548  0  3.568497  0  0  -0.208609  0  3.574847  0  0  -0.346554  -0.195946  0  3.564441  0
N  N75  1  0.93487197  0.22921703  0.32514401  1  0  -0.268377  0  3.289761  0  0  -0.200377  0  3.568429  0  0  -0.208464  0  3.574802  0  0  -0.346469  -0.195767  0  3.56437  0
N  N76  1  0.58117041  0.31580035  0.98705742  1  0  -0.212502  0  3.387167  0  0  -0.144714  0  3.675178  0  0  -0.149169  0  3.681298  0  0  -0.355326  -0.142493  0  3.671404  0
N  N77  1  0.08114411  0.81581745  0.51294591  1  0  -0.212591  0  3.387937  0  0  -0.144532  0  3.6757  0  0  -0.148989  0  3.681837  0  0  -0.355396  -0.142306  0  3.671916  0
N  N78  1  0.41881932  0.68419973  0.01294116  1  0  -0.212597  0  3.387357  0  0  -0.14477  0  3.67534  0  0  -0.149232  0  3.681468  0  0  -0.355357  -0.142547  0  3.67156  0
N  N79  1  0.91886000  0.18418338  0.48705563  1  0  -0.212554  0  3.387833  0  0  -0.144609  0  3.675721  0  0  -0.149067  0  3.681856  0  0  -0.355437  -0.142385  0  3.67194  0
