# generated using pymatgen
data_CoH6(C2N7)2
_symmetry_space_group_name_H-M   'P 1'
_cell_length_a   6.44204070
_cell_length_b   8.99232506
_cell_length_c   9.36999095
_cell_angle_alpha   74.52953959
_cell_angle_beta   87.24347736
_cell_angle_gamma   70.70920788
_symmetry_Int_Tables_number   1
_chemical_formula_structural   CoH6(C2N7)2
_chemical_formula_sum   'Co2 H12 C8 N28'
_cell_volume   493.27729304
_cell_formula_units_Z   2
loop_
 _symmetry_equiv_pos_site_id
 _symmetry_equiv_pos_as_xyz
  1  'x, y, z'
loop_
 _atom_site_type_symbol
 _atom_site_label
 _atom_site_symmetry_multiplicity
 _atom_site_fract_x
 _atom_site_fract_y
 _atom_site_fract_z
 _atom_site_occupancy
 _atom_site_pbe_cm5_charge
 _atom_site_pbe_ddec_charge
 _atom_site_pbe_ddec_spin_density
 _atom_site_pbe_ddec_sum_bond_order
 _atom_site_pbe_magmom
Co  Co0  1  0.99921529  0.99893074  0.99716612  1  0.6299  0.600015  2.403478  2.987033  2.205
Co  Co1  1  0.50088484  0.99967749  0.50056265  1  0.76043  0.616864  -0.522536  3.379897  -0.424
H  H2  1  0.56825925  0.85750591  0.05078993  1  0.149393  0.127965  -0.000527  1.024957  0.0
H  H3  1  0.43090803  0.14253071  0.94955874  1  0.149711  0.128406  -0.000482  1.024583  0.0
H  H4  1  0.92060742  0.60100691  0.11147860  1  0.123612  0.110201  -9.5e-05  1.044608  0.0
H  H5  1  0.07925158  0.39907309  0.88849901  1  0.123774  0.110624  -9.9e-05  1.045113  0.0
H  H6  1  0.87753035  0.41387117  0.11620999  1  0.118472  0.100279  -3.4e-05  1.027986  0.0
H  H7  1  0.12234912  0.58617101  0.88387771  1  0.118627  0.100643  -1.4e-05  1.026027  0.0
H  H8  1  0.76890039  0.19818195  0.27409871  1  0.155522  0.135149  -0.000119  1.011664  0.0
H  H9  1  0.23159150  0.80152754  0.72623187  1  0.155502  0.134535  -0.000138  1.012286  0.0
H  H10  1  0.83776772  0.57069905  0.37718642  1  0.125869  0.112491  3.9e-05  0.996427  0.0
H  H11  1  0.16234666  0.42937543  0.62282079  1  0.125702  0.112153  5.2e-05  0.995597  0.0
H  H12  1  0.06755011  0.40670369  0.34656052  1  0.12581  0.124604  6.5e-05  0.969985  0.0
H  H13  1  0.93251462  0.59337102  0.65330496  1  0.125682  0.124489  4.8e-05  0.970553  0.0
C  C14  1  0.48793619  0.76570908  0.07282023  1  0.176801  0.073396  -0.004292  3.893051  -0.004
C  C15  1  0.51150507  0.23415481  0.92702847  1  0.17618  0.071843  -0.004272  3.893203  -0.004
C  C16  1  0.82927346  0.51871048  0.16412169  1  -0.046505  -0.121249  0.00032  3.851701  0.0
C  C17  1  0.17058889  0.48139811  0.83591928  1  -0.046458  -0.121862  0.000288  3.852791  0.0
C  C18  1  0.73033144  0.23337470  0.37661595  1  0.184144  0.076377  0.001345  3.850589  0.001
C  C19  1  0.27020530  0.76637271  0.62372228  1  0.184833  0.077147  0.001246  3.850843  0.001
C  C20  1  0.88825784  0.46577905  0.32966144  1  -0.037088  -0.100514  2.2e-05  3.822339  0.0
C  C21  1  0.11180094  0.53430885  0.67032906  1  -0.036884  -0.099538  1.4e-05  3.822099  0.0
N  N22  1  0.24091551  0.10687977  0.22405725  1  0.087118  0.416729  -0.003487  4.422051  -0.006
N  N23  1  0.75844772  0.89504856  0.77598771  1  0.087033  0.417426  -0.008358  4.405646  -0.014
N  N24  1  0.19653139  0.11411467  0.70644004  1  0.086443  0.4154  -0.007542  4.422792  -0.012
N  N25  1  0.80405132  0.88527401  0.29378829  1  0.087313  0.4172  -0.005425  4.429464  -0.009
N  N26  1  0.59555398  0.60527513  0.12825151  1  -0.121476  0.157115  0.000764  3.714341  0.001
N  N27  1  0.40421886  0.39470590  0.87202484  1  -0.121705  0.156745  0.000726  3.714932  0.001
N  N28  1  0.62769174  0.16761899  0.48989591  1  -0.22842  -0.140157  0.00063  3.624485  0.001
N  N29  1  0.37341389  0.83194899  0.51072149  1  -0.228155  -0.139719  0.000353  3.620514  0.0
N  N30  1  0.27566387  0.78613115  0.05890166  1  -0.221211  -0.204859  0.022464  3.571675  0.037
N  N31  1  0.72394280  0.21328272  0.94042714  1  -0.221102  -0.201942  0.02272  3.568265  0.037
N  N32  1  0.38527202  0.11580101  0.29274169  1  -0.259785  -0.437703  0.00997  3.048113  0.018
N  N33  1  0.61494001  0.88371735  0.70808944  1  -0.258454  -0.435021  0.014573  3.045272  0.027
N  N34  1  0.77972322  0.35243797  0.41313208  1  -0.116717  0.154611  0.000164  3.724913  0.0
N  N35  1  0.22040407  0.64762374  0.58692699  1  -0.117691  0.153762  0.00014  3.725099  0.0
N  N36  1  0.70876098  0.35939399  0.55023650  1  -0.068323  -0.106507  0.000271  3.14441  0.0
N  N37  1  0.29146299  0.64083189  0.44980325  1  -0.068175  -0.10745  0.000241  3.143735  0.0
N  N38  1  0.61688834  0.24768338  0.59585835  1  -0.067135  -0.049511  0.000761  3.216138  0.001
N  N39  1  0.38387481  0.75226958  0.40451200  1  -0.066549  -0.047504  0.000771  3.211078  0.001
N  N40  1  0.22022004  0.13073590  0.57650921  1  -0.256394  -0.443817  0.025277  3.002693  0.041
N  N41  1  0.78127519  0.86712517  0.42392055  1  -0.257928  -0.44806  0.020622  2.998033  0.033
N  N42  1  0.44772733  0.52466422  0.14834538  1  -0.07266  -0.123119  0.000133  3.171632  0.001
N  N43  1  0.55250298  0.47495222  0.85192652  1  -0.073369  -0.124262  0.000358  3.173892  0.001
N  N44  1  0.25653742  0.63429149  0.10644146  1  -0.065595  -0.037517  -0.004284  3.266658  -0.006
N  N45  1  0.74361198  0.36495984  0.89328156  1  -0.06415  -0.03608  -0.003884  3.266574  -0.006
N  N46  1  0.16927585  0.10461652  0.83364268  1  -0.234713  -0.416847  0.008404  3.087791  0.012
N  N47  1  0.82850690  0.89638668  0.16620107  1  -0.23207  -0.417644  0.00648  3.071566  0.009
N  N48  1  0.09568290  0.11147929  0.14849054  1  -0.230983  -0.432436  0.009102  2.973848  0.013
N  N49  1  0.90332534  0.89231474  0.85090071  1  -0.23818  -0.432853  0.013747  3.033675  0.022
