# generated using pymatgen
data_Zr3H20(C18O11)2
_symmetry_space_group_name_H-M   'P 1'
_cell_length_a   17.02033165
_cell_length_b   17.02031498
_cell_length_c   17.02029678
_cell_angle_alpha   59.99993748
_cell_angle_beta   59.99991359
_cell_angle_gamma   59.99987020
_symmetry_Int_Tables_number   1
_chemical_formula_structural   Zr3H20(C18O11)2
_chemical_formula_sum   'Zr6 H40 C72 O44'
_cell_volume   3486.47717965
_cell_formula_units_Z   2
loop_
 _symmetry_equiv_pos_site_id
 _symmetry_equiv_pos_as_xyz
  1  'x, y, z'
loop_
 _atom_site_type_symbol
 _atom_site_label
 _atom_site_symmetry_multiplicity
 _atom_site_fract_x
 _atom_site_fract_y
 _atom_site_fract_z
 _atom_site_occupancy
 _atom_site_pbe_bader_charge
 _atom_site_pbe_bader_spin_density
 _atom_site_pbe_cm5_charge
 _atom_site_pbe_ddec_charge
 _atom_site_pbe_ddec_spin_density
 _atom_site_pbe_ddec_sum_bond_order
 _atom_site_pbe_magmom
Zr  Zr0  1  0.89624662  0.39624047  0.60375198  1  2.631429  0  1.624894  2.371553  0  2.770028  0
Zr  Zr1  1  0.10375049  0.60375005  0.39624347  1  2.631307  0  1.624752  2.371349  0  2.770338  0
Zr  Zr2  1  0.10374488  0.39624267  0.60375521  1  2.631307  0  1.624745  2.371351  0  2.770375  0
Zr  Zr3  1  0.89624065  0.60375860  0.39623677  1  2.631321  0  1.624805  2.371565  0  2.770064  0
Zr  Zr4  1  0.89623937  0.60375632  0.60375018  1  2.631394  0  1.62476  2.37145  0  2.77025  0
Zr  Zr5  1  0.10374750  0.39624393  0.39625011  1  2.631342  0  1.624764  2.371315  0  2.770378  0
H  H6  1  0.91817564  0.41817670  0.74546810  1  0.595383  0  0.332391  0.425356  0  0.85574  0
H  H7  1  0.91817402  0.74546802  0.41817956  1  0.611522  0  0.332381  0.42531  0  0.855782  0
H  H8  1  0.24546453  0.41817704  0.41817827  1  0.596275  0  0.33241  0.425302  0  0.855824  0
H  H9  1  0.91817554  0.41817632  0.41817844  1  0.604383  0  0.332389  0.425342  0  0.855525  0
H  H10  1  0.62597388  0.39583148  0.87075493  1  0.050628  0  0.1046  0.100074  0  1.033053  0
H  H11  1  0.65322160  0.64605097  0.84292790  1  0.092586  0  0.11292  0.138763  0  0.989921  0
H  H12  1  0.37074835  0.60744339  0.12597354  1  0.074145  0  0.104596  0.100064  0  1.033084  0
H  H13  1  0.34292934  0.35779712  0.15322656  1  0.090646  0  0.112935  0.138742  0  0.989972  0
H  H14  1  0.89583227  0.12597381  0.60744088  1  0.05219  0  0.10459  0.10049  0  1.032151  0
H  H15  1  0.14605007  0.15322329  0.35779775  1  0.053747  0  0.112941  0.13875  0  0.989997  0
H  H16  1  0.10744105  0.87075014  0.39583415  1  0.083334  0  0.104596  0.100511  0  1.032181  0
H  H17  1  0.85779593  0.84292883  0.64605064  1  0.096271  0  0.112935  0.138766  0  0.989992  0
H  H18  1  0.62597166  0.87075326  0.60744209  1  0.073891  0  0.104605  0.100055  0  1.033045  0
H  H19  1  0.65322238  0.84292597  0.35780038  1  0.090379  0  0.11292  0.138753  0  0.989977  0
H  H20  1  0.37075171  0.12597174  0.39583222  1  0.050521  0  0.104597  0.10003  0  1.033076  0
H  H21  1  0.34292729  0.15322533  0.64604711  1  0.092616  0  0.112948  0.138751  0  0.990026  0
H  H22  1  0.10743705  0.39583227  0.12597555  1  0.052207  0  0.104596  0.100461  0  1.03226  0
H  H23  1  0.85779486  0.64604801  0.15322476  1  0.053827  0  0.112924  0.138757  0  0.990034  0
H  H24  1  0.89583203  0.60744080  0.87075170  1  0.083309  0  0.104596  0.100491  0  1.032219  0
H  H25  1  0.14604769  0.35779735  0.84292951  1  0.096282  0  0.11295  0.138779  0  0.990033  0
H  H26  1  0.10743850  0.12597265  0.87075422  1  0.073961  0  0.104598  0.100085  0  1.033075  0
H  H27  1  0.85779635  0.15322251  0.84293086  1  0.090428  0  0.112918  0.138751  0  0.990011  0
H  H28  1  0.89583016  0.87075135  0.12597508  1  0.050534  0  0.104612  0.100077  0  1.033028  0
H  H29  1  0.14604619  0.84292731  0.15322740  1  0.092602  0  0.112925  0.138751  0  0.989985  0
H  H30  1  0.62597197  0.60743799  0.39583412  1  0.052257  0  0.104574  0.10045  0  1.03223  0
H  H31  1  0.65322121  0.35779653  0.64605044  1  0.053706  0  0.112904  0.138722  0  0.990064  0
H  H32  1  0.37075037  0.39583229  0.60744266  1  0.083266  0  0.104622  0.100537  0  1.032167  0
H  H33  1  0.34292613  0.64604798  0.35779990  1  0.096289  0  0.112927  0.138731  0  0.990085  0
H  H34  1  0.54910460  0.31840867  0.95276340  1  0.602746  0  0.331564  0.366471  0  0.888953  0
H  H35  1  0.45275693  0.67972719  0.04910328  1  0.608214  0  0.331601  0.366467  0  0.888889  0
H  H36  1  0.81840867  0.04910476  0.67972552  1  0.601728  0  0.331589  0.361343  0  0.896233  0
H  H37  1  0.17972574  0.95275508  0.31841401  1  0.608146  0  0.331574  0.361223  0  0.896043  0
H  H38  1  0.54910081  0.95275991  0.67972650  1  0.608263  0  0.331584  0.366484  0  0.888927  0
H  H39  1  0.45275777  0.04909914  0.31841346  1  0.602559  0  0.331572  0.366474  0  0.888933  0
H  H40  1  0.17972187  0.31841099  0.04910737  1  0.601955  0  0.331568  0.361319  0  0.896312  0
H  H41  1  0.81840952  0.67972556  0.95275991  1  0.608187  0  0.331602  0.361337  0  0.896068  0
H  H42  1  0.17972242  0.04910289  0.95276160  1  0.608264  0  0.331586  0.366499  0  0.888949  0
H  H43  1  0.81840945  0.95275676  0.04910519  1  0.602511  0  0.331597  0.366474  0  0.888853  0
H  H44  1  0.54910175  0.67972380  0.31841256  1  0.601983  0  0.331582  0.361326  0  0.896239  0
H  H45  1  0.45275427  0.31841124  0.67972944  1  0.60812  0  0.331576  0.361236  0  0.896042  0
C  C46  1  0.73266032  0.51013836  0.76245739  1  1.545929  0  0.23636  0.643121  0  4.091466  0
C  C47  1  0.99473914  0.76245500  0.51014110  1  1.553315  0  0.236379  0.64299  0  4.091671  0
C  C48  1  0.26245265  0.49474223  0.23266347  1  1.548071  0  0.236382  0.643082  0  4.091615  0
C  C49  1  0.01013763  0.23265976  0.49474503  1  1.566738  0  0.23644  0.643251  0  4.09153  0
C  C50  1  0.99474008  0.23265973  0.76245640  1  1.548106  0  0.236473  0.643168  0  4.091156  0
C  C51  1  0.73265929  0.49473783  0.51014128  1  1.566324  0  0.236434  0.643078  0  4.09128  0
C  C52  1  0.01013422  0.76245491  0.23266621  1  1.546335  0  0.236326  0.643059  0  4.091726  0
C  C53  1  0.26245251  0.51013690  0.49474338  1  1.553134  0  0.236341  0.643026  0  4.091647  0
C  C54  1  0.01013591  0.49474220  0.76245509  1  1.553226  0  0.236341  0.643126  0  4.091536  0
C  C55  1  0.26245367  0.23266308  0.51013721  1  1.546298  0  0.236352  0.643095  0  4.091711  0
C  C56  1  0.99473974  0.51013509  0.23266386  1  1.566376  0  0.236444  0.643187  0  4.091453  0
C  C57  1  0.73265873  0.76245682  0.49474277  1  1.548003  0  0.236502  0.643225  0  4.091247  0
C  C58  1  0.59774621  0.45322403  0.89930454  1  -0.082041  0  -0.095991  -0.169718  0  4.002811  0
C  C59  1  0.61437547  0.59525670  0.88227347  1  0.027129  0  -0.102391  -0.225119  0  3.94731  0
C  C60  1  0.53485670  0.60547318  0.96333092  1  0.476813  0  0.086852  0.275232  0  4.071035  0
C  C61  1  0.48209000  0.53992787  0.01582448  1  -0.009881  0  -0.014635  -0.021091  0  4.012218  0
C  C62  1  0.39930229  0.54972730  0.09774788  1  -0.085178  0  -0.096016  -0.169821  0  4.002826  0
C  C63  1  0.38227316  0.40809263  0.11438216  1  0.031009  0  -0.102369  -0.225073  0  3.947265  0
C  C64  1  0.46333146  0.39633582  0.03486399  1  0.436087  0  0.086865  0.275262  0  4.07096  0
C  C65  1  0.51582266  0.46215674  0.98209472  1  0.027881  0  -0.014714  -0.021349  0  4.012406  0
C  C66  1  0.64587159  0.51900605  0.85003314  1  0.051856  0  -0.018628  -0.013464  0  4.016489  0
C  C67  1  0.35002972  0.48508947  0.14587599  1  0.053109  0  -0.018681  -0.013431  0  4.016554  0
C  C68  1  0.95322542  0.09774560  0.54972516  1  -0.036771  0  -0.095987  -0.169467  0  4.002182  0
C  C69  1  0.09525694  0.11437468  0.40809449  1  0.063841  0  -0.102411  -0.225246  0  3.947715  0
C  C70  1  0.10547316  0.03485674  0.39633937  1  0.448744  0  0.086851  0.275503  0  4.069556  0
C  C71  1  0.03992553  0.98209066  0.46215860  1  0.058475  0  -0.01465  -0.021152  0  4.01233  0
C  C72  1  0.04972638  0.89930312  0.45322279  1  -0.054989  0  -0.09606  -0.16963  0  4.002164  0
C  C73  1  0.90809211  0.88227342  0.59525476  1  0.029454  0  -0.102398  -0.225278  0  3.947574  0
C  C74  1  0.89633428  0.96333195  0.60547173  1  0.490609  0  0.086827  0.275491  0  4.069608  0
C  C75  1  0.96215691  0.01582310  0.53992729  1  -0.011848  0  -0.01468  -0.021311  0  4.01246  0
C  C76  1  0.01900684  0.14587129  0.48509022  1  -0.014102  0  -0.018635  -0.013585  0  4.016752  0
C  C77  1  0.98508826  0.85003169  0.51900646  1  -0.016154  0  -0.018615  -0.013409  0  4.016609  0
C  C78  1  0.59774529  0.89930143  0.54972674  1  -0.084867  0  -0.096044  -0.169764  0  4.002914  0
C  C79  1  0.61437615  0.88226999  0.40809478  1  0.031086  0  -0.102365  -0.225061  0  3.947151  0
C  C80  1  0.53485544  0.96332821  0.39634147  1  0.435919  0  0.086819  0.27511  0  4.071076  0
C  C81  1  0.48209053  0.01582086  0.46215865  1  0.027769  0  -0.014661  -0.021145  0  4.012166  0
C  C82  1  0.39930211  0.09774525  0.45322424  1  -0.082412  0  -0.096014  -0.169698  0  4.002718  0
C  C83  1  0.38227160  0.11437939  0.59525451  1  0.027148  0  -0.102375  -0.225057  0  3.947283  0
C  C84  1  0.46332940  0.03485827  0.60547064  1  0.476934  0  0.086868  0.275235  0  4.070982  0
C  C85  1  0.51582092  0.98209105  0.53992799  1  -0.009651  0  -0.014659  -0.021204  0  4.012274  0
C  C86  1  0.64587082  0.85003138  0.48509097  1  0.053326  0  -0.018622  -0.013471  0  4.016575  0
C  C87  1  0.35003054  0.14587396  0.51900397  1  0.052209  0  -0.01864  -0.013516  0  4.016505  0
C  C88  1  0.04972344  0.45322243  0.09774832  1  -0.03671  0  -0.095977  -0.169484  0  4.002096  0
C  C89  1  0.90809004  0.59525323  0.11437994  1  0.063457  0  -0.102337  -0.225227  0  3.947612  0
C  C90  1  0.89633437  0.60547008  0.03486043  1  0.449163  0  0.086797  0.275468  0  4.069684  0
C  C91  1  0.96215576  0.53992672  0.98209290  1  0.057945  0  -0.014653  -0.021208  0  4.012399  0
C  C92  1  0.95322313  0.54972695  0.89930204  1  -0.05469  0  -0.096043  -0.16955  0  4.002212  0
C  C93  1  0.09525376  0.40809222  0.88227433  1  0.029275  0  -0.102371  -0.225227  0  3.947612  0
C  C94  1  0.10546840  0.39633785  0.96333394  1  0.49101  0  0.086858  0.275552  0  4.069524  0
C  C95  1  0.03992398  0.46215819  0.01582382  1  -0.011738  0  -0.014671  -0.021208  0  4.012392  0
C  C96  1  0.98508681  0.51900469  0.14587452  1  -0.014182  0  -0.018679  -0.013564  0  4.016621  0
C  C97  1  0.01900416  0.48509027  0.85003215  1  -0.015975  0  -0.018598  -0.013511  0  4.016715  0
C  C98  1  0.04972492  0.09774499  0.89930417  1  -0.084627  0  -0.095958  -0.169701  0  4.002831  0
C  C99  1  0.90809236  0.11437673  0.88227274  1  0.03117  0  -0.102405  -0.225133  0  3.947218  0
C  C100  1  0.89633670  0.03485604  0.96333261  1  0.435582  0  0.086812  0.275205  0  4.070983  0
C  C101  1  0.96215661  0.98209004  0.01582274  1  0.027824  0  -0.014628  -0.02112  0  4.012131  0
C  C102  1  0.95322325  0.89930128  0.09774861  1  -0.082783  0  -0.096032  -0.169809  0  4.00277  0
C  C103  1  0.09525191  0.88227129  0.11438209  1  0.027305  0  -0.102379  -0.22513  0  3.947233  0
C  C104  1  0.10546818  0.96332891  0.03486170  1  0.477087  0  0.086896  0.275328  0  4.070892  0
C  C105  1  0.03992490  0.01582044  0.98209381  1  -0.009974  0  -0.014695  -0.021245  0  4.012205  0
C  C106  1  0.98508906  0.14587017  0.85003186  1  0.053019  0  -0.018627  -0.013485  0  4.016497  0
C  C107  1  0.01900316  0.85002876  0.14587647  1  0.052482  0  -0.018641  -0.013449  0  4.016569  0
C  C108  1  0.59774417  0.54972417  0.45322585  1  -0.036734  0  -0.095935  -0.169431  0  4.002174  0
C  C109  1  0.61437490  0.40809085  0.59525879  1  0.063484  0  -0.102333  -0.225192  0  3.947512  0
C  C110  1  0.53485479  0.39633684  0.60547470  1  0.44924  0  0.086787  0.275381  0  4.06968  0
C  C111  1  0.48209055  0.46215573  0.53992971  1  0.057705  0  -0.014622  -0.021082  0  4.012129  0
C  C112  1  0.39929965  0.45322248  0.54972929  1  -0.054392  0  -0.096073  -0.169674  0  4.002094  0
C  C113  1  0.38227049  0.59525289  0.40809561  1  0.029365  0  -0.102367  -0.225259  0  3.947702  0
C  C114  1  0.46332849  0.60546847  0.39634178  1  0.490306  0  0.086893  0.275557  0  4.069478  0
C  C115  1  0.51582048  0.53992490  0.46216001  1  -0.011228  0  -0.014706  -0.021266  0  4.012311  0
C  C116  1  0.64587019  0.48508835  0.51900731  1  -0.014245  0  -0.01857  -0.013403  0  4.016597  0
C  C117  1  0.35002930  0.51900301  0.48509084  1  -0.016092  0  -0.018641  -0.013449  0  4.016731  0
O  O118  1  0.76344492  0.44131473  0.73268337  1  -1.174958  0  -0.336714  -0.604765  0  2.231218  0
O  O119  1  0.06255499  0.73268222  0.44131790  1  -1.180298  0  -0.336723  -0.604712  0  2.231175  0
O  O120  1  0.23267768  0.56255908  0.26344638  1  -1.180153  0  -0.3367  -0.6047  0  2.23121  0
O  O121  1  0.94131400  0.26344354  0.56255832  1  -1.183439  0  -0.336711  -0.604815  0  2.23133  0
O  O122  1  0.06255827  0.26344416  0.73267907  1  -1.180046  0  -0.336768  -0.604788  0  2.230929  0
O  O123  1  0.76344376  0.56255697  0.44131155  1  -1.18328  0  -0.336795  -0.60489  0  2.230897  0
O  O124  1  0.94130728  0.73268285  0.26344876  1  -1.175176  0  -0.336655  -0.604682  0  2.231287  0
O  O125  1  0.23268114  0.44131092  0.56255656  1  -1.180432  0  -0.336656  -0.604635  0  2.231226  0
O  O126  1  0.94131148  0.56255622  0.73268567  1  -1.180476  0  -0.336677  -0.604751  0  2.231249  0
O  O127  1  0.23268081  0.26344731  0.44131207  1  -1.17501  0  -0.336675  -0.604695  0  2.231276  0
O  O128  1  0.06255205  0.44131364  0.26344758  1  -1.183349  0  -0.336723  -0.604771  0  2.231304  0
O  O129  1  0.76344368  0.73268117  0.56255824  1  -1.180093  0  -0.336758  -0.604758  0  2.231194  0
O  O130  1  0.22371727  0.27132143  0.57505721  1  -1.17957  0  -0.377031  -0.635193  0  2.325061  0
O  O131  1  0.92989471  0.57505992  0.27132117  1  -1.195204  0  -0.376992  -0.635212  0  2.324992  0
O  O132  1  0.77131913  0.72372130  0.42989679  1  -1.178162  0  -0.377013  -0.63522  0  2.324858  0
O  O133  1  0.07505562  0.42989558  0.72372260  1  -1.183089  0  -0.376929  -0.635177  0  2.32489  0
O  O134  1  0.92989892  0.27131969  0.72372018  1  -1.178354  0  -0.377004  -0.635131  0  2.325028  0
O  O135  1  0.22371891  0.57505837  0.42989833  1  -1.183103  0  -0.376933  -0.635176  0  2.324952  0
O  O136  1  0.07505034  0.72372185  0.27132501  1  -1.179528  0  -0.376954  -0.635127  0  2.325213  0
O  O137  1  0.77132042  0.42989547  0.57505885  1  -1.195114  0  -0.376962  -0.635106  0  2.324985  0
O  O138  1  0.07505632  0.27132043  0.42990116  1  -1.195442  0  -0.37696  -0.635175  0  2.32508  0
O  O139  1  0.77132049  0.57505785  0.72372530  1  -1.179226  0  -0.376958  -0.635153  0  2.324964  0
O  O140  1  0.92989431  0.72372132  0.57505969  1  -1.18322  0  -0.376946  -0.635155  0  2.325057  0
O  O141  1  0.22371616  0.42989918  0.27132133  1  -1.178221  0  -0.376968  -0.635132  0  2.325037  0
O  O142  1  0.94142211  0.44142295  0.44142311  1  -1.23421  0  -0.695975  -1.070643  0  2.362421  0
O  O143  1  0.17572624  0.44142305  0.44142394  1  -1.228259  0  -0.69607  -1.070678  0  2.362853  0
O  O144  1  0.94142071  0.67572920  0.44142430  1  -1.243487  0  -0.696002  -1.070611  0  2.362591  0
O  O145  1  0.94142084  0.44141954  0.67573043  1  -1.227355  0  -0.696007  -1.070724  0  2.362718  0
O  O146  1  0.04317841  0.54318268  0.54318355  1  -1.195725  0  -0.79234  -1.150315  0  2.13248  0
O  O147  1  0.87045141  0.54318151  0.54318017  1  -1.194671  0  -0.792307  -1.15034  0  2.132429  0
O  O148  1  0.04317868  0.54318398  0.37045007  1  -1.194782  0  -0.792325  -1.150287  0  2.132635  0
O  O149  1  0.04317985  0.37044659  0.54318501  1  -1.19466  0  -0.792338  -1.150265  0  2.132773  0
O  O150  1  0.49078913  0.31994443  0.00891840  1  -1.116199  0  -0.35405  -0.441434  0  2.238618  0
O  O151  1  0.50890656  0.68035688  0.99078560  1  -1.125132  0  -0.354073  -0.441409  0  2.238564  0
O  O152  1  0.81994543  0.99078858  0.68035060  1  -1.119742  0  -0.354022  -0.436888  0  2.243988  0
O  O153  1  0.18035554  0.00890651  0.31995232  1  -1.124003  0  -0.35404  -0.436805  0  2.2437  0
O  O154  1  0.49078157  0.00891071  0.68035501  1  -1.125122  0  -0.354091  -0.44145  0  2.238577  0
O  O155  1  0.50890718  0.99077968  0.31995391  1  -1.116055  0  -0.354019  -0.441364  0  2.23874  0
O  O156  1  0.18034902  0.31994727  0.99078897  1  -1.120101  0  -0.35409  -0.437001  0  2.244027  0
O  O157  1  0.81994503  0.68034841  0.00891526  1  -1.124153  0  -0.354053  -0.436903  0  2.243861  0
O  O158  1  0.18034925  0.99078431  0.00891339  1  -1.125089  0  -0.354099  -0.44151  0  2.238705  0
O  O159  1  0.81994755  0.00891131  0.99078730  1  -1.11573  0  -0.354052  -0.441401  0  2.238599  0
O  O160  1  0.49078396  0.68035089  0.31995178  1  -1.119895  0  -0.354135  -0.437002  0  2.243882  0
O  O161  1  0.50890968  0.31994719  0.68035406  1  -1.124062  0  -0.354039  -0.4368  0  2.243744  0
