# generated using pymatgen
data_NiH22C30(N3O2)2
_symmetry_space_group_name_H-M   'P 1'
_cell_length_a   11.10957831
_cell_length_b   11.10953322
_cell_length_c   12.91659219
_cell_angle_alpha   109.31383045
_cell_angle_beta   109.31445414
_cell_angle_gamma   99.89352216
_symmetry_Int_Tables_number   1
_chemical_formula_structural   NiH22C30(N3O2)2
_chemical_formula_sum   'Ni2 H44 C60 N12 O8'
_cell_volume   1347.16469118
_cell_formula_units_Z   2
loop_
 _symmetry_equiv_pos_site_id
 _symmetry_equiv_pos_as_xyz
  1  'x, y, z'
loop_
 _atom_site_type_symbol
 _atom_site_label
 _atom_site_symmetry_multiplicity
 _atom_site_fract_x
 _atom_site_fract_y
 _atom_site_fract_z
 _atom_site_occupancy
 _atom_site_pbe_cm5_charge
 _atom_site_pbe_ddec_charge
 _atom_site_pbe_ddec_spin_density
 _atom_site_pbe_ddec_sum_bond_order
 _atom_site_pbe_magmom
Ni  Ni0  1  0.91986122  0.07955847  0.74917129  1  0.679248  0.607456  1.750961  2.734008  1.506
Ni  Ni1  1  0.07956701  0.91985607  0.24917347  1  0.679326  0.607525  1.750984  2.733824  1.506
H  H2  1  0.89641657  0.53418780  0.50421321  1  0.098872  0.097559  5e-06  1.021546  0.0
H  H3  1  0.53418486  0.89641759  0.00421392  1  0.098825  0.097497  5e-06  1.021626  0.0
H  H4  1  0.82290545  0.56541958  0.31484691  1  0.100368  0.100681  -9e-06  0.993511  0.0
H  H5  1  0.56541273  0.82291192  0.81484633  1  0.100323  0.100614  -8e-06  0.993583  0.0
H  H6  1  0.69212004  0.36875992  0.11766036  1  0.09942  0.096274  -2e-06  1.007838  0.0
H  H7  1  0.36875071  0.69213020  0.61766061  1  0.099379  0.096233  -2e-06  1.007852  0.0
H  H8  1  0.63330322  0.13734589  0.11214784  1  0.093191  0.08139  3.6e-05  1.044103  0.0
H  H9  1  0.13734120  0.63330707  0.61214904  1  0.093154  0.08137  3.6e-05  1.044159  0.0
H  H10  1  0.70396687  0.10617878  0.30059108  1  0.101381  0.101531  5e-05  1.041368  0.0
H  H11  1  0.10617638  0.70396322  0.80059260  1  0.101391  0.1015  5e-05  1.041284  0.0
H  H12  1  0.93969496  0.50553658  0.68135664  1  0.110383  0.141878  0.000361  1.026769  0.0
H  H13  1  0.50553710  0.93970418  0.18135491  1  0.110367  0.141894  0.000361  1.026789  0.0
H  H14  1  0.51588205  0.76491153  0.31508499  1  0.100986  0.103471  7.1e-05  1.025732  0.0
H  H15  1  0.76489230  0.51588181  0.81508146  1  0.100951  0.103422  7.1e-05  1.025669  0.0
H  H16  1  0.32976959  0.61420831  0.11546623  1  0.100538  0.104321  -7.2e-05  1.011297  0.0
H  H17  1  0.61418543  0.32977075  0.61546300  1  0.100492  0.104261  -7.2e-05  1.011505  0.0
H  H18  1  0.25214877  0.36976277  0.05538665  1  0.098723  0.097985  9.3e-05  1.041686  0.0
H  H19  1  0.36973808  0.25215462  0.55538419  1  0.098698  0.097935  9.3e-05  1.041633  0.0
H  H20  1  0.36069537  0.27254501  0.19817337  1  0.09861  0.099013  -1.7e-05  0.998018  0.0
H  H21  1  0.27252459  0.36070550  0.69817311  1  0.098583  0.098922  -1.7e-05  0.998103  0.0
H  H22  1  0.54662238  0.42101848  0.39685057  1  0.103055  0.107436  -1.8e-05  1.000776  0.0
H  H23  1  0.42100714  0.54662779  0.89684751  1  0.103088  0.107402  -1.8e-05  1.000724  0.0
H  H24  1  0.66932718  0.59033897  0.61309790  1  0.110257  0.143092  0.000245  1.030469  0.0
H  H25  1  0.59034680  0.66933921  0.11310471  1  0.110251  0.143079  0.000245  1.030532  0.0
H  H26  1  0.18482563  0.12269389  0.93688577  1  0.122216  0.099555  0.00076  0.98966  0.002
H  H27  1  0.12269437  0.18481492  0.43688172  1  0.122272  0.099527  0.000759  0.989766  0.002
H  H28  1  0.41494067  0.13293721  0.95176711  1  0.106507  0.110077  0.000531  1.019335  0.0
H  H29  1  0.13294049  0.41492835  0.45175844  1  0.10651  0.110174  0.000531  1.01927  0.0
H  H30  1  0.25891092  0.04044388  0.56888376  1  0.110681  0.125529  0.000463  1.046282  0.001
H  H31  1  0.04044748  0.25890130  0.06888169  1  0.110716  0.125533  0.000463  1.046269  0.001
H  H32  1  0.03710238  0.02713859  0.57003676  1  0.111651  0.083265  0.000964  1.051055  0.001
H  H33  1  0.02713688  0.03709376  0.07003527  1  0.111721  0.083373  0.000964  1.051048  0.001
H  H34  1  0.82144908  0.16305629  0.94433295  1  0.117213  0.08836  0.000661  1.017593  0.001
H  H35  1  0.16307998  0.82144012  0.44433542  1  0.117146  0.088365  0.000661  1.017418  0.001
H  H36  1  0.60498207  0.17294818  0.95622085  1  0.103126  0.101667  0.000496  1.058455  0.0
H  H37  1  0.17296565  0.60496971  0.45621782  1  0.103118  0.101708  0.000496  1.058403  0.0
H  H38  1  0.42307783  0.01295895  0.56572556  1  0.110993  0.12067  0.00068  1.054741  0.0
H  H39  1  0.01295905  0.42307349  0.06572538  1  0.111012  0.120645  0.00068  1.054706  0.0
H  H40  1  0.64386455  0.01808217  0.57089358  1  0.118872  0.088536  0.000634  1.027745  0.001
H  H41  1  0.01808364  0.64386077  0.07089674  1  0.118838  0.088466  0.000634  1.027824  0.001
H  H42  1  0.81207748  0.08375049  0.46407333  1  0.316368  0.263563  -5.5e-05  1.009155  0.0
H  H43  1  0.08375193  0.81207165  0.96407855  1  0.316392  0.263614  -5.5e-05  1.009185  0.0
H  H44  1  0.73608300  0.85389888  0.44795014  1  0.319145  0.271928  -2.5e-05  1.012403  0.0
H  H45  1  0.85389306  0.73607557  0.94794463  1  0.319116  0.271951  -2.5e-05  1.012318  0.0
C  C46  1  0.80745762  0.31763569  0.41616162  1  -0.007926  0.04288  0.000875  4.041933  0.001
C  C47  1  0.31763269  0.80745699  0.91616205  1  -0.007977  0.042775  0.000875  4.04201  0.001
C  C48  1  0.83933346  0.44685914  0.41814568  1  -0.090588  -0.131924  -0.00072  3.980587  0.0
C  C49  1  0.44685480  0.83933544  0.91814541  1  -0.090507  -0.13188  -0.000718  3.980553  0.0
C  C50  1  0.79775900  0.46460167  0.31156974  1  -0.09102  -0.074734  0.00018  4.032014  0.0
C  C51  1  0.46459593  0.79776532  0.81156674  1  -0.090976  -0.074649  0.00018  4.032053  0.0
C  C52  1  0.72419242  0.35375303  0.20062754  1  -0.093448  -0.087698  -0.001203  4.010568  -0.001
C  C53  1  0.35374651  0.72420229  0.70062902  1  -0.093362  -0.087543  -0.001206  4.010428  -0.001
C  C54  1  0.69160803  0.22519807  0.19779276  1  -0.097043  -0.085958  0.000181  4.035148  0.0
C  C55  1  0.22518992  0.69160998  0.69779412  1  -0.096998  -0.086037  0.000181  4.03516  0.0
C  C56  1  0.73203457  0.20685979  0.30419562  1  -0.088571  -0.118796  -0.001032  3.951394  -0.001
C  C57  1  0.20685548  0.73203386  0.80419625  1  -0.088577  -0.118676  -0.001033  3.951292  -0.001
C  C58  1  0.85458401  0.30129686  0.52896385  1  0.101018  0.141807  -0.001293  4.000503  0.001
C  C59  1  0.30129790  0.85458623  0.02896587  1  0.100991  0.141819  -0.001292  4.000643  0.001
C  C60  1  0.91799698  0.39767131  0.64861291  1  -0.105435  -0.269313  0.000672  3.947671  0.001
C  C61  1  0.39767185  0.91800120  0.14861243  1  -0.105467  -0.269362  0.000671  3.947786  0.001
C  C62  1  0.94514973  0.32527338  0.71961721  1  0.083548  0.04517  -0.004503  4.037138  -0.002
C  C63  1  0.32527810  0.94515038  0.21961950  1  0.08349  0.045087  -0.004503  4.037188  -0.002
C  C64  1  0.01339610  0.37022052  0.85266122  1  0.197435  0.541293  -0.002126  4.260326  -0.002
C  C65  1  0.37022445  0.01340032  0.35265911  1  0.197385  0.541213  -0.002128  4.260329  -0.002
C  C66  1  0.54533615  0.60319162  0.36991928  1  -0.014935  0.029045  0.000291  4.054962  0.0
C  C67  1  0.60317568  0.54534361  0.86991872  1  -0.014882  0.029109  0.00029  4.055047  0.0
C  C68  1  0.48362738  0.65679531  0.28931354  1  -0.093947  -0.133612  0.000588  3.96467  0.001
C  C69  1  0.65677590  0.48363009  0.78931042  1  -0.093931  -0.133528  0.000588  3.964324  0.001
C  C70  1  0.37948897  0.57243764  0.17681362  1  -0.094474  -0.079688  -0.000353  4.008587  0.0
C  C71  1  0.57241162  0.37948948  0.67680885  1  -0.094473  -0.079852  -0.000349  4.008697  0.0
C  C72  1  0.33521239  0.43388274  0.14297655  1  -0.09222  -0.083282  0.000766  3.991931  0.001
C  C73  1  0.43385727  0.33521869  0.64297390  1  -0.092123  -0.082931  0.000762  3.991664  0.001
C  C74  1  0.39500231  0.38032587  0.22308441  1  -0.096199  -0.086974  -0.000334  4.028502  0.0
C  C75  1  0.38030361  0.39501115  0.72308362  1  -0.096245  -0.087162  -0.000332  4.028566  0.0
C  C76  1  0.49906505  0.46396429  0.33577688  1  -0.087786  -0.115616  0.000642  3.964764  0.001
C  C77  1  0.46394694  0.49907111  0.83577040  1  -0.087826  -0.115421  0.000644  3.964743  0.001
C  C78  1  0.65584604  0.69036967  0.48736875  1  0.103586  0.151114  0.002267  3.999599  0.003
C  C79  1  0.69036052  0.65585097  0.98736929  1  0.103606  0.151014  0.002267  3.999548  0.003
C  C80  1  0.70630557  0.67470339  0.59521917  1  -0.10627  -0.268507  -0.000134  3.933207  0.0
C  C81  1  0.67470848  0.70630930  0.09522383  1  -0.106297  -0.268505  -0.000133  3.933303  0.0
C  C82  1  0.81085627  0.79515029  0.67776093  1  0.078522  0.032553  0.00058  4.046889  0.002
C  C83  1  0.79515776  0.81085399  0.17776695  1  0.07861  0.032745  0.000579  4.046748  0.002
C  C84  1  0.89932644  0.84749153  0.80816048  1  0.213972  0.557395  -0.001869  4.21902  -0.002
C  C85  1  0.84750670  0.89932781  0.30816570  1  0.213791  0.557018  -0.001869  4.219149  -0.002
C  C86  1  0.20690957  0.10481748  0.85803046  1  0.048816  0.098156  -0.004314  3.933919  -0.002
C  C87  1  0.10482278  0.20690072  0.35802658  1  0.048717  0.098068  -0.004317  3.933966  -0.002
C  C88  1  0.33519059  0.11045046  0.86498804  1  -0.078943  -0.164124  0.002819  3.939197  0.004
C  C89  1  0.11045337  0.33518089  0.36498184  1  -0.078985  -0.164244  0.002819  3.939386  0.004
C  C90  1  0.35862844  0.08615690  0.76080960  1  0.013412  0.106406  -0.006727  3.976317  -0.004
C  C91  1  0.08616003  0.35862094  0.26080541  1  0.013469  0.106402  -0.006731  3.976252  -0.004
C  C92  1  0.24854793  0.05667439  0.65312683  1  -0.081193  -0.172614  0.002319  3.925497  0.003
C  C93  1  0.05667806  0.24853940  0.15312368  1  -0.081271  -0.172614  0.002322  3.925529  0.003
C  C94  1  0.12334444  0.05134077  0.65341986  1  0.042323  0.087305  -0.004825  3.95216  -0.003
C  C95  1  0.05133986  0.12333623  0.15341686  1  0.042236  0.087097  -0.004827  3.952483  -0.003
C  C96  1  0.72993020  0.13046293  0.86293551  1  0.04567  0.097887  -0.003789  3.938911  -0.002
C  C97  1  0.13048499  0.72992547  0.36293902  1  0.045687  0.09799  -0.003789  3.938543  -0.002
C  C98  1  0.60806533  0.13440048  0.86840213  1  -0.084278  -0.176973  0.002666  3.955844  0.004
C  C99  1  0.13441742  0.60805780  0.36840244  1  -0.084212  -0.177034  0.002666  3.955839  0.004
C  C100  1  0.49163122  0.08910034  0.76151113  1  0.012541  0.103082  -0.006354  3.984718  -0.003
C  C101  1  0.08911236  0.49162568  0.26151096  1  0.012519  0.103088  -0.006354  3.984532  -0.003
C  C102  1  0.50630299  0.04527509  0.65293868  1  -0.075665  -0.151876  0.002293  3.912287  0.003
C  C103  1  0.04528384  0.50629830  0.15294062  1  -0.075729  -0.151885  0.002293  3.912356  0.003
C  C104  1  0.63190573  0.04724160  0.65502032  1  0.047145  0.101044  -0.005683  3.929828  -0.003
C  C105  1  0.04724738  0.63190092  0.15502308  1  0.047217  0.101167  -0.00568  3.930008  -0.003
N  N106  1  0.84627632  0.17924503  0.53420985  1  -0.259935  -0.09783  0.003793  3.626526  0.005
N  N107  1  0.17924602  0.84627404  0.03421388  1  -0.259959  -0.097913  0.003791  3.626589  0.005
N  N108  1  0.90075789  0.19254759  0.64864178  1  -0.239909  -0.189172  0.040527  3.502016  0.06
N  N109  1  0.19255231  0.90075597  0.14864677  1  -0.23983  -0.189029  0.040528  3.501934  0.06
N  N110  1  0.73195378  0.81451255  0.51008370  1  -0.26596  -0.113888  0.001509  3.648789  0.003
N  N111  1  0.81450763  0.73195033  0.01008245  1  -0.265929  -0.113886  0.001509  3.648735  0.003
N  N112  1  0.82556508  0.87919374  0.62427828  1  -0.242758  -0.195344  0.034161  3.486922  0.051
N  N113  1  0.87919546  0.82555415  0.12427742  1  -0.242853  -0.195514  0.034161  3.487041  0.051
N  N114  1  0.10249265  0.07567905  0.75410043  1  -0.33485  -0.211919  0.044123  3.643126  0.067
N  N115  1  0.07567849  0.10248133  0.25409531  1  -0.334793  -0.211654  0.044124  3.642806  0.067
N  N116  1  0.74204042  0.08665580  0.75757087  1  -0.333812  -0.219689  0.040333  3.634804  0.062
N  N117  1  0.08666767  0.74203774  0.25757331  1  -0.333875  -0.219884  0.040333  3.634634  0.062
O  O118  1  0.06638627  0.49284244  0.91927607  1  -0.326312  -0.527555  0.006637  2.092917  0.01
O  O119  1  0.49285167  0.06639876  0.41927974  1  -0.326244  -0.527513  0.006638  2.092691  0.01
O  O120  1  0.01227848  0.27350553  0.88858610  1  -0.320338  -0.54572  0.052443  2.290893  0.086
O  O121  1  0.27351795  0.01227868  0.38858865  1  -0.320356  -0.545738  0.052443  2.291121  0.086
O  O122  1  0.95156948  0.97478296  0.86507773  1  -0.29433  -0.505564  0.04267  2.28617  0.069
O  O123  1  0.97479970  0.95156250  0.36508139  1  -0.29421  -0.505367  0.042667  2.286127  0.069
O  O124  1  0.92028514  0.76387585  0.85496599  1  -0.321625  -0.561993  0.005102  2.224999  0.008
O  O125  1  0.76388757  0.92028405  0.35496590  1  -0.321522  -0.561791  0.005101  2.224998  0.008
