# generated using pymatgen
data_AlH7C15NCl2O5
_symmetry_space_group_name_H-M   'P 1'
_cell_length_a   6.64485162
_cell_length_b   20.36072859
_cell_length_c   22.08185140
_cell_angle_alpha   90.00090918
_cell_angle_beta   89.99050026
_cell_angle_gamma   84.34659518
_symmetry_Int_Tables_number   1
_chemical_formula_structural   AlH7C15NCl2O5
_chemical_formula_sum   'Al4 H28 C60 N4 Cl8 O20'
_cell_volume   2973.01103889
_cell_formula_units_Z   4
loop_
 _symmetry_equiv_pos_site_id
 _symmetry_equiv_pos_as_xyz
  1  'x, y, z'
loop_
 _atom_site_type_symbol
 _atom_site_label
 _atom_site_symmetry_multiplicity
 _atom_site_fract_x
 _atom_site_fract_y
 _atom_site_fract_z
 _atom_site_occupancy
 _atom_site_pbe_bader_charge
 _atom_site_pbe_bader_spin_density
 _atom_site_pbe_cm5_charge
 _atom_site_pbe_ddec_charge
 _atom_site_pbe_ddec_spin_density
 _atom_site_pbe_ddec_sum_bond_order
 _atom_site_pbe_magmom
Al  Al0  1  0.99580020  0.31410226  0.50243088  1  2.499707  0  0.393766  1.647939  0  2.574346  0
Al  Al1  1  0.00427104  0.68590978  0.00243169  1  2.498904  0  0.3937  1.647586  0  2.57537  0
Al  Al2  1  0.49547091  0.31102131  0.50134635  1  2.497144  0  0.397686  1.639959  0  2.570656  0
Al  Al3  1  0.50460985  0.68896502  0.00134430  1  2.497666  0  0.397404  1.639722  0  2.57118  0
H  H4  1  0.97803662  0.47656175  0.94573672  1  0.091485  0  0.103593  0.105206  0  1.009961  0
H  H5  1  0.02250796  0.52348389  0.44580014  1  0.089676  0  0.103614  0.105251  0  1.009657  0
H  H6  1  0.94821605  0.33968675  0.77333212  1  0.061753  0  0.106795  0.107704  0  0.986731  0
H  H7  1  0.05204575  0.66034884  0.27336545  1  0.062315  0  0.106689  0.107588  0  0.986808  0
H  H8  1  0.00597619  0.38353534  0.87121737  1  0.097241  0  0.104139  0.103782  0  0.992382  0
H  H9  1  0.99439837  0.61650770  0.37126904  1  0.096343  0  0.104264  0.104056  0  0.992141  0
H  H10  1  0.64245821  0.59943766  0.81583334  1  0.092556  0  0.090138  0.100163  0  1.075906  0
H  H11  1  0.35754619  0.40055895  0.31576382  1  0.092888  0  0.090275  0.100307  0  1.076138  0
H  H12  1  0.57409123  0.63048479  0.60593124  1  0.147207  0  0.109306  0.135163  0  0.988346  0
H  H13  1  0.42509489  0.36947967  0.10587007  1  0.14886  0  0.109208  0.135081  0  0.989177  0
H  H14  1  0.83142063  0.35345022  0.66819704  1  0.048057  0  0.107756  0.117109  0  1.003953  0
H  H15  1  0.16867277  0.64657034  0.16819797  1  0.048196  0  0.10772  0.117043  0  1.003984  0
H  H16  1  0.48852307  0.19039933  0.64393269  1  0.11234  0  0.108629  0.117074  0  1.003612  0
H  H17  1  0.51144030  0.80954889  0.14390706  1  0.112265  0  0.108472  0.116849  0  1.003371  0
H  H18  1  0.42280541  0.81539568  0.86038577  1  0.125111  0  0.108044  0.115801  0  1.006038  0
H  H19  1  0.57736252  0.18458525  0.36037148  1  0.124175  0  0.108186  0.116013  0  1.005748  0
H  H20  1  0.97062853  0.96258746  0.83625030  1  0.120126  0  0.109197  0.124127  0  1.015863  0
H  H21  1  0.02954095  0.03740381  0.33628138  1  0.119663  0  0.109127  0.124131  0  1.015957  0
H  H22  1  0.10316864  0.03475754  0.67141596  1  0.102853  0  0.112101  0.128899  0  0.997622  0
H  H23  1  0.89690752  0.96525091  0.17147125  1  0.103334  0  0.112085  0.128746  0  0.997991  0
H  H24  1  0.48628390  0.09823780  0.71922329  1  0.096694  0  0.107642  0.115079  0  1.006146  0
H  H25  1  0.51380983  0.90170005  0.21920664  1  0.097569  0  0.107666  0.115103  0  1.006132  0
H  H26  1  0.38601366  0.90726739  0.78395485  1  0.098038  0  0.1107  0.119365  0  0.990144  0
H  H27  1  0.61419787  0.09270331  0.28395607  1  0.096491  0  0.110649  0.119195  0  0.989983  0
H  H28  1  0.24109787  0.34475325  0.57459961  1  0.624642  0  0.353297  0.433427  0  0.849444  0
H  H29  1  0.75892931  0.65526893  0.07459914  1  0.624667  0  0.353299  0.433337  0  0.849439  0
H  H30  1  0.73553573  0.34147040  0.42833785  1  0.62904  0  0.355192  0.435222  0  0.846139  0
H  H31  1  0.26458344  0.65854575  0.92832694  1  0.629919  0  0.355103  0.435123  0  0.84633  0
C  C32  1  0.21509666  0.40128913  0.42765263  1  1.590872  0  0.270853  0.656426  0  4.080042  0
C  C33  1  0.78517436  0.59871645  0.92765947  1  1.589087  0  0.27094  0.655755  0  4.080738  0
C  C34  1  0.27328111  0.22103691  0.43257980  1  1.601507  0  0.267718  0.648441  0  4.10166  0
C  C35  1  0.72683200  0.77896165  0.93258382  1  1.601267  0  0.267551  0.648022  0  4.102413  0
C  C36  1  0.77907839  0.22294170  0.57356279  1  1.593894  0  0.264907  0.643933  0  4.105469  0
C  C37  1  0.22088730  0.77705584  0.07355960  1  1.594443  0  0.264818  0.644139  0  4.105234  0
C  C38  1  0.71140033  0.40479541  0.57318891  1  1.595686  0  0.265882  0.658608  0  4.118418  0
C  C39  1  0.28860518  0.59520672  0.07317085  1  1.594289  0  0.266154  0.6595  0  4.117958  0
C  C40  1  0.93346851  0.43205383  0.85867247  1  -0.055724  0  -0.088456  -0.129222  0  3.996778  0
C  C41  1  0.06682117  0.56797190  0.35871776  1  -0.05478  0  -0.088802  -0.12996  0  3.997318  0
C  C42  1  0.80584717  0.54285129  0.88368101  1  -0.027679  0  -0.013854  -0.024617  0  3.989854  0
C  C43  1  0.19441486  0.45715743  0.38367741  1  -0.033403  0  -0.013887  -0.024894  0  3.989256  0
C  C44  1  0.62608239  0.52580483  0.58933413  1  0.140652  0  0.016255  0.145223  0  4.076352  0
C  C45  1  0.37339397  0.47416488  0.08928608  1  0.138403  0  0.016208  0.14575  0  4.075234  0
C  C46  1  0.61511652  0.58213383  0.62583429  1  0.058625  0  -0.105497  -0.229242  0  4.020884  0
C  C47  1  0.38424227  0.41783310  0.12577437  1  0.060801  0  -0.105749  -0.229935  0  4.021043  0
C  C48  1  0.66142283  0.57701112  0.68705357  1  -0.033833  0  0.020714  0.126003  0  3.99275  0
C  C49  1  0.33800610  0.42295597  0.18700496  1  -0.034739  0  0.020803  0.126521  0  3.991783  0
C  C50  1  0.71973985  0.51520397  0.71569853  1  0.05937  0  -0.002777  -0.031365  0  3.885412  0
C  C51  1  0.27994886  0.48478971  0.21566000  1  0.058129  0  -0.002462  -0.030986  0  3.885257  0
C  C52  1  0.74067077  0.45884184  0.67587913  1  -0.036529  0  0.003468  0.087763  0  3.959006  0
C  C53  1  0.25914247  0.54114612  0.17584024  1  -0.034229  0  0.003469  0.087828  0  3.959493  0
C  C54  1  0.76886336  0.50473450  0.77967334  1  -0.007425  0  -0.000764  0.050068  0  3.921685  0
C  C55  1  0.23102842  0.49527657  0.27965180  1  -0.005862  0  -0.001012  0.049816  0  3.922423  0
C  C56  1  0.86269512  0.44161915  0.79861765  1  -0.031615  0  -0.006739  0.075901  0  4.01263  0
C  C57  1  0.13735174  0.55840141  0.29862325  1  -0.032299  0  -0.006539  0.076339  0  4.012173  0
C  C58  1  0.88227610  0.38770658  0.75714310  1  -0.119115  0  -0.087278  -0.124884  0  4.03366  0
C  C59  1  0.11777994  0.61231013  0.25714279  1  -0.120444  0  -0.087094  -0.124682  0  4.033153  0
C  C60  1  0.81785389  0.39545402  0.69892356  1  0.140253  0  -0.092723  -0.132774  0  4.006913  0
C  C61  1  0.18219291  0.60455817  0.19891648  1  0.138231  0  -0.092816  -0.132911  0  4.006562  0
C  C62  1  0.72947502  0.55279833  0.82553422  1  0.034306  0  -0.090797  -0.152683  0  3.94916  0
C  C63  1  0.27065322  0.44721719  0.32550198  1  0.040015  0  -0.090946  -0.152896  0  3.949271  0
C  C64  1  0.91485069  0.48273285  0.90031360  1  -0.088324  0  -0.087072  -0.101178  0  4.013732  0
C  C65  1  0.08550134  0.51728632  0.40034637  1  -0.086011  0  -0.086987  -0.100955  0  4.014034  0
C  C66  1  0.69067394  0.46451778  0.61344943  1  -0.042966  0  -0.016516  -0.14723  0  3.932408  0
C  C67  1  0.30911326  0.53547112  0.11341491  1  -0.043666  0  -0.016349  -0.147677  0  3.933182  0
C  C68  1  0.71629678  0.83637735  0.89015899  1  -0.019716  0  -0.011414  -0.094444  0  3.911868  0
C  C69  1  0.28385015  0.16361074  0.39016800  1  -0.019751  0  -0.011425  -0.095084  0  3.912103  0
C  C70  1  0.87033929  0.87921368  0.88383362  1  0.062966  0  0.025376  0.147935  0  4.016008  0
C  C71  1  0.12980649  0.12077626  0.38385630  1  0.063266  0  0.025328  0.148861  0  4.015574  0
C  C72  1  0.85229959  0.92954795  0.84103163  1  0.033778  0  -0.091178  -0.221986  0  3.942313  0
C  C73  1  0.14789657  0.07042597  0.34106492  1  0.03395  0  -0.091145  -0.222627  0  3.942627  0
C  C74  1  0.67953682  0.93860465  0.80428379  1  0.340269  0  0.090571  0.190262  0  4.051479  0
C  C75  1  0.32063151  0.06137665  0.30429220  1  0.338969  0  0.090307  0.19011  0  4.051338  0
C  C76  1  0.52151671  0.89847512  0.81177495  1  -0.021716  0  -0.081959  -0.148886  0  3.955206  0
C  C77  1  0.47866147  0.10148950  0.31178801  1  -0.019475  0  -0.081566  -0.148174  0  3.955178  0
C  C78  1  0.54246831  0.84763118  0.85390572  1  -0.012165  0  -0.07921  -0.071631  0  3.985367  0
C  C79  1  0.45770684  0.15234168  0.35391557  1  -0.01142  0  -0.079339  -0.071854  0  3.984861  0
C  C80  1  0.62021401  0.10489063  0.69235888  1  -0.01685  0  -0.087802  -0.157659  0  3.96121  0
C  C81  1  0.37985370  0.89507348  0.19235590  1  -0.018266  0  -0.087788  -0.15771  0  3.961111  0
C  C82  1  0.62234177  0.15583008  0.65088605  1  -0.042536  0  -0.079143  -0.066662  0  3.985762  0
C  C83  1  0.37764540  0.84414075  0.15087872  1  -0.042695  0  -0.078881  -0.066135  0  3.984757  0
C  C84  1  0.79600060  0.06124509  0.69973188  1  0.344904  0  0.091815  0.194102  0  4.044812  0
C  C85  1  0.20411111  0.93873113  0.19975295  1  0.345524  0  0.091638  0.193564  0  4.045255  0
C  C86  1  0.79406156  0.16506623  0.61555322  1  0.051343  0  -0.014259  -0.102592  0  3.914117  0
C  C87  1  0.20592923  0.83492209  0.11555442  1  0.050574  0  -0.014345  -0.102882  0  3.913829  0
C  C88  1  0.96790497  0.11990832  0.62265860  1  0.055831  0  0.024966  0.147321  0  4.017478  0
C  C89  1  0.03211488  0.88010552  0.12267883  1  0.055061  0  0.024988  0.147243  0  4.016632  0
C  C90  1  0.96882458  0.06930182  0.66526353  1  -0.003761  0  -0.085918  -0.216099  0  3.932491  0
C  C91  1  0.03125111  0.93070503  0.16530905  1  -0.001898  0  -0.085691  -0.215398  0  3.932255  0
N  N92  1  0.65309315  0.98870797  0.75977018  1  -0.473395  0  -0.141962  -0.125965  0  3.244217  0
N  N93  1  0.34708621  0.01125610  0.25978202  1  -0.472594  0  -0.141836  -0.1256  0  3.244353  0
N  N94  1  0.81733094  0.00852959  0.74150078  1  -0.472792  0  -0.143266  -0.124046  0  3.271796  0
N  N95  1  0.18283201  0.99145543  0.24153003  1  -0.473418  0  -0.143212  -0.124038  0  3.272415  0
Cl  Cl96  1  0.18425813  0.12194668  0.57971682  1  -0.180342  0  0.022976  -0.040887  0  1.584033  0
Cl  Cl97  1  0.81573574  0.87810247  0.07975100  1  -0.180335  0  0.022894  -0.040978  0  1.583498  0
Cl  Cl98  1  0.08239230  0.87408258  0.92957281  1  -0.179906  0  0.02188  -0.043737  0  1.581782  0
Cl  Cl99  1  0.91771810  0.12591593  0.42959585  1  -0.179827  0  0.021763  -0.044121  0  1.581862  0
Cl  Cl100  1  0.56950237  0.53496554  0.51310461  1  -0.205187  0  0.006154  -0.058397  0  1.465018  0
Cl  Cl101  1  0.42999291  0.46499611  0.01306144  1  -0.205315  0  0.006114  -0.058488  0  1.464816  0
Cl  Cl102  1  0.65486218  0.65337290  0.72300184  1  -0.214174  0  0.002337  -0.072476  0  1.495587  0
Cl  Cl103  1  0.34417855  0.34659798  0.22294741  1  -0.2142  0  0.002249  -0.07277  0  1.495152  0
O  O104  1  0.44111608  0.23794856  0.45198216  1  -1.255084  0  -0.230879  -0.578826  0  2.343172  0
O  O105  1  0.55898286  0.76206773  0.95201064  1  -1.255159  0  -0.230935  -0.578721  0  2.343167  0
O  O106  1  0.04947900  0.38620379  0.45040884  1  -1.263272  0  -0.236251  -0.597916  0  2.33165  0
O  O107  1  0.95075520  0.61379121  0.95042344  1  -1.261937  0  -0.236384  -0.597629  0  2.332621  0
O  O108  1  0.89023497  0.38020772  0.56116470  1  -1.23758  0  -0.232381  -0.591083  0  2.332728  0
O  O109  1  0.10983932  0.61984781  0.06119165  1  -1.23716  0  -0.232473  -0.591344  0  2.333254  0
O  O110  1  0.10046590  0.25041286  0.44446401  1  -1.251254  0  -0.231926  -0.590115  0  2.39705  0
O  O111  1  0.89961498  0.74957043  0.94444763  1  -1.250896  0  -0.231643  -0.58971  0  2.397675  0
O  O112  1  0.94142385  0.24475158  0.55575514  1  -1.250982  0  -0.232529  -0.59114  0  2.418189  0
O  O113  1  0.05851944  0.75531178  0.05571852  1  -1.25109  0  -0.232333  -0.591  0  2.417966  0
O  O114  1  0.39093682  0.37269272  0.43817183  1  -1.257098  0  -0.238909  -0.60307  0  2.31672  0
O  O115  1  0.60934038  0.62736374  0.93816341  1  -1.257355  0  -0.2391  -0.60296  0  2.316273  0
O  O116  1  0.24599909  0.31586109  0.53957580  1  -1.427861  0  -0.448394  -0.983678  0  2.184568  0
O  O117  1  0.75407034  0.68415367  0.03957447  1  -1.427906  0  -0.448378  -0.983512  0  2.184647  0
O  O118  1  0.60130998  0.24772607  0.56001485  1  -1.242664  0  -0.232197  -0.581069  0  2.352285  0
O  O119  1  0.39863945  0.75222651  0.06002420  1  -1.242555  0  -0.232155  -0.58119  0  2.352517  0
O  O120  1  0.54777194  0.38397149  0.55514997  1  -1.245463  0  -0.234629  -0.597326  0  2.344425  0
O  O121  1  0.45230498  0.61598934  0.05510593  1  -1.245059  0  -0.234579  -0.597547  0  2.343882  0
O  O122  1  0.74520812  0.31495001  0.46493478  1  -1.430776  0  -0.447065  -0.984704  0  2.185991  0
O  O123  1  0.25490528  0.68506790  0.96492451  1  -1.431666  0  -0.446939  -0.984627  0  2.186552  0
