# generated using pymatgen
data_CuH13C16SN3O5
_symmetry_space_group_name_H-M   'P 1'
_cell_length_a   6.96155412
_cell_length_b   13.03121975
_cell_length_c   24.28269549
_cell_angle_alpha   90.00015132
_cell_angle_beta   90.00053299
_cell_angle_gamma   90.00013038
_symmetry_Int_Tables_number   1
_chemical_formula_structural   CuH13C16SN3O5
_chemical_formula_sum   'Cu4 H52 C64 S4 N12 O20'
_cell_volume   2202.86643503
_cell_formula_units_Z   4
loop_
 _symmetry_equiv_pos_site_id
 _symmetry_equiv_pos_as_xyz
  1  'x, y, z'
loop_
 _atom_site_type_symbol
 _atom_site_label
 _atom_site_symmetry_multiplicity
 _atom_site_fract_x
 _atom_site_fract_y
 _atom_site_fract_z
 _atom_site_occupancy
 _atom_site_pbe_bader_charge
 _atom_site_pbe_bader_spin_density
 _atom_site_pbe_cm5_charge
 _atom_site_pbe_ddec_charge
 _atom_site_pbe_ddec_spin_density
 _atom_site_pbe_ddec_sum_bond_order
 _atom_site_pbe_magmom
Cu  Cu0  1  0.61384566  0.68818468  0.64139841  1  1.075412  0.573011  0.741642  0.793191  0.759843  2.275512  0.573
Cu  Cu1  1  0.38614965  0.18818305  0.35860212  1  1.075636  -0.573014  0.74165  0.793312  -0.759844  2.275296  -0.573
Cu  Cu2  1  0.11385724  0.68816650  0.85860342  1  1.076318  -0.573012  0.74169  0.793323  -0.759853  2.275348  -0.573
Cu  Cu3  1  0.88616824  0.18818895  0.14139876  1  1.07587  0.573016  0.741634  0.793281  0.759845  2.275233  0.573
H  H4  1  0.23397858  0.67587159  0.59454270  1  0.63716  -0.000128  0.282669  0.383206  -6.7e-05  0.951932  0.0
H  H5  1  0.76601956  0.17587066  0.40545658  1  0.637029  0.000128  0.282666  0.383213  6.7e-05  0.951912  0.0
H  H6  1  0.73399534  0.67587267  0.90545410  1  0.63726  0.000127  0.282719  0.383307  6.7e-05  0.951831  0.0
H  H7  1  0.26603584  0.17588033  0.09454807  1  0.63719  -0.000128  0.282681  0.383174  -6.7e-05  0.951951  0.0
H  H8  1  0.54906962  0.63781603  0.81485885  1  0.553391  -0.000115  0.307901  0.287973  1e-06  1.002766  0.0
H  H9  1  0.45094415  0.13782513  0.18513832  1  0.553282  0.000115  0.307903  0.288127  -1e-06  1.002572  0.0
H  H10  1  0.04905425  0.63781387  0.68513821  1  0.5533  0.000115  0.307951  0.28806  -1e-06  1.002627  0.0
H  H11  1  0.95093798  0.13781579  0.31486061  1  0.55336  -0.000115  0.3079  0.287959  1e-06  1.002753  0.0
H  H12  1  0.11144288  0.86720506  0.57833853  1  0.117771  3.9e-05  0.105664  0.126858  6.3e-05  1.026209  0.0
H  H13  1  0.88852878  0.36720590  0.42166020  1  0.117717  -3.9e-05  0.105688  0.12678  -6.3e-05  1.026252  0.0
H  H14  1  0.61146876  0.86718550  0.92166931  1  0.117795  -3.9e-05  0.105697  0.12685  -6.3e-05  1.02624  0.0
H  H15  1  0.38857185  0.36720627  0.07833353  1  0.118042  3.9e-05  0.105733  0.126969  6.3e-05  1.026291  0.0
H  H16  1  0.30881467  0.98627522  0.51061535  1  0.106817  -0.000145  0.108257  0.128952  -0.000143  0.99826  0.0
H  H17  1  0.69118048  0.48628229  0.48938436  1  0.106798  0.000145  0.108307  0.129085  0.000143  0.998215  0.0
H  H18  1  0.80881681  0.98628286  0.98938950  1  0.106798  0.000145  0.108251  0.12905  0.000143  0.998245  0.0
H  H19  1  0.19120707  0.48627926  0.01061063  1  0.107032  -0.000145  0.108195  0.128946  -0.000143  0.998073  0.0
H  H20  1  0.50963387  0.48331270  0.61374757  1  0.128533  0.001939  0.119356  0.09591  0.000915  1.030831  0.002
H  H21  1  0.49034259  0.98329985  0.38624432  1  0.128864  -0.00194  0.119384  0.096057  -0.000915  1.030757  -0.002
H  H22  1  0.00966355  0.48329773  0.88624463  1  0.128854  -0.00194  0.119352  0.096016  -0.000915  1.030807  -0.002
H  H23  1  0.99034595  0.98330331  0.11375137  1  0.128705  0.001939  0.119398  0.096028  0.000914  1.030763  0.002
H  H24  1  0.44064819  0.31604447  0.65915088  1  0.090203  0.000956  0.110827  0.11921  0.00051  0.989014  0.0
H  H25  1  0.55927585  0.81602611  0.34083830  1  0.090408  -0.000955  0.110879  0.119281  -0.000509  0.989043  0.0
H  H26  1  0.94067155  0.31601914  0.84084228  1  0.090083  -0.000956  0.110811  0.119196  -0.00051  0.989095  0.0
H  H27  1  0.05929558  0.81602688  0.15915555  1  0.090312  0.000956  0.11083  0.119202  0.00051  0.989066  0.0
H  H28  1  0.44757929  0.30904770  0.76396792  1  0.06502  0.000252  0.10943  0.10253  0.000141  0.975196  0.0
H  H29  1  0.55233610  0.80904568  0.23602290  1  0.064341  -0.000252  0.109376  0.102598  -0.000141  0.975036  0.0
H  H30  1  0.94756779  0.30903335  0.73602155  1  0.064035  -0.000252  0.109405  0.102578  -0.000141  0.974946  0.0
H  H31  1  0.05235909  0.80904391  0.26397380  1  0.064475  0.000252  0.109373  0.102562  0.000141  0.975165  0.0
H  H32  1  0.50995732  0.47144018  0.81583262  1  0.114637  0.001392  0.112921  0.135844  0.000726  1.006645  0.001
H  H33  1  0.49000041  0.97144551  0.18416460  1  0.114545  -0.001393  0.112908  0.13581  -0.000726  1.006527  -0.001
H  H34  1  0.00993474  0.47143802  0.68416533  1  0.114553  -0.001393  0.112863  0.135793  -0.000726  1.00665  -0.001
H  H35  1  0.99001725  0.97144000  0.31583396  1  0.114571  0.001392  0.112916  0.135871  0.000725  1.006537  0.001
H  H36  1  0.52770448  0.79748956  0.84283523  1  0.169241  0.001253  0.115503  0.139731  0.000649  1.035339  0.001
H  H37  1  0.47233440  0.29748703  0.15716505  1  0.169506  -0.001252  0.115458  0.139657  -0.000649  1.035275  -0.001
H  H38  1  0.02769398  0.79747037  0.65716446  1  0.169418  -0.001252  0.115473  0.139732  -0.000649  1.035231  -0.001
H  H39  1  0.97229606  0.29748089  0.34283582  1  0.169288  0.001252  0.115497  0.139738  0.000649  1.035247  0.001
H  H40  1  0.46635758  0.98031655  0.82034065  1  0.069573  0.000175  0.111871  0.10666  9.2e-05  0.972554  0.0
H  H41  1  0.53367920  0.48032419  0.17966441  1  0.069364  -0.000175  0.11183  0.106508  -9.2e-05  0.972564  0.0
H  H42  1  0.96635869  0.98031037  0.67965927  1  0.069508  -0.000175  0.111891  0.106719  -9.2e-05  0.972497  0.0
H  H43  1  0.03364937  0.48031503  0.32034497  1  0.06932  0.000175  0.111866  0.106674  9.2e-05  0.972523  0.0
H  H44  1  0.44674342  0.03230987  0.71938989  1  0.051542  0.001103  0.10423  0.108012  0.00057  0.996203  0.001
H  H45  1  0.55326128  0.53231115  0.28061949  1  0.051504  -0.001103  0.104263  0.108052  -0.00057  0.996254  -0.001
H  H46  1  0.94678358  0.03230342  0.78061566  1  0.051762  -0.001103  0.104199  0.108084  -0.00057  0.996075  -0.001
H  H47  1  0.05325990  0.53231146  0.21939207  1  0.051528  0.001103  0.104187  0.108031  0.00057  0.99619  0.001
H  H48  1  0.50798049  0.89786799  0.64827327  1  0.13441  0.002555  0.124057  0.101362  0.001264  0.99182  0.002
H  H49  1  0.49200279  0.39786800  0.35173168  1  0.134219  -0.002557  0.124114  0.101481  -0.001264  0.991646  -0.002
H  H50  1  0.00802633  0.89785285  0.85172733  1  0.134383  -0.002555  0.12409  0.101539  -0.001264  0.991759  -0.002
H  H51  1  0.99202590  0.39786703  0.14827514  1  0.134551  0.002556  0.124077  0.101418  0.001264  0.991862  0.002
H  H52  1  0.38889487  0.75581271  0.56637600  1  0.636685  2.5e-05  0.281438  0.380927  3.8e-05  0.961396  0.0
H  H53  1  0.61110073  0.25581864  0.43362175  1  0.636564  -2.5e-05  0.281382  0.380862  -3.8e-05  0.961426  0.0
H  H54  1  0.88890819  0.75580856  0.93362299  1  0.636661  -2.5e-05  0.281439  0.380893  -3.8e-05  0.961473  0.0
H  H55  1  0.11112332  0.25582049  0.06638094  1  0.636731  2.5e-05  0.28133  0.380775  3.8e-05  0.961578  0.0
C  C56  1  0.70449967  0.83712759  0.55430411  1  1.584023  0.000179  0.19855  0.577556  0.001739  4.240711  -0.001
C  C57  1  0.29549054  0.33712937  0.44569458  1  1.584278  -0.000177  0.198439  0.577467  -0.001738  4.240688  0.001
C  C58  1  0.20450965  0.83710755  0.94570148  1  1.584228  -0.000178  0.19859  0.577614  -0.001738  4.240303  0.001
C  C59  1  0.79552364  0.33712869  0.05430503  1  1.584327  0.000179  0.198593  0.577718  0.001738  4.240722  -0.001
C  C60  1  0.85857849  0.89913256  0.52823148  1  -0.203518  0.0096  -0.027027  -0.11845  0.006691  3.983916  0.007
C  C61  1  0.14140623  0.39913658  0.47176729  1  -0.203869  -0.009601  -0.027165  -0.118729  -0.006691  3.984061  -0.007
C  C62  1  0.35858786  0.89912032  0.97177339  1  -0.203215  -0.009599  -0.027183  -0.118692  -0.006691  3.983827  -0.007
C  C63  1  0.64144571  0.39913808  0.02823032  1  -0.203337  0.009603  -0.026989  -0.118478  0.006694  3.98372  0.007
C  C64  1  0.04973206  0.90836455  0.54360221  1  -0.024556  0.000241  -0.10064  -0.109839  0.000228  3.975662  0.0
C  C65  1  0.95025413  0.40837101  0.45639575  1  -0.024257  -0.00024  -0.100521  -0.109463  -0.000227  3.97541  0.0
C  C66  1  0.54973892  0.90834901  0.95640346  1  -0.024645  -0.000241  -0.100606  -0.109752  -0.000228  3.975261  0.0
C  C67  1  0.45029037  0.40836507  0.04359821  1  -0.024921  0.000241  -0.100796  -0.110093  0.000227  3.975911  0.0
C  C68  1  0.15547239  0.97129647  0.50738031  1  0.051739  0.000826  -0.09497  -0.090476  0.000496  3.974158  0.001
C  C69  1  0.84451407  0.47129684  0.49262226  1  0.0517  -0.000826  -0.095034  -0.090764  -0.000496  3.974272  -0.001
C  C70  1  0.65548181  0.97129185  0.99262368  1  0.05186  -0.000826  -0.094965  -0.090607  -0.000496  3.974003  -0.001
C  C71  1  0.34454919  0.47129840  0.00737643  1  0.051822  0.000826  -0.094906  -0.090422  0.000496  3.974051  0.001
C  C72  1  0.04298761  0.01003555  0.46508517  1  -0.239603  -0.007152  -0.033735  -0.139765  -0.005105  4.008345  -0.006
C  C73  1  0.95699688  0.51003092  0.53491717  1  -0.239326  0.007151  -0.033764  -0.139646  0.005104  4.008385  0.006
C  C74  1  0.54300001  0.01002864  0.03491781  1  -0.239612  0.00715  -0.033757  -0.139741  0.005104  4.008167  0.006
C  C75  1  0.45703477  0.51002709  0.96507960  1  -0.240437  -0.007152  -0.033599  -0.139721  -0.005105  4.008556  -0.006
C  C76  1  0.10247088  0.07572771  0.41871648  1  1.576005  0.000921  0.204082  0.583777  -0.000585  4.23398  0.002
C  C77  1  0.89752539  0.57572784  0.58128472  1  1.575671  -0.000921  0.20406  0.583747  0.000586  4.233922  -0.002
C  C78  1  0.60247897  0.07573024  0.08128758  1  1.575701  -0.000919  0.204116  0.583916  0.000586  4.233649  -0.002
C  C79  1  0.39754316  0.57571841  0.91871362  1  1.575888  0.000919  0.20397  0.583952  -0.000585  4.234015  0.002
C  C80  1  0.50562826  0.47642551  0.65839087  1  0.417238  -0.00085  0.042937  0.10901  -3.2e-05  3.949469  -0.001
C  C81  1  0.49431657  0.97642472  0.34160224  1  0.417211  0.000852  0.043127  0.108979  3.3e-05  3.949666  0.001
C  C82  1  0.00565655  0.47640878  0.84160213  1  0.416752  0.000851  0.043148  0.109108  3.3e-05  3.949527  0.001
C  C83  1  0.99433425  0.97641765  0.15839387  1  0.417401  -0.00085  0.043008  0.108834  -3.2e-05  3.949509  -0.001
C  C84  1  0.46965805  0.38365066  0.68410660  1  0.028292  0.005035  -0.100135  -0.16885  0.003569  4.023369  0.004
C  C85  1  0.53029644  0.88364671  0.31588803  1  0.028182  -0.005037  -0.100283  -0.168969  -0.00357  4.02364  -0.004
C  C86  1  0.96966770  0.38363057  0.81588756  1  0.028719  -0.005036  -0.100208  -0.168883  -0.00357  4.023519  -0.004
C  C87  1  0.03030115  0.88364301  0.18410996  1  0.02807  0.005036  -0.100215  -0.168791  0.003569  4.023652  0.004
C  C88  1  0.47340092  0.38054058  0.74182384  1  -0.052871  -0.003429  -0.072991  -0.02005  -0.002288  4.03938  -0.002
C  C89  1  0.52655356  0.88054248  0.25816914  1  -0.052645  0.003429  -0.072934  -0.020125  0.002288  4.039696  0.002
C  C90  1  0.97340016  0.38052251  0.75816909  1  -0.052068  0.003429  -0.073005  -0.020128  0.002288  4.039393  0.002
C  C91  1  0.02655575  0.88053523  0.24182842  1  -0.052898  -0.003429  -0.072858  -0.02005  -0.002288  4.039598  -0.002
C  C92  1  0.50745718  0.46960448  0.77099452  1  -0.021303  0.005671  -0.092065  -0.221367  0.004124  3.930645  0.005
C  C93  1  0.49251204  0.96960619  0.22900312  1  -0.021014  -0.005669  -0.092086  -0.221401  -0.004123  3.930924  -0.005
C  C94  1  0.00744174  0.46959333  0.72900425  1  -0.021272  -0.005669  -0.091973  -0.221356  -0.004124  3.930837  -0.005
C  C95  1  0.99250881  0.96960200  0.27099668  1  -0.02092  0.00567  -0.092125  -0.221452  0.004123  3.930866  0.005
C  C96  1  0.53834227  0.56227495  0.74198755  1  1.018581  0.000385  0.229542  0.384034  0.001083  4.028816  0.0
C  C97  1  0.46164963  0.06227752  0.25800746  1  1.018378  -0.000387  0.229599  0.384294  -0.001084  4.028499  0.0
C  C98  1  0.03833635  0.56226701  0.75800814  1  1.018078  -0.000387  0.229675  0.384443  -0.001083  4.028735  0.0
C  C99  1  0.96164981  0.06227011  0.24198975  1  1.018472  0.000386  0.229638  0.384133  0.001083  4.029063  0.0
C  C100  1  0.54719151  0.75174690  0.75754362  1  0.964019  0.000579  0.229455  0.380542  0.001141  4.022137  0.0
C  C101  1  0.45281987  0.25175322  0.24245576  1  0.964154  -0.000579  0.229415  0.380537  -0.001141  4.022027  0.0
C  C102  1  0.04719660  0.75173658  0.74245358  1  0.96387  -0.00058  0.229437  0.380475  -0.001142  4.022303  0.0
C  C103  1  0.95281335  0.25174512  0.25754457  1  0.964322  0.000577  0.229437  0.380557  0.001141  4.022142  0.0
C  C104  1  0.52474332  0.82372183  0.80036385  1  -0.120809  0.00589  -0.085619  -0.208452  0.004314  3.912619  0.005
C  C105  1  0.47527986  0.32373027  0.19963646  1  -0.120868  -0.00589  -0.085647  -0.208512  -0.004313  3.912311  -0.005
C  C106  1  0.02473415  0.82371514  0.69963422  1  -0.121165  -0.00589  -0.085595  -0.208402  -0.004314  3.912317  -0.005
C  C107  1  0.97526605  0.32371778  0.30036609  1  -0.121017  0.005891  -0.085627  -0.208513  0.004314  3.912408  0.005
C  C108  1  0.48902143  0.92497247  0.78725865  1  0.063568  -0.003376  -0.068585  -0.010761  -0.0023  4.002109  -0.002
C  C109  1  0.51100075  0.42498101  0.21274551  1  0.063428  0.003377  -0.068431  -0.010388  0.0023  4.001446  0.002
C  C110  1  0.98901351  0.92496875  0.71274208  1  0.064086  0.003376  -0.068627  -0.010867  0.0023  4.001885  0.002
C  C111  1  0.01099000  0.42497092  0.28726167  1  0.064107  -0.003376  -0.068522  -0.010632  -0.0023  4.001859  -0.002
C  C112  1  0.47898982  0.95391820  0.73175947  1  -0.015912  0.004494  -0.101336  -0.169935  0.003156  4.045532  0.004
C  C113  1  0.52102530  0.45392242  0.26824803  1  -0.002144  -0.004469  -0.10141  -0.16999  -0.003156  4.04557  -0.004
C  C114  1  0.97899081  0.95390555  0.76824334  1  -0.016412  -0.004494  -0.101349  -0.170018  -0.003156  4.045526  -0.004
C  C115  1  0.02102862  0.45391743  0.23176210  1  -0.016109  0.004495  -0.101371  -0.170098  0.003156  4.045673  0.004
C  C116  1  0.51069317  0.87998183  0.69195951  1  0.455231  -0.001485  0.042783  0.111123  -0.000426  3.963157  -0.001
C  C117  1  0.48932020  0.37998468  0.30804294  1  0.441765  0.001458  0.042792  0.111018  0.000426  3.963336  0.001
C  C118  1  0.01070892  0.87996800  0.80804066  1  0.454953  0.001484  0.042853  0.110897  0.000426  3.963103  0.001
C  C119  1  0.98932600  0.37998239  0.19196179  1  0.455031  -0.001485  0.042827  0.111133  -0.000427  3.963101  -0.001
S  S120  1  0.80876557  0.96778290  0.46947562  1  0.254506  -0.000158  0.090918  0.138603  -0.000137  2.920137  0.0
S  S121  1  0.19122231  0.46777960  0.53052283  1  0.254359  0.000158  0.090949  0.138645  0.000137  2.920031  0.0
S  S122  1  0.30878129  0.96777076  0.03052654  1  0.254406  0.000158  0.090957  0.138689  0.000137  2.920095  0.0
S  S123  1  0.69125256  0.46778561  0.96947232  1  0.255207  -0.000156  0.090893  0.138665  -0.000136  2.92014  0.0
N  N124  1  0.54227013  0.56425007  0.68634999  1  -1.266511  0.087795  -0.35351  -0.335621  0.0605  3.5526  0.077
N  N125  1  0.45770598  0.06424984  0.31364584  1  -1.266394  -0.08778  -0.353646  -0.335777  -0.060489  3.552361  -0.077
N  N126  1  0.04228462  0.56423397  0.81364571  1  -1.2661  -0.087787  -0.353684  -0.336067  -0.060496  3.552711  -0.077
N  N127  1  0.95772166  0.06424676  0.18635218  1  -1.266455  0.087792  -0.353575  -0.335616  0.0605  3.552454  0.077
N  N128  1  0.56343503  0.64998594  0.77266381  1  -1.321092  0.00087  -0.392901  -0.388782  0.000411  3.558553  0.001
N  N129  1  0.43656443  0.14998986  0.22733626  1  -1.321059  -0.000869  -0.392923  -0.389113  -0.00041  3.558543  -0.001
N  N130  1  0.06343821  0.64997632  0.72733495  1  -1.320753  -0.000869  -0.393116  -0.388991  -0.000411  3.558805  -0.001
N  N131  1  0.93656125  0.14998261  0.27266430  1  -1.321163  0.00087  -0.392975  -0.388846  0.000411  3.558851  0.001
N  N132  1  0.54762599  0.78072180  0.70427279  1  -1.213234  0.085064  -0.357852  -0.332223  0.058456  3.577478  0.074
N  N133  1  0.45238408  0.28072761  0.29572994  1  -1.213494  -0.085068  -0.357836  -0.332214  -0.05846  3.577471  -0.074
N  N134  1  0.04764998  0.78071175  0.79572611  1  -1.213188  -0.085062  -0.357778  -0.331967  -0.058455  3.576942  -0.074
N  N135  1  0.95238020  0.28072539  0.20427414  1  -1.213306  0.085061  -0.35782  -0.332202  0.058453  3.577313  0.074
O  O136  1  0.74880223  0.80211797  0.60258009  1  -1.118953  0.101733  -0.327887  -0.544915  0.066922  2.371564  0.091
O  O137  1  0.25118207  0.30211254  0.39741896  1  -1.119125  -0.101737  -0.3278  -0.544966  -0.066924  2.371527  -0.091
O  O138  1  0.24881502  0.80209462  0.89742228  1  -1.119494  -0.10175  -0.327845  -0.544975  -0.066929  2.371294  -0.091
O  O139  1  0.75121812  0.30212285  0.10257800  1  -1.119494  0.101728  -0.327832  -0.544898  0.066921  2.371793  0.091
O  O140  1  0.54829562  0.82509326  0.52900027  1  -1.16786  0.002334  -0.321149  -0.536945  0.001159  2.134302  0.002
O  O141  1  0.45169166  0.32510149  0.47099675  1  -1.167875  -0.002333  -0.320996  -0.536707  -0.001158  2.134327  -0.002
O  O142  1  0.04831214  0.82507104  0.97100528  1  -1.168065  -0.002332  -0.321173  -0.53685  -0.001158  2.134338  -0.002
O  O143  1  0.95171967  0.32509148  0.02900080  1  -1.168072  0.002335  -0.321221  -0.537067  0.00116  2.134372  0.002
O  O144  1  0.97601241  0.10395498  0.38400698  1  -1.209004  -0.000744  -0.320405  -0.579151  -0.000194  2.263409  -0.001
O  O145  1  0.02398829  0.60396267  0.61599344  1  -1.20899  0.000742  -0.32043  -0.579213  0.000192  2.263472  0.001
O  O146  1  0.47602936  0.10396552  0.11599650  1  -1.209016  0.00074  -0.320346  -0.579205  0.000192  2.263496  0.001
O  O147  1  0.52400582  0.60395674  0.88400680  1  -1.209202  -0.000745  -0.320362  -0.579272  -0.000194  2.263399  -0.001
O  O148  1  0.28202994  0.09766283  0.41678038  1  -1.111748  -0.098558  -0.316197  -0.515156  -0.065044  2.368972  -0.089
O  O149  1  0.71795925  0.59766813  0.58322208  1  -1.111477  0.098552  -0.316095  -0.515061  0.06504  2.368837  0.089
O  O150  1  0.78204814  0.09767458  0.08322420  1  -1.111568  0.098555  -0.316159  -0.51515  0.065043  2.368807  0.089
O  O151  1  0.21798557  0.59764640  0.91677703  1  -1.111625  -0.098541  -0.316148  -0.515242  -0.065033  2.36916  -0.089
O  O152  1  0.33370078  0.72789443  0.60134813  1  -1.276662  -0.001642  -0.607142  -0.804431  -0.000758  2.116871  0.0
O  O153  1  0.66629327  0.22789028  0.39864917  1  -1.276372  0.001642  -0.607099  -0.804404  0.000759  2.116873  0.0
O  O154  1  0.83372307  0.72788550  0.89865396  1  -1.276693  0.001642  -0.607192  -0.804497  0.000758  2.116978  0.0
O  O155  1  0.16631838  0.22790151  0.10135364  1  -1.27674  -0.001642  -0.60707  -0.80427  -0.000759  2.116942  0.0
