# generated using pymatgen
data_KH13C18O
_symmetry_space_group_name_H-M   'P 1'
_cell_length_a   5.42771132
_cell_length_b   11.95900052
_cell_length_c   20.49441555
_cell_angle_alpha   89.99826425
_cell_angle_beta   90.00042430
_cell_angle_gamma   96.89322907
_symmetry_Int_Tables_number   1
_chemical_formula_structural   KH13C18O
_chemical_formula_sum   'K4 H52 C72 O4'
_cell_volume   1320.67658821
_cell_formula_units_Z   4
loop_
 _symmetry_equiv_pos_site_id
 _symmetry_equiv_pos_as_xyz
  1  'x, y, z'
loop_
 _atom_site_type_symbol
 _atom_site_label
 _atom_site_symmetry_multiplicity
 _atom_site_fract_x
 _atom_site_fract_y
 _atom_site_fract_z
 _atom_site_occupancy
 _atom_site_hle17_bader_spin_density
 _atom_site_hle17_ddec_charge
 _atom_site_hle17_ddec_spin_density
 _atom_site_hle17_ddec_sum_bond_order
 _atom_site_hle17_magmom
 _atom_site_hse06_10hf_bader_spin_density
 _atom_site_hse06_10hf_ddec_charge
 _atom_site_hse06_10hf_ddec_spin_density
 _atom_site_hse06_10hf_ddec_sum_bond_order
 _atom_site_hse06_10hf_magmom
 _atom_site_hse06_bader_spin_density
 _atom_site_hse06_ddec_charge
 _atom_site_hse06_ddec_spin_density
 _atom_site_hse06_ddec_sum_bond_order
 _atom_site_hse06_magmom
 _atom_site_pbe_bader_spin_density
 _atom_site_pbe_cm5_charge
 _atom_site_pbe_ddec_charge
 _atom_site_pbe_ddec_spin_density
 _atom_site_pbe_ddec_sum_bond_order
 _atom_site_pbe_magmom
K  K0  1  0.75647103  0.05822446  0.45978499  1  0  0.915147  0  0.510976  0  0  0.862963  0  0.693349  0  0  0.875464  0  0.678041  0  0  0.745454  0.853596  0  0.704246  0
K  K1  1  0.24348812  0.44178279  0.95977839  1  0  0.915101  0  0.511052  0  0  0.862934  0  0.693373  0  0  0.87541  0  0.678107  0  0  0.745436  0.853627  0  0.704169  0
K  K2  1  0.24350101  0.94180593  0.54021781  1  0  0.915139  0  0.511004  0  0  0.86294  0  0.693386  0  0  0.875445  0  0.678079  0  0  0.745453  0.853585  0  0.704252  0
K  K3  1  0.75648641  0.55818966  0.04020098  1  0  0.91515  0  0.511051  0  0  0.862921  0  0.693456  0  0  0.875423  0  0.678146  0  0  0.745453  0.853541  0  0.704379  0
H  H4  1  0.09771435  0.38984710  0.32011870  1  0  0.078269  0  0.981675  0  0  0.090185  0  1.045687  0  0  0.092625  0  1.044228  0  0  0.092051  0.088453  0  1.046709  0
H  H5  1  0.90228679  0.11016572  0.82011834  1  0  0.078197  0  0.981679  0  0  0.09009  0  1.045728  0  0  0.092533  0  1.044261  0  0  0.092066  0.088358  0  1.04675  0
H  H6  1  0.90227950  0.61018185  0.67988604  1  0  0.078079  0  0.981496  0  0  0.089906  0  1.045656  0  0  0.092351  0  1.044184  0  0  0.091941  0.088174  0  1.046682  0
H  H7  1  0.09772654  0.88980716  0.17988250  1  0  0.078164  0  0.981147  0  0  0.0899  0  1.045425  0  0  0.092343  0  1.043958  0  0  0.091959  0.088169  0  1.046446  0
H  H8  1  0.39756802  0.53136017  0.37526898  1  0  0.089559  0  0.970235  0  0  0.102079  0  1.029261  0  0  0.103968  0  1.030691  0  0  0.094035  0.100764  0  1.028357  0
H  H9  1  0.60244531  0.96864765  0.87527089  1  0  0.089587  0  0.970235  0  0  0.102079  0  1.029287  0  0  0.103961  0  1.030736  0  0  0.09405  0.100767  0  1.028379  0
H  H10  1  0.60244139  0.46866391  0.62472942  1  0  0.089705  0  0.970238  0  0  0.102186  0  1.029315  0  0  0.104072  0  1.030754  0  0  0.094041  0.100867  0  1.02842  0
H  H11  1  0.39756098  0.03132683  0.12472605  1  0  0.089784  0  0.970341  0  0  0.102281  0  1.029396  0  0  0.104182  0  1.030795  0  0  0.094107  0.100959  0  1.028505  0
H  H12  1  0.65452227  0.47010712  0.46579986  1  0  0.083241  0  0.981875  0  0  0.096143  0  1.044227  0  0  0.098377  0  1.043012  0  0  0.096149  0.094563  0  1.045043  0
H  H13  1  0.34548934  0.02989553  0.96580142  1  0  0.083187  0  0.981905  0  0  0.09614  0  1.044203  0  0  0.098373  0  1.04299  0  0  0.096154  0.094559  0  1.045021  0
H  H14  1  0.34548828  0.52991361  0.53419610  1  0  0.083382  0  0.981771  0  0  0.096318  0  1.044087  0  0  0.098552  0  1.042873  0  0  0.096241  0.094732  0  1.044903  0
H  H15  1  0.65453333  0.97008670  0.03419551  1  0  0.083371  0  0.981748  0  0  0.096307  0  1.044094  0  0  0.098542  0  1.04288  0  0  0.096219  0.094723  0  1.044905  0
H  H16  1  0.73352661  0.29265454  0.32690410  1  0  0.094752  0  0.967158  0  0  0.105257  0  1.031698  0  0  0.107339  0  1.032164  0  0  0.10021  0.103738  0  1.031467  0
H  H17  1  0.26646055  0.20734452  0.82689810  1  0  0.094701  0  0.967106  0  0  0.105257  0  1.031627  0  0  0.107271  0  1.032169  0  0  0.100188  0.103736  0  1.031399  0
H  H18  1  0.26646195  0.70736679  0.67311040  1  0  0.094614  0  0.967214  0  0  0.105142  0  1.031757  0  0  0.107154  0  1.032303  0  0  0.100165  0.103668  0  1.031478  0
H  H19  1  0.73354055  0.79263158  0.17310567  1  0  0.094532  0  0.967312  0  0  0.105086  0  1.031842  0  0  0.107098  0  1.032391  0  0  0.100153  0.103613  0  1.031562  0
H  H20  1  0.46225800  0.17041893  0.25271477  1  0  0.088508  0  0.957114  0  0  0.100763  0  1.015566  0  0  0.102757  0  1.015962  0  0  0.098102  0.099344  0  1.015349  0
H  H21  1  0.53774596  0.32958045  0.75270896  1  0  0.088598  0  0.956991  0  0  0.100838  0  1.015462  0  0  0.102832  0  1.015857  0  0  0.098146  0.099416  0  1.015247  0
H  H22  1  0.53770665  0.82961138  0.74730462  1  0  0.088526  0  0.956936  0  0  0.100828  0  1.01535  0  0  0.102821  0  1.015747  0  0  0.098063  0.099402  0  1.015135  0
H  H23  1  0.46228978  0.67038512  0.24729871  1  0  0.088547  0  0.956939  0  0  0.100795  0  1.015416  0  0  0.102788  0  1.015814  0  0  0.09803  0.09937  0  1.015203  0
H  H24  1  0.55920503  0.97691549  0.22641101  1  0  0.083386  0  0.983369  0  0  0.094403  0  1.046683  0  0  0.096918  0  1.04614  0  0  0.095273  0.092582  0  1.047157  0
H  H25  1  0.44083927  0.52309800  0.72641362  1  0  0.083687  0  0.983257  0  0  0.094669  0  1.046569  0  0  0.097186  0  1.046022  0  0  0.095367  0.092841  0  1.047051  0
H  H26  1  0.44073096  0.02311870  0.77358983  1  0  0.083739  0  0.983616  0  0  0.094692  0  1.046891  0  0  0.097209  0  1.046342  0  0  0.095364  0.092863  0  1.047374  0
H  H27  1  0.55922673  0.47687126  0.27358088  1  0  0.083721  0  0.983535  0  0  0.09467  0  1.046831  0  0  0.097186  0  1.046283  0  0  0.095358  0.092839  0  1.047318  0
H  H28  1  0.93010879  0.90708396  0.27677031  1  0  0.079119  0  0.982209  0  0  0.090896  0  1.044826  0  0  0.093263  0  1.043932  0  0  0.096084  0.089148  0  1.045595  0
H  H29  1  0.06993902  0.59292917  0.77676809  1  0  0.079162  0  0.98211  0  0  0.090925  0  1.044731  0  0  0.09329  0  1.043843  0  0  0.096118  0.089179  0  1.045507  0
H  H30  1  0.06982822  0.09293764  0.72322370  1  0  0.079079  0  0.981974  0  0  0.090832  0  1.044657  0  0  0.093201  0  1.043767  0  0  0.096016  0.089093  0  1.045438  0
H  H31  1  0.93011697  0.40704501  0.22321957  1  0  0.079021  0  0.981908  0  0  0.090752  0  1.044656  0  0  0.093117  0  1.043761  0  0  0.096016  0.089002  0  1.045433  0
H  H32  1  0.20978264  0.03112004  0.34828219  1  0  0.098318  0  0.98121  0  0  0.105356  0  1.049182  0  0  0.108972  0  1.047093  0  0  0.103285  0.102769  0  1.050727  0
H  H33  1  0.79023350  0.46888553  0.84827166  1  0  0.098353  0  0.98128  0  0  0.10541  0  1.049233  0  0  0.109016  0  1.047136  0  0  0.103326  0.102821  0  1.050784  0
H  H34  1  0.79018316  0.96888088  0.65171280  1  0  0.098215  0  0.98138  0  0  0.105361  0  1.049267  0  0  0.108984  0  1.047182  0  0  0.103266  0.102768  0  1.050806  0
H  H35  1  0.20979227  0.53110260  0.15171211  1  0  0.098267  0  0.9813  0  0  0.105332  0  1.049257  0  0  0.108955  0  1.047174  0  0  0.10328  0.102742  0  1.050803  0
H  H36  1  0.96444321  0.38085477  0.49142281  1  0  0.095273  0  0.964901  0  0  0.104762  0  1.031101  0  0  0.106869  0  1.031448  0  0  0.100922  0.103214  0  1.030987  0
H  H37  1  0.03553902  0.11914860  0.99142170  1  0  0.095308  0  0.964894  0  0  0.104801  0  1.031084  0  0  0.106909  0  1.031432  0  0  0.100922  0.103252  0  1.030974  0
H  H38  1  0.03556012  0.61916672  0.50858193  1  0  0.095218  0  0.965186  0  0  0.104706  0  1.031358  0  0  0.106815  0  1.031705  0  0  0.100963  0.103159  0  1.031242  0
H  H39  1  0.96446482  0.88083174  0.00858207  1  0  0.095253  0  0.965086  0  0  0.104729  0  1.031293  0  0  0.106837  0  1.03164  0  0  0.100938  0.103181  0  1.03118  0
H  H40  1  0.19244850  0.37184740  0.59519114  1  0  0.08976  0  0.959285  0  0  0.10353  0  1.016619  0  0  0.105378  0  1.016841  0  0  0.10052  0.102187  0  1.016564  0
H  H41  1  0.80754621  0.12815910  0.09519262  1  0  0.089678  0  0.959238  0  0  0.103446  0  1.016592  0  0  0.105291  0  1.01682  0  0  0.100472  0.102102  0  1.016537  0
H  H42  1  0.80754961  0.62815808  0.40481312  1  0  0.089745  0  0.959202  0  0  0.103477  0  1.01659  0  0  0.105329  0  1.016805  0  0  0.100494  0.102134  0  1.016534  0
H  H43  1  0.19246674  0.87183813  0.90481114  1  0  0.089715  0  0.959194  0  0  0.103419  0  1.016622  0  0  0.105272  0  1.016836  0  0  0.100483  0.10208  0  1.01656  0
H  H44  1  0.00389813  0.26033725  0.68836400  1  0  0.081946  0  0.982279  0  0  0.09259  0  1.04534  0  0  0.094427  0  1.046145  0  0  0.093141  0.091241  0  1.044916  0
H  H45  1  0.99612529  0.23966644  0.18836028  1  0  0.081997  0  0.982211  0  0  0.092606  0  1.045309  0  0  0.094445  0  1.04611  0  0  0.093156  0.091256  0  1.04489  0
H  H46  1  0.99608555  0.73966974  0.31163782  1  0  0.082044  0  0.982181  0  0  0.092611  0  1.045344  0  0  0.094449  0  1.046147  0  0  0.093179  0.091266  0  1.044915  0
H  H47  1  0.00391078  0.76032685  0.81164251  1  0  0.082135  0  0.982193  0  0  0.092695  0  1.04535  0  0  0.094531  0  1.046156  0  0  0.093203  0.09135  0  1.044923  0
H  H48  1  0.57893260  0.15402447  0.67605054  1  0  0.081637  0  0.968662  0  0  0.094426  0  1.028387  0  0  0.096598  0  1.028141  0  0  0.098138  0.092829  0  1.028671  0
H  H49  1  0.42108757  0.34598117  0.17604020  1  0  0.081657  0  0.968638  0  0  0.094446  0  1.028381  0  0  0.096604  0  1.028149  0  0  0.098136  0.092842  0  1.028671  0
H  H50  1  0.42104643  0.84598667  0.32394786  1  0  0.081644  0  0.968485  0  0  0.09438  0  1.028288  0  0  0.096572  0  1.028029  0  0  0.098109  0.092777  0  1.028578  0
H  H51  1  0.57895262  0.65400545  0.82395528  1  0  0.081609  0  0.968505  0  0  0.094418  0  1.028244  0  0  0.096561  0  1.028037  0  0  0.098084  0.092815  0  1.028531  0
H  H52  1  0.34147057  0.17160744  0.57423380  1  0  0.078009  0  1.00005  0  0  0.086934  0  1.067505  0  0  0.090487  0  1.065293  0  0  0.096919  0.084393  0  1.069117  0
H  H53  1  0.65853043  0.32839376  0.07422244  1  0  0.077992  0  0.999949  0  0  0.086894  0  1.067464  0  0  0.090451  0  1.065247  0  0  0.09686  0.084351  0  1.069077  0
H  H54  1  0.65852150  0.82841309  0.42576508  1  0  0.078112  0  1.000051  0  0  0.087025  0  1.0675  0  0  0.090575  0  1.065293  0  0  0.096937  0.084484  0  1.069118  0
H  H55  1  0.34148766  0.67158421  0.92577401  1  0  0.078112  0  0.999855  0  0  0.087006  0  1.06735  0  0  0.090565  0  1.065131  0  0  0.096879  0.084455  0  1.068976  0
C  C56  1  0.30764923  0.21463074  0.43626093  1  0  0.289981  0  3.891912  0  0  0.276671  0  4.153366  0  0  0.29154  0  4.168702  0  0  0.060382  0.266628  0  4.142445  0
C  C57  1  0.69232284  0.28537639  0.93625304  1  0  0.290064  0  3.891569  0  0  0.276704  0  4.153107  0  0  0.291575  0  4.168442  0  0  0.060444  0.266658  0  4.142205  0
C  C58  1  0.69231971  0.78539373  0.56373942  1  0  0.290062  0  3.891252  0  0  0.276597  0  4.152884  0  0  0.291461  0  4.168224  0  0  0.060503  0.266562  0  4.141958  0
C  C59  1  0.30767088  0.71459963  0.06374097  1  0  0.29025  0  3.891437  0  0  0.276746  0  4.153191  0  0  0.291614  0  4.168536  0  0  0.060514  0.266702  0  4.142271  0
C  C60  1  0.17312397  0.25088300  0.38057867  1  0  -0.1062  0  3.761943  0  0  -0.091307  0  3.997613  0  0  -0.099075  0  4.023923  0  0  -0.043817  -0.08616  0  3.979736  0
C  C61  1  0.82688008  0.24912669  0.88057424  1  0  -0.106145  0  3.76171  0  0  -0.091238  0  3.997269  0  0  -0.099002  0  4.023573  0  0  -0.043798  -0.086096  0  3.979398  0
C  C62  1  0.82688931  0.74914196  0.61942754  1  0  -0.106473  0  3.761863  0  0  -0.091587  0  3.997525  0  0  -0.099347  0  4.023828  0  0  -0.043915  -0.086452  0  3.979649  0
C  C63  1  0.17311811  0.75084435  0.11941879  1  0  -0.106535  0  3.762  0  0  -0.091544  0  3.997613  0  0  -0.099321  0  4.023932  0  0  -0.043814  -0.086397  0  3.979734  0
C  C64  1  0.20649734  0.36404050  0.36094844  1  0  -0.090704  0  3.801904  0  0  -0.110784  0  4.051158  0  0  -0.108861  0  4.07104  0  0  -0.099841  -0.11163  0  4.037246  0
C  C65  1  0.79349743  0.13596873  0.86094695  1  0  -0.090569  0  3.801779  0  0  -0.110651  0  4.051039  0  0  -0.108725  0  4.070915  0  0  -0.09986  -0.111492  0  4.037115  0
C  C66  1  0.79349300  0.63598925  0.63905192  1  0  -0.09035  0  3.801666  0  0  -0.110344  0  4.050895  0  0  -0.108421  0  4.070773  0  0  -0.099723  -0.111192  0  4.036982  0
C  C67  1  0.20651994  0.86400588  0.13904706  1  0  -0.090357  0  3.801395  0  0  -0.110289  0  4.050624  0  0  -0.108363  0  4.070514  0  0  -0.099764  -0.111135  0  4.036697  0
C  C68  1  0.37779176  0.44366056  0.39084413  1  0  -0.130284  0  3.864736  0  0  -0.145833  0  4.125846  0  0  -0.152122  0  4.149001  0  0  -0.124696  -0.141662  0  4.109906  0
C  C69  1  0.62221448  0.05634218  0.89084510  1  0  -0.130331  0  3.864636  0  0  -0.145853  0  4.125769  0  0  -0.152143  0  4.148921  0  0  -0.124691  -0.141681  0  4.109828  0
C  C70  1  0.62220549  0.55635835  0.60915671  1  0  -0.130304  0  3.864987  0  0  -0.145841  0  4.1261  0  0  -0.152131  0  4.149257  0  0  -0.12459  -0.141666  0  4.110159  0
C  C71  1  0.37778954  0.94363899  0.10915623  1  0  -0.130473  0  3.865244  0  0  -0.146039  0  4.126334  0  0  -0.152326  0  4.149493  0  0  -0.124691  -0.141856  0  4.110382  0
C  C72  1  0.51985674  0.40892549  0.44175827  1  0  -0.086125  0  3.798687  0  0  -0.108484  0  4.051399  0  0  -0.106072  0  4.071041  0  0  -0.096092  -0.109712  0  4.037741  0
C  C73  1  0.48014342  0.09107509  0.94175431  1  0  -0.086027  0  3.798509  0  0  -0.108436  0  4.051208  0  0  -0.106023  0  4.070854  0  0  -0.096087  -0.109664  0  4.03755  0
C  C74  1  0.48015750  0.59109528  0.55824599  1  0  -0.086221  0  3.798773  0  0  -0.108644  0  4.051392  0  0  -0.10623  0  4.071035  0  0  -0.096078  -0.109869  0  4.03773  0
C  C75  1  0.51985679  0.90889680  0.05824458  1  0  -0.08635  0  3.798641  0  0  -0.108701  0  4.051314  0  0  -0.106288  0  4.07096  0  0  -0.096061  -0.109921  0  4.037642  0
C  C76  1  0.48621447  0.29861784  0.46619562  1  0  -0.111057  0  3.763249  0  0  -0.096314  0  3.99962  0  0  -0.104161  0  4.025726  0  0  -0.044589  -0.091126  0  3.981935  0
C  C77  1  0.51377717  0.20138625  0.96619076  1  0  -0.11131  0  3.762934  0  0  -0.096566  0  3.999383  0  0  -0.104443  0  4.025473  0  0  -0.044709  -0.091358  0  3.981705  0
C  C78  1  0.51378283  0.70141871  0.53380961  1  0  -0.111335  0  3.763125  0  0  -0.096405  0  3.99947  0  0  -0.104278  0  4.025579  0  0  -0.044847  -0.091197  0  3.98178  0
C  C79  1  0.48623341  0.79858239  0.03380471  1  0  -0.111264  0  3.763113  0  0  -0.096539  0  3.999771  0  0  -0.104405  0  4.025877  0  0  -0.044913  -0.091332  0  3.982093  0
C  C80  1  0.99897427  0.17284923  0.34150389  1  0  0.038998  0  3.830598  0  0  0.055965  0  4.058098  0  0  0.057988  0  4.081245  0  0  -0.043341  0.054534  0  4.042505  0
C  C81  1  0.00103488  0.32715811  0.84149992  1  0  0.038802  0  3.830872  0  0  0.055918  0  4.058168  0  0  0.057943  0  4.081294  0  0  -0.043447  0.054488  0  4.042579  0
C  C82  1  0.00100558  0.82717452  0.65849988  1  0  0.038823  0  3.831115  0  0  0.055944  0  4.058386  0  0  0.057975  0  4.081507  0  0  -0.043546  0.054522  0  4.042784  0
C  C83  1  0.99897915  0.67281813  0.15849555  1  0  0.038938  0  3.831096  0  0  0.055976  0  4.058437  0  0  0.058011  0  4.08156  0  0  -0.043564  0.05455  0  4.042838  0
C  C84  1  0.78291280  0.20954109  0.31427310  1  0  -0.145561  0  3.751863  0  0  -0.164584  0  4.001613  0  0  -0.167829  0  4.022751  0  0  -0.101205  -0.162348  0  3.98734  0
C  C85  1  0.21708291  0.29046341  0.81427051  1  0  -0.145372  0  3.751629  0  0  -0.164498  0  4.001347  0  0  -0.16769  0  4.022521  0  0  -0.101156  -0.162263  0  3.98708  0
C  C86  1  0.21707189  0.79047936  0.68573603  1  0  -0.145274  0  3.75156  0  0  -0.164375  0  4.001297  0  0  -0.167552  0  4.022443  0  0  -0.101042  -0.16219  0  3.987013  0
C  C87  1  0.78292189  0.70951273  0.18573034  1  0  -0.145139  0  3.751638  0  0  -0.164211  0  4.001337  0  0  -0.167389  0  4.022483  0  0  -0.10093  -0.162032  0  3.98707  0
C  C88  1  0.62736219  0.14003447  0.27310887  1  0  -0.061738  0  3.782916  0  0  -0.073482  0  4.030891  0  0  -0.074529  0  4.051748  0  0  -0.091255  -0.072734  0  4.016739  0
C  C89  1  0.37264674  0.35997118  0.77310744  1  0  -0.06169  0  3.782823  0  0  -0.073425  0  4.030791  0  0  -0.074467  0  4.051625  0  0  -0.091238  -0.072675  0  4.016627  0
C  C90  1  0.37259174  0.85999740  0.72689685  1  0  -0.061447  0  3.782707  0  0  -0.073232  0  4.03067  0  0  -0.074272  0  4.051509  0  0  -0.091102  -0.072481  0  4.016519  0
C  C91  1  0.62739048  0.63999272  0.22689389  1  0  -0.061633  0  3.782972  0  0  -0.073378  0  4.030986  0  0  -0.074418  0  4.051825  0  0  -0.091108  -0.072632  0  4.016833  0
C  C92  1  0.67986121  0.03104515  0.25886754  1  0  -0.089192  0  3.783032  0  0  -0.101966  0  4.02842  0  0  -0.104103  0  4.049378  0  0  -0.099027  -0.100461  0  4.014156  0
C  C93  1  0.32017272  0.46896533  0.75886734  1  0  -0.089796  0  3.783157  0  0  -0.102559  0  4.028535  0  0  -0.104695  0  4.04949  0  0  -0.099242  -0.101042  0  4.014272  0
C  C94  1  0.32010141  0.96898430  0.74113915  1  0  -0.090071  0  3.783651  0  0  -0.102765  0  4.029017  0  0  -0.104898  0  4.049966  0  0  -0.099256  -0.101258  0  4.014768  0
C  C95  1  0.67985687  0.53100604  0.24113252  1  0  -0.0899  0  3.783594  0  0  -0.102609  0  4.028974  0  0  -0.104742  0  4.049919  0  0  -0.099239  -0.101086  0  4.014705  0
C  C96  1  0.88875566  0.99238283  0.28676106  1  0  -0.083881  0  3.817889  0  0  -0.093789  0  4.061675  0  0  -0.095775  0  4.083714  0  0  -0.099899  -0.092332  0  4.046621  0
C  C97  1  0.11127272  0.50762564  0.78675937  1  0  -0.083658  0  3.81755  0  0  -0.093519  0  4.061277  0  0  -0.095507  0  4.083315  0  0  -0.099848  -0.092072  0  4.046231  0
C  C98  1  0.11120870  0.00763739  0.71323880  1  0  -0.083576  0  3.817142  0  0  -0.093478  0  4.060931  0  0  -0.095473  0  4.082981  0  0  -0.099796  -0.092051  0  4.045903  0
C  C99  1  0.88875055  0.49235070  0.21323415  1  0  -0.08355  0  3.817175  0  0  -0.093427  0  4.060948  0  0  -0.095413  0  4.082987  0  0  -0.099831  -0.091973  0  4.045885  0
C  C100  1  0.04640762  0.06188144  0.32743870  1  0  -0.157559  0  3.79462  0  0  -0.17406  0  4.038787  0  0  -0.176372  0  4.057943  0  0  -0.117791  -0.17247  0  4.025872  0
C  C101  1  0.95361290  0.43812721  0.82743257  1  0  -0.157659  0  3.79481  0  0  -0.174267  0  4.038994  0  0  -0.176558  0  4.058134  0  0  -0.117807  -0.172678  0  4.026088  0
C  C102  1  0.95356384  0.93812878  0.67255971  1  0  -0.15745  0  3.794522  0  0  -0.174117  0  4.038621  0  0  -0.176443  0  4.057792  0  0  -0.117756  -0.172512  0  4.025686  0
C  C103  1  0.04640423  0.56185495  0.17255558  1  0  -0.157625  0  3.794865  0  0  -0.17419  0  4.038981  0  0  -0.176518  0  4.058151  0  0  -0.117792  -0.172586  0  4.026049  0
C  C104  1  0.63339145  0.27710712  0.52484926  1  0  0.038527  0  3.825602  0  0  0.055917  0  4.053574  0  0  0.057994  0  4.076538  0  0  -0.035685  0.054423  0  4.038144  0
C  C105  1  0.36660269  0.22289605  0.02484447  1  0  0.038576  0  3.825757  0  0  0.055958  0  4.053753  0  0  0.058122  0  4.076604  0  0  -0.035633  0.054414  0  4.038385  0
C  C106  1  0.36659526  0.72291419  0.47515207  1  0  0.038639  0  3.825468  0  0  0.055801  0  4.053679  0  0  0.057929  0  4.076584  0  0  -0.035692  0.054261  0  4.038308  0
C  C107  1  0.63340705  0.77708602  0.97515490  1  0  0.038816  0  3.825556  0  0  0.056038  0  4.053792  0  0  0.058156  0  4.076712  0  0  -0.035616  0.054492  0  4.038425  0
C  C108  1  0.87720034  0.33220323  0.53207779  1  0  -0.126142  0  3.732037  0  0  -0.145845  0  3.982165  0  0  -0.148936  0  4.00334  0  0  -0.093356  -0.143754  0  3.967941  0
C  C109  1  0.12279596  0.16780147  0.03207500  1  0  -0.126237  0  3.732239  0  0  -0.145939  0  3.982397  0  0  -0.149058  0  4.003553  0  0  -0.093376  -0.143839  0  3.968191  0
C  C110  1  0.12279948  0.66781906  0.46792695  1  0  -0.126144  0  3.732263  0  0  -0.14577  0  3.982459  0  0  -0.148876  0  4.003616  0  0  -0.093342  -0.143664  0  3.968244  0
C  C111  1  0.87720991  0.83217973  0.96792633  1  0  -0.126292  0  3.732133  0  0  -0.145893  0  3.982295  0  0  -0.148997  0  4.003457  0  0  -0.093341  -0.143788  0  3.968087  0
C  C112  1  0.00718561  0.32631586  0.59035983  1  0  -0.057653  0  3.773559  0  0  -0.069588  0  4.019813  0  0  -0.070576  0  4.040913  0  0  -0.087318  -0.068891  0  4.005514  0
C  C113  1  0.99282082  0.17368500  0.09035740  1  0  -0.057476  0  3.773402  0  0  -0.069403  0  4.019651  0  0  -0.070394  0  4.040763  0  0  -0.087232  -0.068699  0  4.00535  0
C  C114  1  0.99281058  0.67369799  0.40964248  1  0  -0.057538  0  3.773542  0  0  -0.069477  0  4.019824  0  0  -0.070463  0  4.040924  0  0  -0.087288  -0.068778  0  4.005524  0
C  C115  1  0.00719351  0.82630133  0.90964149  1  0  -0.057473  0  3.77357  0  0  -0.069382  0  4.01984  0  0  -0.070369  0  4.040946  0  0  -0.08728  -0.068682  0  4.005541  0
C  C116  1  0.90177127  0.26273372  0.64267037  1  0  -0.085472  0  3.77496  0  0  -0.09778  0  4.019122  0  0  -0.100178  0  4.040802  0  0  -0.096074  -0.096085  0  4.004355  0
C  C117  1  0.09823937  0.23727011  0.14266609  1  0  -0.085545  0  3.774788  0  0  -0.097827  0  4.018964  0  0  -0.100227  0  4.040642  0  0  -0.096109  -0.096137  0  4.004203  0
C  C118  1  0.09820669  0.73727237  0.35733340  1  0  -0.085737  0  3.774977  0  0  -0.097977  0  4.019154  0  0  -0.10038  0  4.040841  0  0  -0.096227  -0.096287  0  4.004391  0
C  C119  1  0.90179539  0.76272569  0.85733427  1  0  -0.085824  0  3.775045  0  0  -0.098063  0  4.019213  0  0  -0.100461  0  4.040889  0  0  -0.096231  -0.096371  0  4.004445  0
C  C120  1  0.66463426  0.20405016  0.63571612  1  0  -0.08081  0  3.814236  0  0  -0.090565  0  4.060158  0  0  -0.092049  0  4.08122  0  0  -0.093985  -0.089461  0  4.045775  0
C  C121  1  0.33537368  0.29594961  0.13570923  1  0  -0.080799  0  3.813979  0  0  -0.090541  0  4.059881  0  0  -0.092017  0  4.080962  0  0  -0.093958  -0.089428  0  4.045496  0
C  C122  1  0.33535620  0.79596279  0.36428716  1  0  -0.080641  0  3.814044  0  0  -0.090331  0  4.059897  0  0  -0.091838  0  4.080962  0  0  -0.093817  -0.089219  0  4.045515  0
C  C123  1  0.66465190  0.70403769  0.86429112  1  0  -0.080627  0  3.81403  0  0  -0.090392  0  4.059916  0  0  -0.091847  0  4.080975  0  0  -0.093787  -0.089276  0  4.045522  0
C  C124  1  0.53219734  0.21120368  0.57772142  1  0  -0.163422  0  3.808753  0  0  -0.18089  0  4.054947  0  0  -0.183007  0  4.073483  0  0  -0.111242  -0.17939  0  4.042421  0
C  C125  1  0.46780179  0.28879742  0.07771038  1  0  -0.163347  0  3.808735  0  0  -0.180796  0  4.054927  0  0  -0.182943  0  4.073434  0  0  -0.111207  -0.179285  0  4.042416  0
C  C126  1  0.46779509  0.78881853  0.42227746  1  0  -0.163659  0  3.809039  0  0  -0.181047  0  4.055268  0  0  -0.18318  0  4.073794  0  0  -0.111317  -0.179541  0  4.042768  0
C  C127  1  0.53221587  0.71118727  0.92228558  1  0  -0.163624  0  3.809043  0  0  -0.181004  0  4.055292  0  0  -0.183133  0  4.073804  0  0  -0.111262  -0.179488  0  4.042795  0
O  O128  1  0.27022817  0.11069705  0.45848442  1  0  -0.82869  0  2.035611  0  0  -0.773589  0  2.281724  0  0  -0.797338  0  2.278133  0  0  -0.591457  -0.756207  0  2.283372  0
O  O129  1  0.72972949  0.38931190  0.95847044  1  0  -0.828711  0  2.035653  0  0  -0.773568  0  2.281749  0  0  -0.797309  0  2.278144  0  0  -0.591484  -0.7562  0  2.283412  0
O  O130  1  0.72973577  0.88932989  0.54152520  1  0  -0.828525  0  2.035407  0  0  -0.773349  0  2.281545  0  0  -0.797111  0  2.277995  0  0  -0.591416  -0.755973  0  2.283193  0
O  O131  1  0.27026785  0.61067256  0.04152259  1  0  -0.828657  0  2.035571  0  0  -0.773427  0  2.281694  0  0  -0.797184  0  2.278138  0  0  -0.591398  -0.756052  0  2.283342  0
