# generated using pymatgen
data_LuH14(C6O5)2
_symmetry_space_group_name_H-M   'P 1'
_cell_length_a   7.27855928
_cell_length_b   9.65110790
_cell_length_c   10.44921009
_cell_angle_alpha   87.58490823
_cell_angle_beta   79.63370280
_cell_angle_gamma   82.69232098
_symmetry_Int_Tables_number   1
_chemical_formula_structural   LuH14(C6O5)2
_chemical_formula_sum   'Lu2 H28 C24 O20'
_cell_volume   716.03167303
_cell_formula_units_Z   2
loop_
 _symmetry_equiv_pos_site_id
 _symmetry_equiv_pos_as_xyz
  1  'x, y, z'
loop_
 _atom_site_type_symbol
 _atom_site_label
 _atom_site_symmetry_multiplicity
 _atom_site_fract_x
 _atom_site_fract_y
 _atom_site_fract_z
 _atom_site_occupancy
 _atom_site_pbe_bader_spin_density
 _atom_site_pbe_cm5_charge
 _atom_site_pbe_ddec_charge
 _atom_site_pbe_ddec_spin_density
 _atom_site_pbe_ddec_sum_bond_order
 _atom_site_pbe_magmom
Lu  Lu0  1  0.21355821  0.24687499  0.53918274  1  0  1.319031  1.702605  0  2.716695  0
Lu  Lu1  1  0.78644318  0.75312748  0.46081836  1  0  1.319025  1.702707  0  2.716539  0
H  H2  1  0.32040456  0.59123425  0.16888237  1  0  0.103376  0.107703  0  1.02238  0
H  H3  1  0.67959338  0.40877455  0.83111504  1  0  0.10345  0.107767  0  1.022332  0
H  H4  1  0.31381282  0.66181832  0.93546833  1  0  0.10058  0.097793  0  1.035996  0
H  H5  1  0.68616747  0.33818775  0.06452539  1  0  0.100588  0.097769  0  1.035999  0
H  H6  1  0.13734963  0.26860743  0.86835393  1  0  0.10292  0.101266  0  1.061922  0
H  H7  1  0.86265561  0.73139703  0.13164954  1  0  0.10288  0.101164  0  1.062056  0
H  H8  1  0.14741227  0.19590989  0.10036470  1  0  0.09994  0.100194  0  1.014872  0
H  H9  1  0.85259739  0.80409240  0.89963933  1  0  0.099927  0.100194  0  1.01493  0
H  H10  1  0.29030537  0.92785101  0.85773809  1  0  0.109054  0.111666  0  0.994919  0
H  H11  1  0.70969040  0.07212972  0.14226157  1  0  0.109142  0.111738  0  0.994912  0
H  H12  1  0.71493916  0.17702795  0.91911468  1  0  0.106586  0.101716  0  1.044049  0
H  H13  1  0.28504970  0.82296231  0.08089017  1  0  0.106552  0.101678  0  1.044205  0
H  H14  1  0.58913823  0.23875016  0.55079698  1  0  0.301423  0.373558  0  0.981965  0
H  H15  1  0.41085999  0.76124405  0.44920478  1  0  0.301416  0.373575  0  0.981949  0
H  H16  1  0.60390022  0.29019468  0.39929525  1  0  0.306981  0.404974  0  0.922097  0
H  H17  1  0.39609885  0.70980368  0.60070722  1  0  0.306988  0.404972  0  0.922102  0
H  H18  1  0.30362136  0.93796185  0.53869148  1  0  0.315016  0.404416  0  0.918128  0
H  H19  1  0.69639191  0.06203618  0.46130370  1  0  0.314969  0.404369  0  0.918152  0
H  H20  1  0.19184306  0.98154161  0.42555542  1  0  0.328426  0.405329  0  0.894974  0
H  H21  1  0.80815556  0.01845988  0.57444889  1  0  0.328365  0.405339  0  0.894985  0
H  H22  1  0.84923949  0.42078433  0.56536290  1  0  0.310291  0.407219  0  0.922192  0
H  H23  1  0.15076826  0.57922424  0.43463344  1  0  0.310252  0.407196  0  0.922206  0
H  H24  1  0.87292141  0.35004614  0.42736754  1  0  0.302791  0.384235  0  0.958453  0
H  H25  1  0.12707689  0.64995952  0.57263091  1  0  0.302787  0.384212  0  0.958495  0
H  H26  1  0.03152783  0.08782459  0.75324749  1  0  0.330462  0.404334  0  0.876346  0
H  H27  1  0.96847199  0.91217062  0.24674353  1  0  0.330361  0.404243  0  0.876496  0
H  H28  1  0.84972122  0.18279636  0.71445473  1  0  0.297913  0.38528  0  0.963934  0
H  H29  1  0.15027530  0.81720102  0.28554423  1  0  0.297966  0.385355  0  0.963803  0
C  C30  1  0.23962649  0.34224064  0.28542091  1  0  0.205477  0.576605  0  4.16666  0
C  C31  1  0.76038110  0.65776898  0.71457637  1  0  0.205675  0.57696  0  4.166547  0
C  C32  1  0.23525349  0.38858232  0.14812816  1  0  -0.015498  -0.037454  0  3.966263  0
C  C33  1  0.76476038  0.61142195  0.85186767  1  0  -0.015537  -0.037554  0  3.966336  0
C  C34  1  0.27988120  0.52117748  0.10256542  1  0  -0.079385  -0.084618  0  3.940999  0
C  C35  1  0.72012817  0.47882898  0.89743178  1  0  -0.079506  -0.084709  0  3.941286  0
C  C36  1  0.27616840  0.56051060  0.97320425  1  0  -0.082674  -0.091499  0  3.971848  0
C  C37  1  0.72382608  0.43949307  0.02679087  1  0  -0.082617  -0.091374  0  3.971714  0
C  C38  1  0.22860841  0.46868165  0.88749208  1  0  -0.010803  -0.035721  0  3.943214  0
C  C39  1  0.77140167  0.53131854  0.11250719  1  0  -0.010789  -0.035805  0  3.94311  0
C  C40  1  0.22869885  0.50989680  0.74727909  1  0  0.23745  0.623375  0  4.135591  0
C  C41  1  0.77130133  0.49010465  0.25272027  1  0  0.237338  0.623241  0  4.135839  0
C  C42  1  0.18027165  0.33747318  0.93418504  1  0  -0.08329  -0.096244  0  3.970188  0
C  C43  1  0.81973821  0.66253014  0.06580936  1  0  -0.083217  -0.096067  0  3.970342  0
C  C44  1  0.18434453  0.29767451  0.06305966  1  0  -0.082046  -0.082923  0  3.967236  0
C  C45  1  0.81566364  0.70232989  0.93693967  1  0  -0.082022  -0.082884  0  3.967393  0
C  C46  1  0.49703891  0.12798068  0.74635544  1  0  0.231266  0.590444  0  4.169335  0
C  C47  1  0.50295660  0.87201151  0.25365148  1  0  0.231302  0.590547  0  4.16899  0
C  C48  1  0.50244254  0.05890145  0.87574321  1  0  -0.010929  -0.032791  0  3.989092  0
C  C49  1  0.49754534  0.94108571  0.12426091  1  0  -0.010922  -0.032686  0  3.989  0
C  C50  1  0.38020197  0.95977440  0.92125893  1  0  -0.076844  -0.080807  0  3.954633  0
C  C51  1  0.61979192  0.04020950  0.07874369  1  0  -0.077022  -0.081036  0  3.954715  0
C  C52  1  0.62250131  0.09836035  0.95476642  1  0  -0.083277  -0.101557  0  3.972604  0
C  C53  1  0.37748657  0.90162576  0.04524157  1  0  -0.083319  -0.1017  0  3.972742  0
O  O54  1  0.21656938  0.21580413  0.32033044  1  0  -0.379398  -0.587985  0  2.192621  0
O  O55  1  0.78343238  0.78420666  0.67967031  1  0  -0.379512  -0.588168  0  2.192649  0
O  O56  1  0.26514070  0.42706410  0.37034498  1  0  -0.344946  -0.593465  0  2.247573  0
O  O57  1  0.73487141  0.57294333  0.62964997  1  0  -0.34501  -0.59363  0  2.247503  0
O  O58  1  0.22127014  0.41421217  0.66779943  1  0  -0.415316  -0.621743  0  2.358375  0
O  O59  1  0.77872262  0.58579258  0.33220158  1  0  -0.415268  -0.6217  0  2.358391  0
O  O60  1  0.23278605  0.63739058  0.71260449  1  0  -0.308865  -0.561854  0  2.179901  0
O  O61  1  0.76721126  0.36261094  0.28739709  1  0  -0.308865  -0.561831  0  2.179951  0
O  O62  1  0.35719737  0.11574757  0.69235525  1  0  -0.362284  -0.579381  0  2.334366  0
O  O63  1  0.64280274  0.88425389  0.30764603  1  0  -0.362256  -0.579421  0  2.334156  0
O  O64  1  0.63112355  0.19828036  0.69578448  1  0  -0.303296  -0.562917  0  2.285453  0
O  O65  1  0.36887056  0.80171187  0.30422259  1  0  -0.303359  -0.56303  0  2.285427  0
O  O66  1  0.53776708  0.22968186  0.46778870  1  0  -0.612182  -0.794919  0  2.160045  0
O  O67  1  0.46223218  0.77031545  0.53221187  1  0  -0.61217  -0.794926  0  2.160004  0
O  O68  1  0.20980286  0.01074539  0.51007848  1  0  -0.615977  -0.76978  0  2.140308  0
O  O69  1  0.79020971  0.98925683  0.48992236  1  0  -0.615862  -0.769741  0  2.140391  0
O  O70  1  0.91816630  0.34047252  0.51239727  1  0  -0.632324  -0.789875  0  2.139432  0
O  O71  1  0.08183826  0.65953925  0.48759931  1  0  -0.632272  -0.789831  0  2.13927  0
O  O72  1  0.98839518  0.17711597  0.71555633  1  0  -0.60958  -0.777085  0  2.155193  0
O  O73  1  0.01160197  0.82287826  0.28443501  1  0  -0.609525  -0.777024  0  2.155193  0
