# generated using pymatgen
data_SnH16C20SCl2O5
_symmetry_space_group_name_H-M   'P 1'
_cell_length_a   8.77195771
_cell_length_b   16.03709534
_cell_length_c   17.62225718
_cell_angle_alpha   89.99987227
_cell_angle_beta   89.99993645
_cell_angle_gamma   90.00006368
_symmetry_Int_Tables_number   1
_chemical_formula_structural   SnH16C20SCl2O5
_chemical_formula_sum   'Sn4 H64 C80 S4 Cl8 O20'
_cell_volume   2479.04137580
_cell_formula_units_Z   4
loop_
 _symmetry_equiv_pos_site_id
 _symmetry_equiv_pos_as_xyz
  1  'x, y, z'
loop_
 _atom_site_type_symbol
 _atom_site_label
 _atom_site_symmetry_multiplicity
 _atom_site_fract_x
 _atom_site_fract_y
 _atom_site_fract_z
 _atom_site_occupancy
 _atom_site_pbe_bader_charge
 _atom_site_pbe_bader_spin_density
 _atom_site_pbe_cm5_charge
 _atom_site_pbe_ddec_charge
 _atom_site_pbe_ddec_spin_density
 _atom_site_pbe_ddec_sum_bond_order
 _atom_site_pbe_magmom
Sn  Sn0  1  0.88271523  0.87486731  0.70824469  1  1.953681  0  0.612528  1.171819  0  3.395855  0
Sn  Sn1  1  0.61728399  0.12513669  0.20824487  1  1.953647  0  0.612569  1.171903  0  3.395765  0
Sn  Sn2  1  0.11728232  0.37486807  0.79175457  1  1.953634  0  0.612532  1.171838  0  3.39581  0
Sn  Sn3  1  0.38271760  0.62513416  0.29175360  1  1.953622  0  0.612574  1.171901  0  3.395743  0
H  H4  1  0.97703161  0.69970979  0.62762917  1  0.02936  0  0.09425  0.085881  0  1.03967  0
H  H5  1  0.52297805  0.30029317  0.12762735  1  0.029314  0  0.094239  0.085834  0  1.039676  0
H  H6  1  0.02297472  0.19971029  0.87237101  1  0.029376  0  0.094249  0.085873  0  1.039637  0
H  H7  1  0.47702958  0.80028925  0.37237076  1  0.029379  0  0.094241  0.085867  0  1.039656  0
H  H8  1  0.03413181  0.95933825  0.56750464  1  0.054159  0  0.098019  0.091756  0  1.027497  0
H  H9  1  0.46586860  0.04066391  0.06750707  1  0.054328  0  0.098052  0.091778  0  1.027467  0
H  H10  1  0.96586591  0.45933858  0.93249445  1  0.054167  0  0.09802  0.091768  0  1.027463  0
H  H11  1  0.53413396  0.54066051  0.43249441  1  0.054134  0  0.097998  0.091721  0  1.027512  0
H  H12  1  0.69924104  0.03512034  0.77479836  1  0.079465  0  0.086032  0.079122  0  1.07307  0
H  H13  1  0.80075462  0.96487788  0.27479731  1  0.079424  0  0.086036  0.079146  0  1.07303  0
H  H14  1  0.30076155  0.53511980  0.72520102  1  0.079473  0  0.086009  0.079093  0  1.072995  0
H  H15  1  0.19923966  0.46487886  0.22520218  1  0.079435  0  0.086028  0.079114  0  1.073065  0
H  H16  1  0.88561400  0.81256655  0.87790974  1  0.087765  0  0.095931  0.094546  0  1.02486  0
H  H17  1  0.61438371  0.18743205  0.37790980  1  0.087796  0  0.095926  0.09453  0  1.02487  0
H  H18  1  0.11438800  0.31256710  0.62208852  1  0.087857  0  0.095929  0.094529  0  1.024894  0
H  H19  1  0.38561230  0.68743431  0.12208968  1  0.087772  0  0.095911  0.094504  0  1.024881  0
H  H20  1  0.16848161  0.91700845  0.45045380  1  0.058488  0  0.092999  0.088732  0  1.02518  0
H  H21  1  0.33151568  0.08299402  0.95045809  1  0.058549  0  0.093003  0.088749  0  1.025148  0
H  H22  1  0.83151713  0.41700589  0.04954464  1  0.058508  0  0.09301  0.088764  0  1.02515  0
H  H23  1  0.66848244  0.58299164  0.54954460  1  0.058472  0  0.092998  0.088747  0  1.025152  0
H  H24  1  0.11519558  0.65901900  0.51212552  1  0.081133  0  0.097873  0.096568  0  1.021884  0
H  H25  1  0.38481066  0.34098268  0.01212285  1  0.081257  0  0.097898  0.096584  0  1.02186  0
H  H26  1  0.88481181  0.15901851  0.98787418  1  0.081114  0  0.097863  0.096522  0  1.021958  0
H  H27  1  0.61519363  0.84098044  0.48787462  1  0.081138  0  0.097885  0.096565  0  1.021903  0
H  H28  1  0.20684009  0.76594249  0.42183956  1  0.093702  0  0.096918  0.099454  0  1.048685  0
H  H29  1  0.29315840  0.23405756  0.92184129  1  0.093734  0  0.096933  0.09944  0  1.048683  0
H  H30  1  0.79316291  0.26594108  0.07815919  1  0.093716  0  0.096921  0.099424  0  1.048733  0
H  H31  1  0.70684116  0.73405638  0.57815939  1  0.093736  0  0.096924  0.099456  0  1.048678  0
H  H32  1  0.63700513  0.08950346  0.90152045  1  0.072578  0  0.094475  0.094728  0  1.018356  0
H  H33  1  0.86298911  0.91049571  0.40151891  1  0.072477  0  0.094472  0.094765  0  1.018315  0
H  H34  1  0.36299871  0.58950389  0.59847996  1  0.072532  0  0.094462  0.094719  0  1.018348  0
H  H35  1  0.13699936  0.41049570  0.09848012  1  0.072522  0  0.094439  0.094658  0  1.018403  0
H  H36  1  0.37578395  0.79194578  0.60841377  1  0.092614  0  0.104712  0.169219  0  0.998167  0
H  H37  1  0.12421637  0.20805442  0.10841322  1  0.0926  0  0.104706  0.169206  0  0.998187  0
H  H38  1  0.62421800  0.29194599  0.89158849  1  0.092549  0  0.104705  0.169214  0  0.998211  0
H  H39  1  0.87578424  0.70805383  0.39158735  1  0.092588  0  0.104712  0.169209  0  0.998243  0
H  H40  1  0.27941201  0.82022445  0.69595477  1  0.137325  0  0.106833  0.178807  0  1.013362  0
H  H41  1  0.22058926  0.17977553  0.19595422  1  0.137177  0  0.106841  0.178822  0  1.013385  0
H  H42  1  0.72059000  0.32022431  0.80404801  1  0.137218  0  0.106844  0.178809  0  1.01342  0
H  H43  1  0.77941130  0.67977447  0.30404641  1  0.137202  0  0.106849  0.178817  0  1.013408  0
H  H44  1  0.44612843  0.75543284  0.69904066  1  0.090478  0  0.102965  0.165581  0  1.00467  0
H  H45  1  0.05387169  0.24456651  0.19904007  1  0.090485  0  0.102984  0.165607  0  1.004636  0
H  H46  1  0.55387231  0.25543323  0.80096168  1  0.090489  0  0.102985  0.165616  0  1.004666  0
H  H47  1  0.94612899  0.74456618  0.30096043  1  0.090487  0  0.102995  0.165628  0  1.004629  0
H  H48  1  0.70016068  0.00688050  0.01741981  1  0.086708  0  0.096984  0.099441  0  1.039746  0
H  H49  1  0.79983668  0.99311711  0.51741887  1  0.086698  0  0.096991  0.099481  0  1.039741  0
H  H50  1  0.29984523  0.50688119  0.48257947  1  0.086684  0  0.096992  0.09943  0  1.039791  0
H  H51  1  0.20015084  0.49311995  0.98258129  1  0.086552  0  0.096995  0.099407  0  1.039804  0
H  H52  1  0.49708792  0.02150267  0.61349843  1  0.110613  0  0.10422  0.16524  0  1.00083  0
H  H53  1  0.00291125  0.97849751  0.11349809  1  0.110628  0  0.104234  0.165247  0  1.000831  0
H  H54  1  0.50291236  0.52150249  0.88650438  1  0.110622  0  0.104222  0.165226  0  1.000859  0
H  H55  1  0.99708875  0.47849671  0.38650364  1  0.11063  0  0.104228  0.165245  0  1.000853  0
H  H56  1  0.30985128  0.97824630  0.62990064  1  0.094902  0  0.103112  0.167731  0  1.018268  0
H  H57  1  0.19014785  0.02175322  0.12990042  1  0.09491  0  0.103104  0.167717  0  1.018288  0
H  H58  1  0.69015104  0.47824660  0.87010239  1  0.094904  0  0.103118  0.16774  0  1.018191  0
H  H59  1  0.80985125  0.52175264  0.37010166  1  0.094927  0  0.103102  0.167738  0  1.018251  0
H  H60  1  0.43053932  0.93466123  0.55685325  1  0.095341  0  0.10893  0.170836  0  0.984401  0
H  H61  1  0.06946112  0.06533847  0.05685188  1  0.095316  0  0.108944  0.170871  0  0.984372  0
H  H62  1  0.56946064  0.43466065  0.94314986  1  0.095535  0  0.108957  0.170885  0  0.984309  0
H  H63  1  0.93054035  0.56533841  0.44314898  1  0.095308  0  0.108934  0.170841  0  0.984354  0
H  H64  1  0.81731441  0.86659484  0.00400122  1  0.041468  0  0.086108  0.078557  0  1.052747  0
H  H65  1  0.68268412  0.13340343  0.50400208  1  0.04148  0  0.086102  0.078541  0  1.0527  0
H  H66  1  0.18268993  0.36659638  0.49599733  1  0.041515  0  0.086117  0.078572  0  1.052721  0
H  H67  1  0.31730497  0.63340535  0.99599824  1  0.041406  0  0.086106  0.078555  0  1.0527  0
C  C68  1  0.87900727  0.15124752  0.68968537  1  0.080827  0  -0.038122  -0.133886  0  4.090403  0
C  C69  1  0.62099085  0.84875216  0.18968409  1  0.08085  0  -0.038147  -0.133881  0  4.090446  0
C  C70  1  0.12099326  0.65124728  0.81031321  1  0.080872  0  -0.038121  -0.133833  0  4.09041  0
C  C71  1  0.37900890  0.34875367  0.31031450  1  0.080823  0  -0.038119  -0.133815  0  4.090445  0
C  C72  1  0.97675287  0.21220306  0.71973989  1  0.79713  0  0.119288  0.235704  0  4.116968  0
C  C73  1  0.52324519  0.78779592  0.21974049  1  0.796826  0  0.119295  0.235705  0  4.117012  0
C  C74  1  0.02324779  0.71220221  0.78025800  1  0.796767  0  0.119305  0.235739  0  4.116945  0
C  C75  1  0.47675330  0.28779756  0.28025936  1  0.797137  0  0.119304  0.235675  0  4.116978  0
C  C76  1  0.13721046  0.18680852  0.74548146  1  0.793511  0  0.114187  0.231735  0  4.123218  0
C  C77  1  0.36278842  0.81319071  0.24548182  1  0.793438  0  0.114191  0.231709  0  4.123316  0
C  C78  1  0.86279128  0.68681013  0.75451762  1  0.793475  0  0.114156  0.231676  0  4.123272  0
C  C79  1  0.63721012  0.31319127  0.25451798  1  0.793336  0  0.114168  0.231718  0  4.123229  0
C  C80  1  0.17983370  0.10256510  0.74639345  1  0.092434  0  -0.041499  -0.141846  0  4.095925  0
C  C81  1  0.32016403  0.89743476  0.24639309  1  0.092432  0  -0.041509  -0.141861  0  4.09601  0
C  C82  1  0.82016331  0.60256419  0.75360693  1  0.09229  0  -0.041493  -0.141841  0  4.09589  0
C  C83  1  0.67983695  0.39743534  0.25360653  1  0.092363  0  -0.041511  -0.141891  0  4.095987  0
C  C84  1  0.92404389  0.06738946  0.68777820  1  0.78625  0  0.116147  0.234348  0  4.114016  0
C  C85  1  0.57595538  0.93261086  0.18777677  1  0.786134  0  0.11616  0.23434  0  4.114093  0
C  C86  1  0.07595648  0.56738981  0.81222055  1  0.78621  0  0.116137  0.234393  0  4.114001  0
C  C87  1  0.42404567  0.43261051  0.31222165  1  0.786075  0  0.116148  0.234343  0  4.114082  0
C  C88  1  0.80107774  0.92034048  0.81654180  1  -0.281168  0  -0.098782  -0.249114  0  3.935102  0
C  C89  1  0.69892011  0.07965827  0.31654147  1  -0.281093  0  -0.098775  -0.249043  0  3.935003  0
C  C90  1  0.19892561  0.42034031  0.68345794  1  -0.281146  0  -0.098793  -0.249149  0  3.935176  0
C  C91  1  0.30107341  0.57966033  0.18345596  1  -0.280916  0  -0.098767  -0.249198  0  3.935242  0
C  C92  1  0.07674608  0.04072035  0.72259239  1  0.796416  0  0.117582  0.241434  0  4.112089  0
C  C93  1  0.42325057  0.95928018  0.22259128  1  0.796609  0  0.11761  0.241442  0  4.112183  0
C  C94  1  0.92325196  0.54072007  0.77740755  1  0.796426  0  0.117629  0.241434  0  4.112104  0
C  C95  1  0.57674939  0.45928002  0.27740822  1  0.796595  0  0.117627  0.2415  0  4.112128  0
C  C96  1  0.01896278  0.74865044  0.59011490  1  -0.061999  0  -0.094846  -0.069435  0  4.043773  0
C  C97  1  0.48104100  0.25135167  0.09011463  1  -0.062036  0  -0.094786  -0.069231  0  4.043711  0
C  C98  1  0.98103794  0.24865021  0.90988519  1  -0.062046  0  -0.094816  -0.069367  0  4.043736  0
C  C99  1  0.51896198  0.75134831  0.40988416  1  -0.061997  0  -0.09483  -0.069445  0  4.043834  0
C  C100  1  0.99525917  0.83317476  0.60643935  1  -0.366241  0  -0.092408  -0.230242  0  3.902687  0
C  C101  1  0.50474712  0.16682824  0.10644008  1  -0.366245  0  -0.092463  -0.230446  0  3.90291  0
C  C102  1  0.00474401  0.33317458  0.89356056  1  -0.366188  0  -0.092464  -0.230348  0  3.902778  0
C  C103  1  0.49525911  0.66682429  0.39355944  1  -0.366292  0  -0.092438  -0.230177  0  3.902636  0
C  C104  1  0.05108008  0.89325773  0.55598518  1  -0.039343  0  -0.093918  -0.068982  0  4.041181  0
C  C105  1  0.44892606  0.10674446  0.05598692  1  -0.039499  0  -0.093912  -0.068905  0  4.041067  0
C  C106  1  0.94892435  0.39325676  0.94401405  1  -0.039396  0  -0.093862  -0.068909  0  4.041144  0
C  C107  1  0.55107550  0.60674167  0.44401386  1  -0.039353  0  -0.093895  -0.068969  0  4.041129  0
C  C108  1  0.72891034  0.99793180  0.82434211  1  -0.097234  0  -0.107105  -0.092772  0  4.086494  0
C  C109  1  0.77108635  0.00206506  0.32434189  1  -0.097204  0  -0.10711  -0.092843  0  4.086578  0
C  C110  1  0.27109202  0.49793045  0.67565804  1  -0.097262  0  -0.107075  -0.092684  0  4.086518  0
C  C111  1  0.22890701  0.50206833  0.17565910  1  -0.097427  0  -0.107095  -0.092727  0  4.086539  0
C  C112  1  0.83053741  0.87319845  0.88184619  1  -0.112049  0  -0.095542  -0.057317  0  4.028661  0
C  C113  1  0.66946371  0.12680014  0.38184578  1  -0.112129  0  -0.095531  -0.057314  0  4.028678  0
C  C114  1  0.16946585  0.37319718  0.61815308  1  -0.112124  0  -0.095575  -0.057348  0  4.028624  0
C  C115  1  0.33053332  0.62680237  0.11815270  1  -0.112077  0  -0.095602  -0.0573  0  4.028718  0
C  C116  1  0.12755451  0.86951787  0.48980467  1  -0.051097  0  -0.096806  -0.088899  0  4.008941  0
C  C117  1  0.37245295  0.13048450  0.98980600  1  -0.051143  0  -0.096803  -0.088964  0  4.008897  0
C  C118  1  0.87244870  0.36951605  0.01019444  1  -0.051036  0  -0.09682  -0.08896  0  4.00901  0
C  C119  1  0.62755096  0.63048220  0.51019433  1  -0.051054  0  -0.096777  -0.088905  0  4.008914  0
C  C120  1  0.09642331  0.72487941  0.52428679  1  -0.072585  0  -0.093947  -0.08199  0  3.984065  0
C  C121  1  0.40358176  0.27512286  0.02428594  1  -0.072815  0  -0.094015  -0.082137  0  3.984173  0
C  C122  1  0.90358079  0.22487772  0.97571335  1  -0.072619  0  -0.09395  -0.08197  0  3.984165  0
C  C123  1  0.59642012  0.77512064  0.47571280  1  -0.072595  0  -0.093973  -0.082015  0  3.984193  0
C  C124  1  0.14979691  0.78523892  0.47371998  1  0.001715  0  -0.093505  -0.080388  0  3.994832  0
C  C125  1  0.35020944  0.21476349  0.97372115  1  0.00185  0  -0.093505  -0.080287  0  3.994851  0
C  C126  1  0.85020727  0.28523705  0.02627988  1  0.001726  0  -0.093505  -0.080336  0  3.994854  0
C  C127  1  0.64979350  0.71476116  0.52627901  1  0.001745  0  -0.093519  -0.080381  0  3.994833  0
C  C128  1  0.69237698  0.02887031  0.89628224  1  -0.059415  0  -0.099701  -0.079775  0  3.991337  0
C  C129  1  0.80762069  0.97112825  0.39628174  1  -0.059355  0  -0.099702  -0.079818  0  3.991403  0
C  C130  1  0.30762788  0.52887007  0.60371886  1  -0.059339  0  -0.099697  -0.079848  0  3.991302  0
C  C131  1  0.19236904  0.47112951  0.10372001  1  -0.059457  0  -0.099657  -0.079718  0  3.991356  0
C  C132  1  0.38920736  0.80650445  0.66883224  1  -0.222454  0  -0.228499  -0.493387  0  3.77315  0
C  C133  1  0.11079397  0.19349497  0.16883172  1  -0.222296  0  -0.228521  -0.493434  0  3.773153  0
C  C134  1  0.61079348  0.30650418  0.83117000  1  -0.221927  0  -0.228536  -0.493451  0  3.773245  0
C  C135  1  0.88920661  0.69349453  0.33116888  1  -0.22231  0  -0.228531  -0.493453  0  3.773265  0
C  C136  1  0.72598494  0.98242384  0.96118101  1  -0.085763  0  -0.095198  -0.079309  0  3.985692  0
C  C137  1  0.77400803  0.01757456  0.46118076  1  -0.085512  0  -0.095238  -0.079407  0  3.985723  0
C  C138  1  0.27401739  0.48242469  0.53881804  1  -0.08577  0  -0.095166  -0.079196  0  3.98555  0
C  C139  1  0.22597853  0.51757629  0.03881964  1  -0.0855  0  -0.09519  -0.079183  0  3.985654  0
C  C140  1  0.42726408  0.96482497  0.61265992  1  -0.223591  0  -0.226774  -0.495356  0  3.808159  0
C  C141  1  0.07273738  0.03517458  0.11265918  1  -0.223605  0  -0.226791  -0.495377  0  3.808077  0
C  C142  1  0.57273708  0.46482454  0.88734370  1  -0.223842  0  -0.226806  -0.495378  0  3.807871  0
C  C143  1  0.92726517  0.53517466  0.38734288  1  -0.223613  0  -0.226785  -0.49538  0  3.807989  0
C  C144  1  0.79309646  0.90394644  0.95367976  1  -0.001033  0  -0.098729  -0.07561  0  3.994365  0
C  C145  1  0.70690223  0.09605260  0.45367939  1  -0.001246  0  -0.098703  -0.075534  0  3.994339  0
C  C146  1  0.20690686  0.40394599  0.54631945  1  -0.001113  0  -0.098744  -0.075639  0  3.994273  0
C  C147  1  0.29308904  0.59605436  0.04632028  1  -0.000993  0  -0.098706  -0.075649  0  3.994365  0
S  S148  1  0.50869045  0.89583175  0.68141506  1  1.14778  0  0.314757  0.683308  0  3.928421  0
S  S149  1  0.99130997  0.10416795  0.18141508  1  1.147792  0  0.314755  0.683342  0  3.928345  0
S  S150  1  0.49131170  0.39583205  0.81858699  1  1.147463  0  0.314773  0.683334  0  3.928341  0
S  S151  1  0.00869044  0.60416825  0.31858627  1  1.147798  0  0.314756  0.683342  0  3.928341  0
Cl  Cl152  1  0.35374236  0.07415223  0.78386763  1  -0.196059  0  0.014008  -0.029276  0  1.685554  0
Cl  Cl153  1  0.14625643  0.92584691  0.28386788  1  -0.196076  0  0.014016  -0.029244  0  1.685612  0
Cl  Cl154  1  0.64625574  0.57415317  0.71613054  1  -0.195925  0  0.014012  -0.029255  0  1.68562  0
Cl  Cl155  1  0.85374461  0.42584769  0.21613112  1  -0.195928  0  0.014001  -0.02926  0  1.685604  0
Cl  Cl156  1  0.69958216  0.17902747  0.65864794  1  -0.19817  0  0.011419  -0.02308  0  1.589557  0
Cl  Cl157  1  0.80041489  0.82097104  0.15864661  1  -0.198153  0  0.011427  -0.023083  0  1.589626  0
Cl  Cl158  1  0.30041614  0.67902664  0.84135342  1  -0.198172  0  0.011427  -0.023107  0  1.589599  0
Cl  Cl159  1  0.19958480  0.32097360  0.34135373  1  -0.198137  0  0.01143  -0.023101  0  1.589603  0
O  O160  1  0.66246458  0.87162297  0.64450661  1  -1.222113  0  -0.310457  -0.530755  0  2.267345  0
O  O161  1  0.83753592  0.12837620  0.14450610  1  -1.222098  0  -0.310447  -0.530789  0  2.267371  0
O  O162  1  0.33753639  0.37162371  0.85549380  1  -1.222126  0  -0.310458  -0.53078  0  2.267335  0
O  O163  1  0.16246453  0.62837588  0.35549407  1  -1.222125  0  -0.310468  -0.530786  0  2.267359  0
O  O164  1  0.84287270  0.00915573  0.66031925  1  -1.128582  0  -0.249852  -0.415152  0  2.361645  0
O  O165  1  0.65712549  0.99084403  0.16031823  1  -1.128571  0  -0.249863  -0.415154  0  2.361663  0
O  O166  1  0.15712641  0.50915668  0.83968018  1  -1.12854  0  -0.249821  -0.415162  0  2.361652  0
O  O167  1  0.34287340  0.49084481  0.33968064  1  -1.128549  0  -0.249835  -0.415159  0  2.361661  0
O  O168  1  0.94210845  0.28846187  0.72743407  1  -1.105384  0  -0.239425  -0.3947  0  2.325012  0
O  O169  1  0.55789074  0.71153772  0.22743423  1  -1.105105  0  -0.239433  -0.39472  0  2.32511  0
O  O170  1  0.05789350  0.78846168  0.77256480  1  -1.105086  0  -0.239451  -0.39475  0  2.324978  0
O  O171  1  0.44210646  0.21153936  0.27256633  1  -1.10539  0  -0.239467  -0.394725  0  2.325038  0
O  O172  1  0.22256316  0.24553237  0.76863789  1  -1.123658  0  -0.249266  -0.409319  0  2.35168  0
O  O173  1  0.27743680  0.75446743  0.26863898  1  -1.123623  0  -0.249291  -0.409365  0  2.351817  0
O  O174  1  0.77743869  0.74553211  0.73135993  1  -1.123614  0  -0.249249  -0.409312  0  2.351827  0
O  O175  1  0.72256276  0.25446809  0.23136207  1  -1.123608  0  -0.24925  -0.409302  0  2.351745  0
O  O176  1  0.10082370  0.96301455  0.72707214  1  -1.107844  0  -0.245906  -0.403941  0  2.300237  0
O  O177  1  0.39917066  0.03698535  0.22707178  1  -1.107902  0  -0.245933  -0.403948  0  2.300334  0
O  O178  1  0.89917402  0.46301398  0.77292637  1  -1.10791  0  -0.245959  -0.403974  0  2.300271  0
O  O179  1  0.60082734  0.53698550  0.27292687  1  -1.1079  0  -0.245947  -0.403996  0  2.30029  0
