# generated using pymatgen
data_Al3H7C42(Br3O13)2
_symmetry_space_group_name_H-M   'P 1'
_cell_length_a   11.98554182
_cell_length_b   12.10663536
_cell_length_c   28.67563159
_cell_angle_alpha   89.91844519
_cell_angle_beta   90.02039367
_cell_angle_gamma   118.01002188
_symmetry_Int_Tables_number   1
_chemical_formula_structural   Al3H7C42(Br3O13)2
_chemical_formula_sum   'Al6 H14 C84 Br12 O52'
_cell_volume   3673.56886788
_cell_formula_units_Z   2
loop_
 _symmetry_equiv_pos_site_id
 _symmetry_equiv_pos_as_xyz
  1  'x, y, z'
loop_
 _atom_site_type_symbol
 _atom_site_label
 _atom_site_symmetry_multiplicity
 _atom_site_fract_x
 _atom_site_fract_y
 _atom_site_fract_z
 _atom_site_occupancy
 _atom_site_pbe_bader_charge
 _atom_site_pbe_bader_spin_density
 _atom_site_pbe_cm5_charge
 _atom_site_pbe_ddec_charge
 _atom_site_pbe_ddec_spin_density
 _atom_site_pbe_ddec_sum_bond_order
 _atom_site_pbe_magmom
Al  Al0  1  0.78940026  0.25107829  0.24860073  1  2.496112  0  0.403873  1.681731  0  2.549431  0
Al  Al1  1  0.52426081  0.25754054  0.25018272  1  2.478985  0  0.508383  1.65862  0  2.517289  0
Al  Al2  1  0.76226076  0.50214765  0.25017494  1  2.478353  0  0.510088  1.659527  0  2.514354  0
Al  Al3  1  0.53265637  0.74916214  0.75112149  1  2.493976  0  0.398894  1.685046  0  2.55068  0
Al  Al4  1  0.26253713  0.74652622  0.75008032  1  2.481345  0  0.508965  1.658148  0  2.512007  0
Al  Al5  1  0.26376282  0.49977385  0.75022555  1  2.462924  0  0.508089  1.65667  0  2.518038  0
H  H6  1  0.41497830  0.16415996  0.39894955  1  0.629525  0  0.335812  0.376284  0  0.87313  0
H  H7  1  0.88305447  0.73317257  0.60627562  1  0.622251  0  0.353827  0.395801  0  0.830519  0
H  H8  1  0.26483028  0.15517845  0.90940274  1  0.641892  0  0.358463  0.399452  0  0.821897  0
H  H9  1  0.76832633  0.26448861  0.60985411  1  0.63322  0  0.34852  0.386844  0  0.846811  0
H  H10  1  0.77585959  0.66241914  0.08649742  1  0.627858  0  0.330661  0.367405  0  0.891351  0
H  H11  1  0.86386180  0.22887265  0.41425209  1  0.617727  0  0.332223  0.37543  0  0.879565  0
H  H12  1  0.41989193  0.16425336  0.10053843  1  0.639397  0  0.332157  0.371677  0  0.885348  0
H  H13  1  0.77922552  0.66471059  0.41340176  1  0.593215  0  0.330739  0.367473  0  0.890823  0
H  H14  1  0.86099579  0.20099987  0.08634153  1  0.625925  0  0.338618  0.383066  0  0.862667  0
H  H15  1  0.88072981  0.72909625  0.89253633  1  0.640494  0  0.357849  0.402169  0  0.821155  0
H  H16  1  0.26382934  0.15589391  0.59195927  1  0.633943  0  0.360636  0.40038  0  0.820633  0
H  H17  1  0.77770809  0.24936329  0.89033360  1  0.635896  0  0.349577  0.386869  0  0.844859  0
H  H18  1  0.88349296  0.13075544  0.27516617  1  0.580569  0  0.296284  0.388475  0  0.914584  0
H  H19  1  0.73969992  0.86220301  0.72327285  1  0.573731  0  0.291546  0.381726  0  0.925081  0
C  C20  1  0.56625876  0.11105147  0.31506055  1  1.672581  0  0.278626  0.711946  0  4.156137  0
C  C21  1  0.44442202  0.88717067  0.68422859  1  1.675149  0  0.278707  0.713938  0  4.154846  0
C  C22  1  0.10817186  0.55057688  0.81318914  1  1.640703  0  0.284575  0.722293  0  4.143813  0
C  C23  1  0.44266942  0.53183038  0.68333300  1  1.669463  0  0.280033  0.712089  0  4.15551  0
C  C24  1  0.52428432  0.48533158  0.35667543  1  0.303541  0  -0.027613  -0.178568  0  3.888705  0
C  C25  1  0.96039661  0.50234485  0.13691333  1  0.286915  0  -0.023009  -0.167789  0  3.874382  0
C  C26  1  0.53589050  0.05222859  0.36029149  1  0.262645  0  -0.024113  -0.169335  0  3.886823  0
C  C27  1  0.52271348  0.48405630  0.14360906  1  0.091623  0  -0.027813  -0.178829  0  3.881904  0
C  C28  1  0.95879897  0.49837649  0.36375810  1  0.261397  0  -0.023518  -0.163756  0  3.872196  0
C  C29  1  0.53096810  0.05236769  0.13966836  1  0.284191  0  -0.022863  -0.168199  0  3.886988  0
C  C30  1  0.04426237  0.52000307  0.85729632  1  0.315922  0  -0.031858  -0.187697  0  3.896195  0
C  C31  1  0.55764174  0.45283840  0.18742917  1  1.635647  0  0.2871  0.725871  0  4.134744  0
C  C32  1  0.46229056  0.50231160  0.63654291  1  0.288184  0  -0.020398  -0.158857  0  3.88014  0
C  C33  1  0.46483181  0.94182504  0.86183194  1  -0.326246  0  -0.021779  -0.164665  0  3.881786  0
C  C34  1  0.04274529  0.51961047  0.64341013  1  -0.206099  0  -0.031552  -0.185326  0  3.89163  0
C  C35  1  0.46307006  0.50311391  0.86366974  1  0.308647  0  -0.018935  -0.161098  0  3.881757  0
C  C36  1  0.46939063  0.94267503  0.63858434  1  0.221185  0  -0.024005  -0.166761  0  3.884923  0
C  C37  1  0.44191348  0.37618257  0.47267419  1  0.021176  0  0.010461  -0.0615  0  3.871626  0
C  C38  1  0.92272928  0.56661258  0.01641450  1  0.032508  0  0.004034  -0.077543  0  3.871204  0
C  C39  1  0.61504539  0.08823165  0.47829342  1  -0.00031  0  0.015605  -0.044577  0  3.863741  0
C  C40  1  0.44474805  0.37662174  0.02709035  1  0.068423  0  0.007772  -0.068211  0  3.873362  0
C  C41  1  0.92495999  0.56809347  0.48384532  1  0.0403  0  0.004614  -0.074885  0  3.870081  0
C  C42  1  0.90887357  0.46550220  0.31729905  1  1.676203  0  0.279979  0.713248  0  4.150873  0
C  C43  1  0.61084828  0.08232921  0.02234377  1  0.067443  0  0.016634  -0.039649  0  3.859634  0
C  C44  1  0.93173287  0.56051814  0.96793933  1  0.07872  0  0.014835  -0.040121  0  3.862051  0
C  C45  1  0.43420079  0.37816769  0.52120691  1  0.022221  0  0.01125  -0.062345  0  3.88685  0
C  C46  1  0.60424554  0.07665108  0.97372172  1  0.000437  0  0.00428  -0.076407  0  3.88598  0
C  C47  1  0.93330685  0.56188358  0.53234050  1  0.00623  0  0.014598  -0.039648  0  3.861345  0
C  C48  1  0.43745693  0.38030382  0.97858795  1  0.025327  0  0.014531  -0.053846  0  3.881572  0
C  C49  1  0.60720370  0.08073884  0.52687626  1  0.082526  0  0.005734  -0.071016  0  3.887665  0
C  C50  1  0.53157471  0.60645207  0.52008320  1  0.031425  0  -0.002892  0.035121  0  3.90762  0
C  C51  1  0.06048533  0.45403495  0.97667685  1  -0.01049  0  -0.005322  0.035129  0  3.946994  0
C  C52  1  0.39266337  0.90773081  0.52048883  1  -0.027819  0  -0.012452  0.009217  0  3.938397  0
C  C53  1  0.56721250  0.11333939  0.18430663  1  1.683421  0  0.280422  0.707569  0  4.159391  0
C  C54  1  0.53085060  0.60825371  0.98044382  1  0.016249  0  -0.002933  0.034885  0  3.914883  0
C  C55  1  0.06189883  0.45518942  0.52419441  1  0.055692  0  -0.005811  0.03549  0  3.951785  0
C  C56  1  0.38358066  0.91461594  0.97925757  1  -0.004089  0  -0.012952  0.007314  0  3.932517  0
C  C57  1  0.05189010  0.45998094  0.02504367  1  -0.034495  0  -0.009649  0.014291  0  3.90961  0
C  C58  1  0.53571975  0.60478320  0.47146804  1  -0.054876  0  -0.008982  0.016559  0  3.939443  0
C  C59  1  0.39086977  0.92067750  0.02784015  1  -0.010455  0  -0.008727  0.028523  0  3.955201  0
C  C60  1  0.05444149  0.46173888  0.47579370  1  -0.082127  0  -0.012565  0.008472  0  3.917514  0
C  C61  1  0.53490354  0.60515675  0.02906458  1  -0.065768  0  -0.009963  0.012596  0  3.942692  0
C  C62  1  0.40065843  0.91609960  0.47195555  1  -0.054017  0  -0.010894  0.024243  0  3.950863  0
C  C63  1  0.49349958  0.49013830  0.44719294  1  0.173557  0  0.004221  0.061205  0  4.074888  0
C  C64  1  0.56117403  0.45643613  0.31283720  1  1.643388  0  0.286608  0.724316  0  4.139646  0
C  C65  1  0.98312278  0.51576556  0.04570069  1  0.212055  0  0.0137  0.088425  0  4.055747  0
C  C66  1  0.51237078  0.00649171  0.45035966  1  0.213106  0  -0.003722  0.049988  0  4.101683  0
C  C67  1  0.49407695  0.48996305  0.05297291  1  0.137716  0  0.005219  0.062566  0  4.071082  0
C  C68  1  0.98540609  0.51690406  0.45480928  1  0.192037  0  0.012233  0.086938  0  4.060531  0
C  C69  1  0.50478960  0.00489721  0.04983670  1  0.120413  0  -0.004158  0.044617  0  4.106156  0
C  C70  1  0.00115623  0.50581243  0.94761502  1  0.103288  0  -0.002219  0.047072  0  4.088307  0
C  C71  1  0.47991826  0.49250781  0.54554979  1  0.177088  0  0.012076  0.078572  0  4.063904  0
C  C72  1  0.49066181  0.99057726  0.95154105  1  0.204017  0  0.014007  0.090898  0  4.05365  0
C  C73  1  0.00177030  0.50650345  0.55297934  1  0.154819  0  -0.003925  0.048417  0  4.088251  0
C  C74  1  0.48118913  0.49518400  0.95472223  1  0.173869  0  0.011111  0.073915  0  4.071006  0
C  C75  1  0.91109067  0.47162482  0.18344194  1  1.643474  0  0.284113  0.710454  0  4.150687  0
C  C76  1  0.49622486  0.98884787  0.54863354  1  0.200817  0  0.011494  0.089538  0  4.05926  0
C  C77  1  0.47258155  0.49558440  0.59456409  1  -0.48738  0  -0.021321  -0.00928  0  4.103595  0
C  C78  1  0.01892888  0.50887336  0.89880083  1  -0.528642  0  -0.015691  -0.002337  0  4.103957  0
C  C79  1  0.48546201  0.97040350  0.59738985  1  -0.426379  0  -0.018909  -0.00176  0  4.096017  0
C  C80  1  0.47379868  0.49842421  0.90571908  1  -0.495669  0  -0.016918  -0.002358  0  4.101751  0
C  C81  1  0.01825680  0.50893658  0.60184193  1  -0.034755  0  -0.018151  -0.007091  0  4.107159  0
C  C82  1  0.48052886  0.97144437  0.90282395  1  0.132158  0  -0.016012  0.003579  0  4.090744  0
C  C83  1  0.97299407  0.51375032  0.09475210  1  -0.45397  0  -0.017434  0.005274  0  4.094244  0
C  C84  1  0.50697142  0.49030052  0.39832145  1  -0.490951  0  -0.013406  0.005349  0  4.09768  0
C  C85  1  0.51295181  0.02188490  0.09872663  1  -0.533276  0  -0.023089  -0.028628  0  4.128918  0
C  C86  1  0.44216255  0.88583750  0.81640171  1  1.659105  0  0.280471  0.708201  0  4.158296  0
C  C87  1  0.97380772  0.51267571  0.40576897  1  -0.452769  0  -0.022137  -0.006966  0  4.104803  0
C  C88  1  0.50661316  0.48939295  0.10186858  1  -0.273125  0  -0.011336  0.009914  0  4.092739  0
C  C89  1  0.52041741  0.02362382  0.40145288  1  -0.551341  0  -0.023927  -0.025761  0  4.125496  0
C  C90  1  0.38636769  0.25106928  0.44896953  1  1.568671  0  0.234243  0.582514  0  4.116413  0
C  C91  1  0.85090377  0.63092849  0.03374232  1  1.518272  0  0.235274  0.579291  0  4.097682  0
C  C92  1  0.72412221  0.19413560  0.45386598  1  1.579826  0  0.235542  0.593582  0  4.132795  0
C  C93  1  0.39477193  0.25014760  0.04932788  1  1.576922  0  0.234823  0.580454  0  4.11309  0
C  C94  1  0.85189966  0.63096551  0.46635755  1  1.517666  0  0.236154  0.582593  0  4.091784  0
C  C95  1  0.72373036  0.18088748  0.04782866  1  1.584475  0  0.235451  0.593151  0  4.14053  0
C  C96  1  0.85935149  0.60094225  0.93500444  1  1.589435  0  0.233188  0.591159  0  4.152144  0
C  C97  1  0.10728758  0.54997281  0.68743438  1  1.651663  0  0.284699  0.721459  0  4.146055  0
C  C98  1  0.38784231  0.25839906  0.54837237  1  1.546514  0  0.243157  0.597511  0  4.116075  0
C  C99  1  0.71949022  0.16508532  0.94763989  1  1.542424  0  0.239113  0.587176  0  4.100171  0
C  C100  1  0.86171714  0.60293034  0.56529906  1  1.599142  0  0.232708  0.592927  0  4.152357  0
C  C101  1  0.39498486  0.26333432  0.94987784  1  1.593976  0  0.240684  0.595043  0  4.127779  0
C  C102  1  0.71882444  0.17283846  0.55366585  1  1.534761  0  0.238006  0.585982  0  4.102487  0
C  C103  1  0.44294619  0.53108569  0.81675008  1  1.680425  0  0.284168  0.709076  0  4.157287  0
Br  Br104  1  0.59276789  0.75714759  0.55331939  1  0.031452  0  0.092648  0.032419  0  1.588289  0
Br  Br105  1  0.13415163  0.39377185  0.43701428  1  4e-05  0  0.076758  0.001327  0  1.551816  0
Br  Br106  1  0.59765606  0.75382030  0.06429535  1  0.011883  0  0.084593  0.006333  0  1.583267  0
Br  Br107  1  0.26592659  0.80963438  0.43335551  1  0.013225  0  0.069523  -0.002283  0  1.566011  0
Br  Br108  1  0.14825227  0.37794092  0.94899810  1  0.072991  0  0.094063  0.035385  0  1.709206  0
Br  Br109  1  0.24371125  0.79029756  0.54974572  1  0.02331  0  0.077023  0.006542  0  1.687947  0
Br  Br110  1  0.58950374  0.75925229  0.94745684  1  0.047585  0  0.098458  0.040658  0  1.577162  0
Br  Br111  1  0.14924109  0.37924202  0.55233961  1  0.074173  0  0.096034  0.038023  0  1.71741  0
Br  Br112  1  0.23076886  0.80820638  0.94946238  1  0.026709  0  0.078579  0.01172  0  1.669723  0
Br  Br113  1  0.12990970  0.39100803  0.06427667  1  0.007409  0  0.078402  0.002235  0  1.532393  0
Br  Br114  1  0.59966746  0.75416605  0.43646935  1  0.014882  0  0.08282  0.003073  0  1.589812  0
Br  Br115  1  0.25247132  0.81922119  0.06591070  1  0.018749  0  0.072113  0.000795  0  1.563993  0
O  O116  1  0.88521430  0.35830224  0.30260142  1  -1.216199  0  -0.211081  -0.563164  0  2.279837  0
O  O117  1  0.52337849  0.63591336  0.69935323  1  -1.212103  0  -0.207748  -0.560284  0  2.298983  0
O  O118  1  0.33884562  0.86735377  0.79581963  1  -1.252877  0  -0.242312  -0.606078  0  2.229059  0
O  O119  1  0.13806813  0.47030320  0.70438493  1  -1.231507  0  -0.2244  -0.584027  0  2.251946  0
O  O120  1  0.67136601  0.13452337  0.29737891  1  -1.214076  0  -0.20787  -0.55623  0  2.277372  0
O  O121  1  0.48447882  0.34357542  0.20358179  1  -1.240704  0  -0.224766  -0.586159  0  2.245535  0
O  O122  1  0.88668771  0.54649360  0.29556684  1  -1.252867  0  -0.238704  -0.597824  0  2.226761  0
O  O123  1  0.67904640  0.14778674  0.19742316  1  -1.208101  0  -0.198497  -0.532037  0  2.280261  0
O  O124  1  0.48633788  0.35068621  0.29472896  1  -1.244279  0  -0.223325  -0.584503  0  2.250792  0
O  O125  1  0.88186872  0.55036554  0.20317985  1  -1.250037  0  -0.237408  -0.597377  0  2.229653  0
O  O126  1  0.52239320  0.85499491  0.80121890  1  -1.212498  0  -0.201248  -0.54108  0  2.286397  0
O  O127  1  0.48302107  0.13237148  0.20577944  1  -1.249144  0  -0.241224  -0.604955  0  2.229178  0
O  O128  1  0.13538981  0.65711408  0.70481528  1  -1.239207  0  -0.223635  -0.580634  0  2.242999  0
O  O129  1  0.33957510  0.45166233  0.79682222  1  -1.25272  0  -0.240058  -0.602038  0  2.22877  0
O  O130  1  0.52616364  0.86079153  0.70133692  1  -1.216101  0  -0.210316  -0.565424  0  2.289957  0
O  O131  1  0.13733353  0.65842219  0.79608032  1  -1.23256  0  -0.22378  -0.581936  0  2.243374  0
O  O132  1  0.34057764  0.45185900  0.70391826  1  -1.256716  0  -0.241309  -0.601337  0  2.223442  0
O  O133  1  0.69087880  0.33700689  0.25006822  1  -1.608588  0  -0.389186  -1.275187  0  2.293617  0
O  O134  1  0.35105819  0.66441961  0.75016432  1  -1.613597  0  -0.391046  -1.271739  0  2.287581  0
O  O135  1  0.28678023  0.16281785  0.46130505  1  -1.11473  0  -0.283128  -0.4703  0  2.074666  0
O  O136  1  0.45765238  0.24750693  0.41333942  1  -1.119468  0  -0.313229  -0.448886  0  2.306688  0
O  O137  1  0.82108083  0.69345780  0.00790549  1  -1.108172  0  -0.271938  -0.47397  0  2.18245  0
O  O138  1  0.66921983  0.53489862  0.29665754  1  -1.247013  0  -0.224316  -0.583802  0  2.240584  0
O  O139  1  0.82126124  0.61466343  0.07943680  1  -1.121697  0  -0.312206  -0.438786  0  2.290881  0
O  O140  1  0.73485022  0.29931647  0.45253751  1  -1.113625  0  -0.268282  -0.455604  0  2.135562  0
O  O141  1  0.79902981  0.15667145  0.43131009  1  -1.10845  0  -0.325336  -0.464639  0  2.244988  0
O  O142  1  0.30720417  0.15658153  0.03269146  1  -1.125252  0  -0.279085  -0.468657  0  2.102087  0
O  O143  1  0.45700009  0.25021207  0.08835960  1  -1.14019  0  -0.312957  -0.44597  0  2.316205  0
O  O144  1  0.81730240  0.68908038  0.49246347  1  -1.102815  0  -0.27128  -0.475531  0  2.192267  0
O  O145  1  0.82668541  0.61886412  0.42031699  1  -1.085484  0  -0.311684  -0.43808  0  2.289347  0
O  O146  1  0.73994679  0.28754274  0.05232959  1  -1.114131  0  -0.271053  -0.45886  0  2.130548  0
O  O147  1  0.79397208  0.13408499  0.06800427  1  -1.116493  0  -0.323965  -0.463708  0  2.241848  0
O  O148  1  0.74973995  0.53183304  0.92451365  1  -1.128696  0  -0.276798  -0.464935  0  2.110661  0
O  O149  1  0.89440259  0.36845272  0.20031466  1  -1.214261  0  -0.200394  -0.536962  0  2.269592  0
O  O150  1  0.93338469  0.71299069  0.91495387  1  -1.119618  0  -0.326812  -0.47549  0  2.251551  0
O  O151  1  0.44082512  0.19391821  0.54785863  1  -1.090938  0  -0.259347  -0.453085  0  2.168429  0
O  O152  1  0.28469460  0.23298707  0.57453181  1  -1.120763  0  -0.316888  -0.462187  0  2.289461  0
O  O153  1  0.82520882  0.21277874  0.96500269  1  -1.130451  0  -0.27373  -0.479749  0  2.180048  0
O  O154  1  0.69635145  0.18935594  0.90382283  1  -1.115395  0  -0.309685  -0.440164  0  2.263963  0
O  O155  1  0.75382272  0.53260474  0.57756341  1  -1.126159  0  -0.280765  -0.470829  0  2.105321  0
O  O156  1  0.93529524  0.71723657  0.58367329  1  -1.10999  0  -0.329124  -0.476466  0  2.245806  0
O  O157  1  0.45932086  0.21103771  0.94453417  1  -1.122123  0  -0.260267  -0.452219  0  2.162879  0
O  O158  1  0.28285524  0.22885471  0.92851944  1  -1.131803  0  -0.319067  -0.464704  0  2.287127  0
O  O159  1  0.82669396  0.21872608  0.53833173  1  -1.115646  0  -0.274615  -0.47995  0  2.176669  0
O  O160  1  0.48375955  0.14008892  0.29793096  1  -1.251465  0  -0.238443  -0.597604  0  2.225389  0
O  O161  1  0.68927954  0.20201846  0.59565581  1  -1.114306  0  -0.311723  -0.443254  0  2.260998  0
O  O162  1  0.66203310  0.53237027  0.20568147  1  -1.247893  0  -0.224064  -0.586757  0  2.246809  0
O  O163  1  0.52466760  0.63361074  0.79987266  1  -1.218777  0  -0.197875  -0.532552  0  2.286602  0
O  O164  1  0.33767855  0.86420605  0.70283680  1  -1.2488  0  -0.23925  -0.600149  0  2.229175  0
O  O165  1  0.13727090  0.47038876  0.79563234  1  -1.228127  0  -0.22543  -0.586193  0  2.250248  0
O  O166  1  0.88031146  0.17302239  0.24698173  1  -1.361294  0  -0.572308  -0.989909  0  1.79149  0
O  O167  1  0.69819444  0.82435374  0.75226837  1  -1.35797  0  -0.576559  -0.992194  0  1.792535  0
