# generated using pymatgen
data_ZnH14C16(NO3)2
_symmetry_space_group_name_H-M   'P 1'
_cell_length_a   9.66311848
_cell_length_b   10.75473179
_cell_length_c   19.27946586
_cell_angle_alpha   90.00504784
_cell_angle_beta   98.29917620
_cell_angle_gamma   90.00436314
_symmetry_Int_Tables_number   1
_chemical_formula_structural   ZnH14C16(NO3)2
_chemical_formula_sum   'Zn4 H56 C64 N8 O24'
_cell_volume   1982.62195373
_cell_formula_units_Z   4
loop_
 _symmetry_equiv_pos_site_id
 _symmetry_equiv_pos_as_xyz
  1  'x, y, z'
loop_
 _atom_site_type_symbol
 _atom_site_label
 _atom_site_symmetry_multiplicity
 _atom_site_fract_x
 _atom_site_fract_y
 _atom_site_fract_z
 _atom_site_occupancy
 _atom_site_pbe_bader_charge
 _atom_site_pbe_bader_spin_density
 _atom_site_pbe_cm5_charge
 _atom_site_pbe_ddec_charge
 _atom_site_pbe_ddec_spin_density
 _atom_site_pbe_ddec_sum_bond_order
 _atom_site_pbe_magmom
Zn  Zn0  1  0.85014515  0.90420701  0.65648416  1  1.298202  0  0.715002  0.893628  0  2.356958  0
Zn  Zn1  1  0.64999631  0.40446280  0.84359866  1  1.29763  0  0.715141  0.893735  0  2.358044  0
Zn  Zn2  1  0.14987486  0.09566932  0.34347459  1  1.297612  0  0.715152  0.893577  0  2.358707  0
Zn  Zn3  1  0.35006598  0.59570829  0.15642517  1  1.297393  0  0.71515  0.893835  0  2.356517  0
H  H4  1  0.30086262  0.19791269  0.75203382  1  0.068578  0  0.107304  0.108143  0  1.03681  0
H  H5  1  0.06735545  0.12844676  0.54859050  1  0.124682  0  0.115458  0.129702  0  0.995302  0
H  H6  1  0.46745306  0.31293964  0.56661230  1  0.132025  0  0.115007  0.124515  0  0.991203  0
H  H7  1  0.65616285  0.98863072  0.91536961  1  0.037142  0  0.098053  0.102202  0  0.979032  0
H  H8  1  0.53063448  0.86790565  0.90322968  1  0.047644  0  0.092499  0.09309  0  0.994749  0
H  H9  1  0.53783165  0.79390854  0.63666687  1  0.19345  0  0.135772  0.139754  0  0.998485  0
H  H10  1  0.47932762  0.12668760  0.96315330  1  0.028454  0  0.09032  0.08732  0  0.984162  0
H  H11  1  0.35753912  0.00322448  0.95304831  1  0.053125  0  0.090007  0.082636  0  0.982635  0
H  H12  1  0.36636543  0.01173348  0.82559652  1  0.07349  0  0.117834  0.101555  0  0.970907  0
H  H13  1  0.49914641  0.12678475  0.83413555  1  0.090729  0  0.11454  0.105488  0  1.011673  0
H  H14  1  0.36463321  0.84976175  0.73736595  1  0.161472  0  0.13758  0.134261  0  1.006169  0
H  H15  1  0.86840425  0.06338962  0.77953544  1  0.17965  0  0.108129  0.172811  0  1.027448  0
H  H16  1  0.74904091  0.11820928  0.83569739  1  0.119204  0  0.105264  0.162339  0  1.02552  0
H  H17  1  0.74573089  0.17892487  0.74903766  1  0.151113  0  0.107723  0.166522  0  1.018613  0
H  H18  1  0.19947841  0.69830449  0.74810004  1  0.069807  0  0.107254  0.108454  0  1.035828  0
H  H19  1  0.43243266  0.62858888  0.95161129  1  0.168349  0  0.115731  0.129941  0  0.995253  0
H  H20  1  0.03241215  0.81310474  0.93345985  1  0.13059  0  0.114707  0.124086  0  0.991538  0
H  H21  1  0.84398321  0.48860581  0.58451563  1  0.03854  0  0.098081  0.102374  0  0.979015  0
H  H22  1  0.96956512  0.36793947  0.59669350  1  0.047998  0  0.092492  0.093032  0  0.994841  0
H  H23  1  0.96200596  0.29378410  0.86322131  1  0.193311  0  0.135932  0.139874  0  0.998147  0
H  H24  1  0.02085406  0.62675520  0.53682424  1  0.027507  0  0.09009  0.087223  0  0.984047  0
H  H25  1  0.14268692  0.50333444  0.54694711  1  0.05609  0  0.09001  0.082704  0  0.982854  0
H  H26  1  0.13361196  0.51185980  0.67444299  1  0.073419  0  0.11791  0.101518  0  0.971275  0
H  H27  1  0.00073010  0.62676962  0.66588949  1  0.091069  0  0.114643  0.105491  0  1.012322  0
H  H28  1  0.13512569  0.34950432  0.76243515  1  0.162449  0  0.137379  0.134042  0  1.006365  0
H  H29  1  0.63156568  0.56353376  0.72046800  1  0.178894  0  0.10817  0.172973  0  1.027116  0
H  H30  1  0.75092350  0.61840163  0.66433334  1  0.118473  0  0.105311  0.162572  0  1.024878  0
H  H31  1  0.75443699  0.67888293  0.75106465  1  0.150057  0  0.107784  0.166607  0  1.018839  0
H  H32  1  0.69951853  0.80162614  0.24805666  1  0.069684  0  0.107186  0.108065  0  1.036458  0
H  H33  1  0.93248397  0.87134125  0.45161544  1  0.167451  0  0.11573  0.130041  0  0.995004  0
H  H34  1  0.53248794  0.68677398  0.43340090  1  0.135417  0  0.114941  0.124529  0  0.991285  0
H  H35  1  0.34394705  0.01137951  0.08451999  1  0.037911  0  0.098122  0.102427  0  0.978857  0
H  H36  1  0.46955206  0.13203206  0.09669346  1  0.048011  0  0.092443  0.092795  0  0.994927  0
H  H37  1  0.46178941  0.20650707  0.36308559  1  0.194139  0  0.135927  0.139762  0  0.998243  0
H  H38  1  0.52076500  0.87319989  0.03679407  1  0.026926  0  0.090235  0.087094  0  0.984092  0
H  H39  1  0.64262419  0.99661467  0.04692020  1  0.056638  0  0.089966  0.082513  0  0.982696  0
H  H40  1  0.63359174  0.98816146  0.17443923  1  0.073418  0  0.117877  0.101487  0  0.972126  0
H  H41  1  0.50072111  0.87321618  0.16588275  1  0.090864  0  0.114582  0.105397  0  1.013359  0
H  H42  1  0.63501928  0.15064084  0.26238692  1  0.161784  0  0.137238  0.133846  0  1.007146  0
H  H43  1  0.13156288  0.93644859  0.22044144  1  0.179672  0  0.108133  0.172926  0  1.027086  0
H  H44  1  0.25095201  0.88163545  0.16429450  1  0.118095  0  0.10509  0.162231  0  1.025486  0
H  H45  1  0.25440035  0.82104910  0.25099420  1  0.150673  0  0.107726  0.166539  0  1.018826  0
H  H46  1  0.80098991  0.30226273  0.25198489  1  0.069243  0  0.107297  0.108182  0  1.036768  0
H  H47  1  0.56743447  0.37163522  0.04857818  1  0.164492  0  0.115649  0.129995  0  0.99512  0
H  H48  1  0.96755546  0.18725046  0.06653887  1  0.131217  0  0.114991  0.124364  0  0.991253  0
H  H49  1  0.15621989  0.51127889  0.41537614  1  0.036086  0  0.098091  0.10225  0  0.979034  0
H  H50  1  0.03072309  0.63202707  0.40326827  1  0.048051  0  0.092491  0.093214  0  0.994506  0
H  H51  1  0.03763946  0.70585232  0.13659842  1  0.195746  0  0.135814  0.139936  0  0.998705  0
H  H52  1  0.97938515  0.37325225  0.46316738  1  0.027363  0  0.090259  0.087244  0  0.984558  0
H  H53  1  0.85761128  0.49669998  0.45307199  1  0.057092  0  0.090102  0.082899  0  0.982908  0
H  H54  1  0.86640222  0.48822855  0.32561646  1  0.073904  0  0.117868  0.101491  0  0.971096  0
H  H55  1  0.99914041  0.37316250  0.33413424  1  0.090089  0  0.114538  0.105192  0  1.01194  0
H  H56  1  0.86460251  0.65008189  0.23738489  1  0.160378  0  0.137525  0.134232  0  1.006189  0
H  H57  1  0.36842989  0.43659456  0.27950388  1  0.178805  0  0.108236  0.172973  0  1.027272  0
H  H58  1  0.24906353  0.38171088  0.33564460  1  0.118421  0  0.105218  0.162446  0  1.025576  0
H  H59  1  0.24574376  0.32109476  0.24895762  1  0.151223  0  0.107805  0.166533  0  1.019155  0
C  C60  1  0.06065555  0.09416403  0.68818076  1  1.580482  0  0.210528  0.565403  0  4.225632  0
C  C61  1  0.52613660  0.30497251  0.71029374  1  1.541149  0  0.214547  0.563849  0  4.202689  0
C  C62  1  0.29031903  0.20611662  0.69527524  1  0.007724  0  -0.079829  -0.121152  0  3.975508  0
C  C63  1  0.15872049  0.16741558  0.58084050  1  -0.039351  0  -0.065214  -0.086226  0  3.897464  0
C  C64  1  0.26487703  0.22375582  0.54950250  1  0.070615  0  -0.013454  -0.033664  0  3.96456  0
C  C65  1  0.17155373  0.15900745  0.65389941  1  -0.091165  0  -0.021352  -0.049432  0  4.005531  0
C  C66  1  0.39691336  0.26137643  0.66417873  1  -0.022999  0  -0.01627  -0.028657  0  3.976195  0
C  C67  1  0.66023972  0.99885988  0.75209025  1  0.928219  0  0.257176  0.416515  0  3.831121  0
C  C68  1  0.38417723  0.27073020  0.59113478  1  -0.032937  0  -0.061902  -0.086701  0  3.891341  0
C  C69  1  0.54306335  0.96967259  0.90521082  1  -0.023951  0  -0.161993  -0.170939  0  3.929102  0
C  C70  1  0.75452214  0.27351482  0.97096707  1  1.535714  0  0.212037  0.563923  0  4.223844  0
C  C71  1  0.55249444  0.85929556  0.68005432  1  0.451398  0  0.04817  0.0433  0  3.884179  0
C  C72  1  0.47031272  0.02445327  0.96371935  1  -0.059377  0  -0.16193  -0.138618  0  3.940191  0
C  C73  1  0.48016976  0.02613638  0.83501976  1  0.295072  0  -0.050399  -0.068583  0  3.865068  0
C  C74  1  0.46642157  0.88566147  0.73035095  1  0.405942  0  0.05411  -0.022271  0  3.790768  0
C  C75  1  0.76016751  0.09368436  0.78161373  1  -0.150972  0  -0.235106  -0.50578  0  3.91498  0
C  C76  1  0.43924580  0.59430272  0.81196439  1  1.574112  0  0.210095  0.564764  0  4.225135  0
C  C77  1  0.97392535  0.80500615  0.78975174  1  1.542638  0  0.21481  0.5642  0  4.203647  0
C  C78  1  0.20980685  0.70643755  0.80486333  1  0.019834  0  -0.079934  -0.121092  0  3.974365  0
C  C79  1  0.34121465  0.66764060  0.91930487  1  -0.084175  0  -0.065501  -0.086486  0  3.897124  0
C  C80  1  0.23504024  0.72403679  0.95058940  1  0.072562  0  -0.013348  -0.033353  0  3.96688  0
C  C81  1  0.32844831  0.65922731  0.84625912  1  -0.088272  0  -0.02074  -0.049055  0  4.00446  0
C  C82  1  0.10312908  0.76162400  0.83592395  1  -0.031954  0  -0.015783  -0.028401  0  3.976282  0
C  C83  1  0.83969614  0.49883742  0.74785777  1  0.931489  0  0.257073  0.41675  0  3.83119  0
C  C84  1  0.11577113  0.77100059  0.90895629  1  -0.037969  0  -0.061956  -0.086564  0  3.89338  0
C  C85  1  0.95709088  0.46970992  0.59472647  1  -0.025774  0  -0.162225  -0.171474  0  3.93053  0
C  C86  1  0.74542788  0.77327770  0.52910529  1  1.535608  0  0.212248  0.564301  0  4.224825  0
C  C87  1  0.94739353  0.35919905  0.81985003  1  0.452832  0  0.047852  0.042988  0  3.88531  0
C  C88  1  0.02991209  0.52452791  0.53624801  1  -0.031729  0  -0.161796  -0.138242  0  3.941042  0
C  C89  1  0.01981425  0.52615682  0.66494529  1  0.293861  0  -0.050738  -0.068664  0  3.865588  0
C  C90  1  0.03339690  0.38547716  0.76951688  1  0.400958  0  0.054182  -0.022079  0  3.791283  0
C  C91  1  0.73983333  0.59375563  0.71840927  1  -0.150076  0  -0.235273  -0.506299  0  3.914233  0
C  C92  1  0.93932071  0.90569744  0.31192446  1  1.574922  0  0.210591  0.565561  0  4.224996  0
C  C93  1  0.47393056  0.69501448  0.28970453  1  1.541935  0  0.215023  0.564407  0  4.203583  0
C  C94  1  0.70987350  0.79350589  0.30481488  1  0.018164  0  -0.080005  -0.120583  0  3.974879  0
C  C95  1  0.84128166  0.83229247  0.41927609  1  -0.082039  0  -0.065503  -0.08684  0  3.897168  0
C  C96  1  0.73510561  0.77587877  0.45055964  1  0.07158  0  -0.013423  -0.033161  0  3.966035  0
C  C97  1  0.82854054  0.84068945  0.34622082  1  -0.088148  0  -0.021222  -0.049528  0  4.004717  0
C  C98  1  0.60318604  0.73833068  0.33586721  1  -0.03179  0  -0.015498  -0.028024  0  3.976593  0
C  C99  1  0.33970552  0.00115128  0.24784341  1  0.930831  0  0.257271  0.409716  0  3.830083  0
C  C100  1  0.61583541  0.72892298  0.40890275  1  -0.041453  0  -0.062366  -0.087523  0  3.89325  0
C  C101  1  0.45705897  0.03026698  0.09472333  1  -0.025178  0  -0.162297  -0.171777  0  3.931851  0
C  C102  1  0.24534364  0.72656608  0.02911646  1  1.535251  0  0.212347  0.564606  0  4.225469  0
C  C103  1  0.44726113  0.14098430  0.31976219  1  0.446635  0  0.04771  0.042145  0  3.887618  0
C  C104  1  0.52983953  0.97542958  0.03623220  1  -0.031309  0  -0.161831  -0.137662  0  3.940176  0
C  C105  1  0.51979151  0.97383852  0.16494111  1  0.294191  0  -0.050611  -0.075825  0  3.864125  0
C  C106  1  0.53330787  0.11464535  0.26946298  1  0.408005  0  0.054264  -0.028775  0  3.787928  0
C  C107  1  0.23983067  0.90622824  0.21837754  1  -0.150235  0  -0.235038  -0.506114  0  3.916416  0
C  C108  1  0.56072977  0.40587024  0.18816723  1  1.580082  0  0.210241  0.565125  0  4.225661  0
C  C109  1  0.02622617  0.19516773  0.21022726  1  1.538505  0  0.214408  0.562325  0  4.206005  0
C  C110  1  0.79044646  0.29405620  0.19522849  1  0.005678  0  -0.08002  -0.120802  0  3.975376  0
C  C111  1  0.65879457  0.33268578  0.08082267  1  -0.081328  0  -0.065364  -0.086282  0  3.897986  0
C  C112  1  0.76495325  0.27634166  0.04949955  1  0.07094  0  -0.013489  -0.033734  0  3.965748  0
C  C113  1  0.67166027  0.34111488  0.15387575  1  -0.091297  0  -0.020819  -0.049539  0  4.00601  0
C  C114  1  0.89705311  0.23882419  0.16412336  1  -0.014123  0  -0.016143  -0.02855  0  3.977406  0
C  C115  1  0.16025956  0.50110679  0.25207671  1  0.93006  0  0.257297  0.416785  0  3.830543  0
C  C116  1  0.88430513  0.22943551  0.09109459  1  -0.031802  0  -0.062142  -0.086652  0  3.892699  0
C  C117  1  0.04312297  0.53025941  0.40523358  1  -0.022926  0  -0.16205  -0.171185  0  3.928801  0
C  C118  1  0.25443458  0.22658004  0.47094477  1  1.536724  0  0.211992  0.564165  0  4.223738  0
C  C119  1  0.05237852  0.64055919  0.18001549  1  0.450136  0  0.047644  0.042893  0  3.884035  0
C  C120  1  0.97037126  0.47548048  0.46373880  1  -0.062039  0  -0.162091  -0.138948  0  3.941532  0
C  C121  1  0.98019152  0.47381064  0.33503673  1  0.294406  0  -0.050381  -0.06808  0  3.86465  0
C  C122  1  0.96636907  0.61421226  0.23034038  1  0.40665  0  0.054218  -0.022244  0  3.790976  0
C  C123  1  0.26019245  0.40628343  0.28156914  1  -0.149573  0  -0.235314  -0.506203  0  3.915027  0
N  N124  1  0.67031191  0.92923077  0.69405713  1  -1.222991  0  -0.34728  -0.36332  0  3.535025  0
N  N125  1  0.53478830  0.97186913  0.77458470  1  -1.21874  0  -0.219949  0.00116  0  3.673187  0
N  N126  1  0.82966684  0.42928035  0.80589795  1  -1.223527  0  -0.347426  -0.363915  0  3.536601  0
N  N127  1  0.96507450  0.47176730  0.72532555  1  -1.216375  0  -0.219676  0.001273  0  3.67253  0
N  N128  1  0.32959964  0.07082037  0.30584327  1  -1.225192  0  -0.347624  -0.363801  0  3.539119  0
N  N129  1  0.46506992  0.02824616  0.22531149  1  -1.216033  0  -0.219427  0.023595  0  3.64525  0
N  N130  1  0.17024725  0.57068338  0.19402495  1  -1.225064  0  -0.346961  -0.363318  0  3.534201  0
N  N131  1  0.03480623  0.52807276  0.27459057  1  -1.218048  0  -0.219718  0.001402  0  3.672329  0
O  O132  1  0.95252359  0.05885158  0.64576952  1  -1.166231  0  -0.328089  -0.544664  0  2.314691  0
O  O133  1  0.51775003  0.30824266  0.77661993  1  -1.144296  0  -0.323529  -0.563951  0  2.372946  0
O  O134  1  0.65321590  0.33864303  0.93776392  1  -1.154382  0  -0.326735  -0.550075  0  2.322888  0
O  O135  1  0.08122393  0.07894742  0.75347611  1  -1.090826  0  -0.284815  -0.483711  0  2.047596  0
O  O136  1  0.84154570  0.21264481  0.94252044  1  -1.115141  0  -0.286331  -0.492294  0  2.058063  0
O  O137  1  0.13357813  0.17049747  0.18308105  1  -1.058304  0  -0.262531  -0.447212  0  2.039967  0
O  O138  1  0.54718572  0.55875961  0.85439985  1  -1.16412  0  -0.32817  -0.544361  0  2.317103  0
O  O139  1  0.98231755  0.80799092  0.72342305  1  -1.145845  0  -0.323636  -0.563941  0  2.374234  0
O  O140  1  0.84691175  0.83825781  0.56230559  1  -1.155056  0  -0.326871  -0.55032  0  2.32176  0
O  O141  1  0.41870657  0.57929264  0.74665707  1  -1.087228  0  -0.284382  -0.483378  0  2.04624  0
O  O142  1  0.65813867  0.71278344  0.55757139  1  -1.114741  0  -0.286399  -0.492781  0  2.059712  0
O  O143  1  0.36663016  0.67021443  0.31686442  1  -1.057401  0  -0.263337  -0.448684  0  2.039054  0
O  O144  1  0.04724146  0.94130835  0.35435794  1  -1.164875  0  -0.327803  -0.544153  0  2.316905  0
O  O145  1  0.48219517  0.69211160  0.22335472  1  -1.144868  0  -0.323688  -0.564187  0  2.37386  0
O  O146  1  0.34687775  0.66160989  0.06226342  1  -1.15466  0  -0.326899  -0.550384  0  2.322513  0
O  O147  1  0.91879565  0.92069833  0.24661540  1  -1.087335  0  -0.284946  -0.483945  0  2.046688  0
O  O148  1  0.15802413  0.78695629  0.05761701  1  -1.114416  0  -0.286649  -0.493082  0  2.059887  0
O  O149  1  0.86658845  0.82976754  0.81688358  1  -1.057206  0  -0.263047  -0.448513  0  2.039233  0
O  O150  1  0.45252328  0.44105071  0.14578490  1  -1.165869  0  -0.328236  -0.54487  0  2.315154  0
O  O151  1  0.01768691  0.19183706  0.27652929  1  -1.145946  0  -0.323509  -0.563098  0  2.374782  0
O  O152  1  0.15316714  0.16144372  0.43768426  1  -1.15517  0  -0.326901  -0.550454  0  2.322359  0
O  O153  1  0.58137946  0.42111650  0.25345890  1  -1.090261  0  -0.284587  -0.483348  0  2.047246  0
O  O154  1  0.34145802  0.28746110  0.44250387  1  -1.115162  0  -0.286266  -0.492389  0  2.058384  0
O  O155  1  0.63345534  0.32963866  0.68311402  1  -1.056602  0  -0.26257  -0.44785  0  2.038711  0
