# generated using pymatgen
data_LaH16C18NO8
_symmetry_space_group_name_H-M   'P 1'
_cell_length_a   13.31106773
_cell_length_b   14.10956724
_cell_length_c   14.86660398
_cell_angle_alpha   96.23588512
_cell_angle_beta   89.99969473
_cell_angle_gamma   118.16108295
_symmetry_Int_Tables_number   1
_chemical_formula_structural   LaH16C18NO8
_chemical_formula_sum   'La4 H64 C72 N4 O32'
_cell_volume   2442.87071067
_cell_formula_units_Z   4
loop_
 _symmetry_equiv_pos_site_id
 _symmetry_equiv_pos_as_xyz
  1  'x, y, z'
loop_
 _atom_site_type_symbol
 _atom_site_label
 _atom_site_symmetry_multiplicity
 _atom_site_fract_x
 _atom_site_fract_y
 _atom_site_fract_z
 _atom_site_occupancy
 _atom_site_pbe_bader_charge
 _atom_site_pbe_bader_spin_density
 _atom_site_pbe_cm5_charge
 _atom_site_pbe_ddec_charge
 _atom_site_pbe_ddec_spin_density
 _atom_site_pbe_ddec_sum_bond_order
 _atom_site_pbe_magmom
La  La0  1  0.95707182  0.33726008  0.46831589  1  2.240681  0  1.402734  1.856633  0  2.421653  0
La  La1  1  0.61983752  0.66274684  0.03171347  1  2.241188  0  1.402702  1.856994  0  2.421113  0
La  La2  1  0.04292749  0.66273769  0.53168302  1  2.24068  0  1.402761  1.85661  0  2.421526  0
La  La3  1  0.38016497  0.33725579  0.96828661  1  2.241322  0  1.402713  1.856932  0  2.421097  0
H  H4  1  0.16591738  0.01241523  0.39517865  1  0.092665  0  0.107  0.11156  0  0.996269  0
H  H5  1  0.15293418  0.98721733  0.10500926  1  0.09126  0  0.107068  0.111821  0  0.995766  0
H  H6  1  0.83407575  0.98757768  0.60482244  1  0.092783  0  0.106968  0.111436  0  0.996371  0
H  H7  1  0.84705652  0.01278125  0.89499242  1  0.091098  0  0.107065  0.111808  0  0.995772  0
H  H8  1  0.30529745  0.18326893  0.33817708  1  0.074832  0  0.105499  0.109605  0  0.997619  0
H  H9  1  0.12181062  0.81641765  0.16179817  1  0.065318  0  0.105676  0.109969  0  0.997471  0
H  H10  1  0.69469458  0.81672479  0.66182007  1  0.074506  0  0.105529  0.109652  0  0.997595  0
H  H11  1  0.87818823  0.18357769  0.83820049  1  0.065309  0  0.105686  0.10997  0  0.997564  0
H  H12  1  0.57605303  0.10598890  0.38832988  1  0.06967  0  0.105355  0.11279  0  1.015045  0
H  H13  1  0.46992326  0.89420793  0.11133560  1  0.098469  0  0.105358  0.113097  0  1.015231  0
H  H14  1  0.42394583  0.89401698  0.61167457  1  0.069628  0  0.105345  0.112773  0  1.015022  0
H  H15  1  0.53007356  0.10579389  0.88866238  1  0.09865  0  0.105364  0.113084  0  1.015191  0
H  H16  1  0.43315726  0.93266028  0.44149066  1  0.082617  0  0.100429  0.094865  0  1.05516  0
H  H17  1  0.50001970  0.06739993  0.05825392  1  0.101141  0  0.100516  0.095617  0  1.054679  0
H  H18  1  0.56684448  0.06734235  0.55851413  1  0.082363  0  0.100397  0.094811  0  1.055167  0
H  H19  1  0.49996978  0.93259622  0.94174482  1  0.100977  0  0.100557  0.095677  0  1.054609  0
H  H20  1  0.42834996  0.26182936  0.22262124  1  0.095549  0  0.111496  0.116724  0  1.013278  0
H  H21  1  0.16627219  0.73817887  0.27716663  1  0.109506  0  0.111654  0.117151  0  1.013982  0
H  H22  1  0.57164906  0.73817083  0.77737590  1  0.095451  0  0.111511  0.116726  0  1.013298  0
H  H23  1  0.83372088  0.26182295  0.72283000  1  0.109475  0  0.111662  0.117163  0  1.014072  0
H  H24  1  0.73737659  0.56105461  0.28925152  1  0.110943  0  0.114514  0.126518  0  0.990767  0
H  H25  1  0.17563756  0.43885110  0.21065953  1  0.138005  0  0.114339  0.12624  0  0.991545  0
H  H26  1  0.26262006  0.43894236  0.71075470  1  0.111084  0  0.114532  0.126517  0  0.990708  0
H  H27  1  0.82436008  0.56115234  0.78934534  1  0.138015  0  0.114331  0.126187  0  0.991593  0
H  H28  1  0.66325988  0.29182365  0.43817778  1  0.119484  0  0.11407  0.120816  0  1.027508  0
H  H29  1  0.37142344  0.70806953  0.06186217  1  0.129174  0  0.11402  0.121349  0  1.02653  0
H  H30  1  0.33673884  0.70816845  0.56181786  1  0.119686  0  0.114096  0.120872  0  1.027539  0
H  H31  1  0.62857934  0.29193067  0.93814170  1  0.129187  0  0.113996  0.121304  0  1.026623  0
H  H32  1  0.87016762  0.37398467  0.25224423  1  0.104648  0  0.129308  0.047798  0  0.996333  0
H  H33  1  0.49660763  0.62614105  0.24796671  1  0.104809  0  0.129372  0.048116  0  0.995922  0
H  H34  1  0.12983105  0.62600581  0.74775057  1  0.104503  0  0.129262  0.047704  0  0.996167  0
H  H35  1  0.50339388  0.37386563  0.75202639  1  0.104622  0  0.129376  0.04806  0  0.995705  0
H  H36  1  0.64536097  0.25607233  0.10309859  1  0.085892  0  0.109156  0.132969  0  0.997538  0
H  H37  1  0.38954304  0.74390761  0.39704242  1  0.096113  0  0.108991  0.132815  0  0.996878  0
H  H38  1  0.35463389  0.74391653  0.89690411  1  0.085897  0  0.10919  0.133048  0  0.997506  0
H  H39  1  0.61045754  0.25609421  0.60295018  1  0.095881  0  0.108987  0.132864  0  0.996817  0
H  H40  1  0.76221057  0.25507656  0.04451799  1  0.064476  0  0.102983  0.118862  0  1.007217  0
H  H41  1  0.50737160  0.74492545  0.45568454  1  0.088764  0  0.102923  0.118838  0  1.006904  0
H  H42  1  0.23778660  0.74491392  0.95548151  1  0.064227  0  0.102983  0.118848  0  1.007118  0
H  H43  1  0.49263146  0.25507232  0.54430899  1  0.088765  0  0.102923  0.118865  0  1.007022  0
H  H44  1  0.78551396  0.36776513  0.12615960  1  0.049226  0  0.113668  0.127568  0  0.981995  0
H  H45  1  0.41802249  0.63227756  0.37397261  1  0.045497  0  0.113272  0.127305  0  0.981775  0
H  H46  1  0.21448466  0.63222373  0.87384108  1  0.049125  0  0.113697  0.12763  0  0.982021  0
H  H47  1  0.58198335  0.36772425  0.62601729  1  0.0455  0  0.113299  0.127378  0  0.981741  0
H  H48  1  0.74553030  0.08313372  0.21581689  1  0.071667  0  0.116201  0.133778  0  0.992159  0
H  H49  1  0.66273157  0.91704626  0.28441296  1  0.093705  0  0.11628  0.134  0  0.992092  0
H  H50  1  0.25446686  0.91685676  0.78418396  1  0.071768  0  0.116201  0.133764  0  0.992111  0
H  H51  1  0.33727509  0.08295718  0.71558518  1  0.093475  0  0.116244  0.13398  0  0.992027  0
H  H52  1  0.69343711  0.07648082  0.10264290  1  0.078012  0  0.10839  0.125618  0  0.998792  0
H  H53  1  0.61720585  0.92362077  0.39759396  1  0.075334  0  0.108244  0.125795  0  0.998426  0
H  H54  1  0.30656428  0.92351210  0.89735888  1  0.07766  0  0.108398  0.125649  0  0.998834  0
H  H55  1  0.38280224  0.07638105  0.60240738  1  0.074897  0  0.108221  0.125762  0  0.99839  0
H  H56  1  0.61168555  0.08081486  0.19692661  1  0.084717  0  0.10423  0.116761  0  1.012616  0
H  H57  1  0.53111397  0.91915522  0.30326556  1  0.079539  0  0.104254  0.117244  0  1.012175  0
H  H58  1  0.38831590  0.91917967  0.80307196  1  0.084515  0  0.104224  0.116778  0  1.012525  0
H  H59  1  0.46889772  0.08085227  0.69673569  1  0.079476  0  0.104251  0.117281  0  1.012167  0
H  H60  1  0.13547872  0.27095019  0.46439962  1  0.625518  0  0.318538  0.405826  0  0.896573  0
H  H61  1  0.86447331  0.72892790  0.03570949  1  0.62633  0  0.318539  0.406047  0  0.896203  0
H  H62  1  0.86452296  0.72905082  0.53560567  1  0.625724  0  0.318587  0.405835  0  0.896498  0
H  H63  1  0.13553114  0.27107716  0.96428613  1  0.626345  0  0.318547  0.406032  0  0.896223  0
H  H64  1  0.01902677  0.16610054  0.45359052  1  0.643534  0  0.315635  0.406602  0  0.900149  0
H  H65  1  0.85292766  0.83378434  0.04656267  1  0.632849  0  0.315262  0.40665  0  0.900286  0
H  H66  1  0.98097486  0.83389886  0.54641528  1  0.643727  0  0.315667  0.406615  0  0.900109  0
H  H67  1  0.14707611  0.16622235  0.95344253  1  0.632828  0  0.31521  0.40663  0  0.900299  0
C  C68  1  0.21111752  0.86436702  0.46397515  1  1.548622  0  0.195149  0.570979  0  4.233561  0
C  C69  1  0.34619651  0.13551642  0.03596010  1  1.537501  0  0.195105  0.571818  0  4.232284  0
C  C70  1  0.78888491  0.13563399  0.53602746  1  1.54818  0  0.195149  0.571  0  4.233593  0
C  C71  1  0.65380084  0.86448946  0.96404434  1  1.536774  0  0.195084  0.571786  0  4.232175  0
C  C72  1  0.29184904  0.96282381  0.42283314  1  -0.020182  0  -0.022827  -0.045303  0  3.991337  0
C  C73  1  0.32850054  0.03704917  0.07703226  1  0.012012  0  -0.023214  -0.046205  0  3.991239  0
C  C74  1  0.70815345  0.03717882  0.57717098  1  -0.020564  0  -0.02283  -0.045387  0  3.991246  0
C  C75  1  0.67149288  0.96295184  0.92296967  1  0.011616  0  -0.023073  -0.045857  0  3.991202  0
C  C76  1  0.25553305  0.03278402  0.39205869  1  -0.093501  0  -0.081318  -0.082362  0  3.977111  0
C  C77  1  0.22229418  0.96698011  0.10788805  1  -0.016297  0  -0.080196  -0.081713  0  3.976724  0
C  C78  1  0.74446280  0.96721132  0.60794534  1  -0.093521  0  -0.081274  -0.082175  0  3.977136  0
C  C79  1  0.77769999  0.03302090  0.89211320  1  -0.015635  0  -0.080243  -0.081859  0  3.97653  0
C  C80  1  0.33383752  0.12803283  0.35999701  1  0.007658  0  -0.087502  -0.133848  0  3.971625  0
C  C81  1  0.20550944  0.87178136  0.13990023  1  -0.080385  0  -0.088327  -0.134552  0  3.971209  0
C  C82  1  0.66615798  0.87196332  0.64000240  1  0.008237  0  -0.087574  -0.133959  0  3.971685  0
C  C83  1  0.79448860  0.12822288  0.86009732  1  -0.080083  0  -0.088284  -0.134446  0  3.971112  0
C  C84  1  0.45050453  0.15666817  0.35942752  1  -0.022459  0  -0.004381  0.072839  0  4.004331  0
C  C85  1  0.29364038  0.84327512  0.14038088  1  -0.035473  0  -0.004517  0.071861  0  4.004483  0
C  C86  1  0.54948680  0.84332717  0.64057047  1  -0.022504  0  -0.004319  0.072842  0  4.00438  0
C  C87  1  0.70635373  0.15672427  0.85961617  1  -0.035604  0  -0.004607  0.071732  0  4.004731  0
C  C88  1  0.48581248  0.08473266  0.38804862  1  -0.099091  0  -0.093625  -0.147662  0  3.981383  0
C  C89  1  0.40083646  0.91530086  0.11169804  1  -0.091809  0  -0.093406  -0.147282  0  3.980789  0
C  C90  1  0.51418470  0.91526835  0.61195331  1  -0.09917  0  -0.093614  -0.147627  0  3.98142  0
C  C91  1  0.59916031  0.08469934  0.88829910  1  -0.092135  0  -0.093313  -0.147132  0  3.980871  0
C  C92  1  0.40682274  0.98853900  0.41830597  1  -0.038154  0  -0.088357  -0.101685  0  4.012015  0
C  C93  1  0.41782565  0.01141438  0.08144406  1  -0.079505  0  -0.08887  -0.103177  0  4.011929  0
C  C94  1  0.59317716  0.01146444  0.58170092  1  -0.037703  0  -0.088378  -0.101665  0  4.011958  0
C  C95  1  0.58216586  0.98858582  0.91855308  1  -0.079464  0  -0.089039  -0.103472  0  4.012001  0
C  C96  1  0.53385613  0.26368203  0.33471368  1  0.029456  0  -0.009246  0.057727  0  4.01752  0
C  C97  1  0.26998196  0.73627627  0.16514318  1  -0.046163  0  -0.009272  0.059708  0  4.015124  0
C  C98  1  0.46614515  0.73631817  0.66528345  1  0.029162  0  -0.009321  0.057777  0  4.017685  0
C  C99  1  0.73001712  0.26372555  0.83485681  1  -0.046053  0  -0.009292  0.059707  0  4.015133  0
C  C100  1  0.50731810  0.30860270  0.26470552  1  -0.023304  0  -0.073496  -0.125824  0  3.908402  0
C  C101  1  0.19837526  0.69137345  0.23506935  1  -0.043925  0  -0.073006  -0.125988  0  3.908117  0
C  C102  1  0.49268145  0.69140155  0.73529338  1  -0.023183  0  -0.073489  -0.125847  0  3.908471  0
C  C103  1  0.80162579  0.30863080  0.76493291  1  -0.043771  0  -0.073028  -0.126056  0  3.908311  0
C  C104  1  0.58145105  0.41396276  0.24659212  1  -0.056975  0  -0.018442  -0.039022  0  3.993649  0
C  C105  1  0.16696856  0.58600468  0.25320529  1  0.035497  0  -0.018771  -0.039872  0  3.994809  0
C  C106  1  0.41854878  0.58603906  0.75340720  1  -0.056866  0  -0.018397  -0.038866  0  3.993513  0
C  C107  1  0.83302833  0.41399876  0.74679622  1  0.035513  0  -0.018716  -0.039755  0  3.994821  0
C  C108  1  0.68162430  0.47759487  0.30104251  1  -0.013133  0  -0.074114  -0.109112  0  3.927737  0
C  C109  1  0.20347151  0.52230889  0.19882940  1  -0.090735  0  -0.07382  -0.108591  0  3.92838  0
C  C110  1  0.31837513  0.52240614  0.69896077  1  -0.013314  0  -0.07418  -0.109235  0  3.927858  0
C  C111  1  0.79652497  0.47769374  0.80117202  1  -0.090795  0  -0.073836  -0.108557  0  3.928472  0
C  C112  1  0.71011146  0.43270048  0.36980896  1  -0.059788  0  -0.017303  -0.042396  0  4.015319  0
C  C113  1  0.27711141  0.56719579  0.13018030  1  -0.008576  0  -0.017758  -0.041816  0  4.013569  0
C  C114  1  0.28988514  0.56729486  0.63019171  1  -0.059756  0  -0.017253  -0.042294  0  4.015133  0
C  C115  1  0.72288496  0.43280360  0.86982012  1  -0.009413  0  -0.017769  -0.041801  0  4.013576  0
C  C116  1  0.63860657  0.32552469  0.38491148  1  -0.060747  0  -0.073593  -0.137877  0  3.908667  0
C  C117  1  0.31294559  0.67441138  0.11508062  1  -0.066578  0  -0.073518  -0.13984  0  3.908445  0
C  C118  1  0.36139459  0.67447227  0.61508398  1  -0.060592  0  -0.073594  -0.138016  0  3.90855  0
C  C119  1  0.68705493  0.32558882  0.88492325  1  -0.066666  0  -0.073472  -0.13981  0  3.908453  0
C  C120  1  0.81550442  0.50092161  0.42923320  1  1.568318  0  0.221872  0.615848  0  4.177569  0
C  C121  1  0.31451217  0.49902379  0.07093697  1  1.570225  0  0.221422  0.615681  0  4.177508  0
C  C122  1  0.18449645  0.49907779  0.57076789  1  1.568225  0  0.221876  0.615874  0  4.177611  0
C  C123  1  0.68548842  0.50097804  0.92906572  1  1.571081  0  0.221355  0.615496  0  4.177907  0
C  C124  1  0.55089088  0.45712306  0.16908213  1  1.593324  0  0.227568  0.616406  0  4.189279  0
C  C125  1  0.09336544  0.54295937  0.33076100  1  1.567227  0  0.228622  0.617863  0  4.187768  0
C  C126  1  0.44912005  0.54288443  0.83091778  1  1.593293  0  0.227438  0.616238  0  4.189335  0
C  C127  1  0.90662977  0.45704974  0.66923975  1  1.567207  0  0.228604  0.617837  0  4.18766  0
C  C128  1  0.82739047  0.28558336  0.25401523  1  1.39048  0  0.188827  0.316254  0  4.111408  0
C  C129  1  0.54223486  0.71454199  0.24620037  1  1.383531  0  0.188115  0.313984  0  4.110563  0
C  C130  1  0.17261341  0.71441603  0.74597914  1  1.390337  0  0.188893  0.316425  0  4.111664  0
C  C131  1  0.45776180  0.28545497  0.75380249  1  1.384053  0  0.188092  0.314056  0  4.110916  0
C  C132  1  0.73671570  0.27951133  0.10962415  1  0.281778  0  -0.127331  -0.280561  0  3.898187  0
C  C133  1  0.45750378  0.72052103  0.39054940  1  0.257283  0  -0.126741  -0.280431  0  3.895302  0
C  C134  1  0.26328112  0.72047996  0.89037274  1  0.282532  0  -0.127532  -0.280854  0  3.898375  0
C  C135  1  0.54249634  0.27947836  0.60944564  1  0.25747  0  -0.12687  -0.280727  0  3.895684  0
C  C136  1  0.69861463  0.10987161  0.17371875  1  0.239888  0  -0.127701  -0.264266  0  3.862854  0
C  C137  1  0.58904847  0.89020046  0.32650437  1  0.226182  0  -0.127885  -0.266127  0  3.862586  0
C  C138  1  0.30138410  0.89012049  0.82628227  1  0.240302  0  -0.127785  -0.264422  0  3.862892  0
C  C139  1  0.41096119  0.10980298  0.67349781  1  0.226925  0  -0.127879  -0.266152  0  3.862535  0
N  N140  1  0.75873152  0.22770863  0.18110647  1  -1.21784  0  -0.275509  0.03564  0  3.711577  0
N  N141  1  0.53139561  0.77237678  0.31910456  1  -1.224661  0  -0.27536  0.037428  0  3.708511  0
N  N142  1  0.24127212  0.77228428  0.81889395  1  -1.217902  0  -0.275369  0.035768  0  3.711594  0
N  N143  1  0.46860943  0.22762341  0.68088585  1  -1.224589  0  -0.275283  0.037436  0  3.708442  0
O  O144  1  0.10773964  0.84618988  0.47313655  1  -1.207651  0  -0.384819  -0.635382  0  2.171192  0
O  O145  1  0.26107459  0.15380116  0.02700396  1  -1.202283  0  -0.384796  -0.635584  0  2.171254  0
O  O146  1  0.89226349  0.15380951  0.52686588  1  -1.207288  0  -0.384853  -0.635391  0  2.171209  0
O  O147  1  0.73892670  0.84620958  0.97301108  1  -1.202111  0  -0.384798  -0.635596  0  2.171124  0
O  O148  1  0.24613692  0.80107608  0.48978356  1  -1.188871  0  -0.363375  -0.603115  0  2.189279  0
O  O149  1  0.44450800  0.19874223  0.01002089  1  -1.189188  0  -0.363641  -0.60329  0  2.188524  0
O  O150  1  0.75386355  0.19892251  0.51021812  1  -1.188799  0  -0.36333  -0.603044  0  2.189216  0
O  O151  1  0.55548605  0.80125554  0.98997600  1  -1.188734  0  -0.363619  -0.603318  0  2.188433  0
O  O152  1  0.86852069  0.45561675  0.46265685  1  -1.217729  0  -0.401637  -0.66473  0  2.354225  0
O  O153  1  0.41292315  0.54447710  0.03768288  1  -1.216641  0  -0.401281  -0.664917  0  2.355669  0
O  O154  1  0.13148353  0.54438183  0.53734013  1  -1.217638  0  -0.401578  -0.664671  0  2.354229  0
O  O155  1  0.58707825  0.45552634  0.96231930  1  -1.216698  0  -0.401268  -0.664837  0  2.355695  0
O  O156  1  0.85033896  0.60210087  0.44556682  1  -1.194872  0  -0.360492  -0.601556  0  2.174679  0
O  O157  1  0.24829613  0.39780078  0.05464401  1  -1.197095  0  -0.360118  -0.601519  0  2.174492  0
O  O158  1  0.14965954  0.39789529  0.55443730  1  -1.194954  0  -0.360538  -0.601622  0  2.174655  0
O  O159  1  0.75170543  0.60219700  0.94535893  1  -1.197036  0  -0.360065  -0.601415  0  2.174784  0
O  O160  1  0.61842498  0.55356387  0.15401826  1  -1.201375  0  -0.376712  -0.625554  0  2.240748  0
O  O161  1  0.06442945  0.44653839  0.34587926  1  -1.199322  0  -0.377172  -0.626387  0  2.239738  0
O  O162  1  0.38158896  0.44644362  0.84598030  1  -1.201333  0  -0.37666  -0.625444  0  2.240652  0
O  O163  1  0.93555946  0.55346262  0.65412065  1  -1.199585  0  -0.377127  -0.626284  0  2.239843  0
O  O164  1  0.45771084  0.39327725  0.12372081  1  -1.206952  0  -0.394749  -0.623544  0  2.315017  0
O  O165  1  0.06417630  0.60689463  0.37613517  1  -1.203012  0  -0.395229  -0.623844  0  2.314212  0
O  O166  1  0.54229680  0.60673267  0.87627531  1  -1.206995  0  -0.394663  -0.62349  0  2.315101  0
O  O167  1  0.93582093  0.39310800  0.62385952  1  -1.202736  0  -0.395276  -0.623944  0  2.313929  0
O  O168  1  0.84362483  0.24469694  0.31974320  1  -1.1886  0  -0.355807  -0.513964  0  2.30671  0
O  O169  1  0.59936617  0.75544876  0.18046555  1  -1.182225  0  -0.35484  -0.51244  0  2.30415  0
O  O170  1  0.15638251  0.75529435  0.68025907  1  -1.188666  0  -0.355785  -0.513917  0  2.307209  0
O  O171  1  0.40064985  0.24456439  0.81952350  1  -1.182676  0  -0.354792  -0.512321  0  2.305092  0
O  O172  1  0.07183307  0.22476847  0.42027065  1  -1.242919  0  -0.600274  -0.773283  0  1.881331  0
O  O173  1  0.84702587  0.77508321  0.07985883  1  -1.23216  0  -0.600015  -0.773748  0  1.880818  0
O  O174  1  0.92817012  0.77523255  0.57973397  1  -1.243322  0  -0.600334  -0.773277  0  1.881238  0
O  O175  1  0.15297894  0.22492104  0.92014209  1  -1.232139  0  -0.599965  -0.773686  0  1.880863  0
