# generated using pymatgen
data_MnP2H18C12(NO4)2
_symmetry_space_group_name_H-M   'P 1'
_cell_length_a   9.38520026
_cell_length_b   9.38518793
_cell_length_c   9.62659714
_cell_angle_alpha   100.94028824
_cell_angle_beta   100.94030607
_cell_angle_gamma   100.81026119
_symmetry_Int_Tables_number   1
_chemical_formula_structural   MnP2H18C12(NO4)2
_chemical_formula_sum   'Mn2 P4 H36 C24 N4 O16'
_cell_volume   795.09925770
_cell_formula_units_Z   2
loop_
 _symmetry_equiv_pos_site_id
 _symmetry_equiv_pos_as_xyz
  1  'x, y, z'
loop_
 _atom_site_type_symbol
 _atom_site_label
 _atom_site_symmetry_multiplicity
 _atom_site_fract_x
 _atom_site_fract_y
 _atom_site_fract_z
 _atom_site_occupancy
 _atom_site_hle17_ddec_charge
 _atom_site_hle17_ddec_spin_density
 _atom_site_hle17_ddec_sum_bond_order
 _atom_site_hle17_magmom
 _atom_site_hse06_10hf_ddec_charge
 _atom_site_hse06_10hf_ddec_spin_density
 _atom_site_hse06_10hf_ddec_sum_bond_order
 _atom_site_hse06_10hf_magmom
 _atom_site_hse06_ddec_charge
 _atom_site_hse06_ddec_spin_density
 _atom_site_hse06_ddec_sum_bond_order
 _atom_site_hse06_magmom
 _atom_site_pbe_cm5_charge
 _atom_site_pbe_ddec_charge
 _atom_site_pbe_ddec_spin_density
 _atom_site_pbe_ddec_sum_bond_order
 _atom_site_pbe_magmom
Mn  Mn0  1  0.77687532  0.22312241  0.75000041  1  1.03249  -1.376223  2.521004  -1.334  0.944923  -1.334385  3.055984  -1.29  1.007134  -1.330946  2.990088  -1.282  0.709416  0.899977  -1.270711  3.102662  -1.228
Mn  Mn1  1  0.22312324  0.77687803  0.24999830  1  1.032519  -1.375824  2.520742  -1.333  0.94484  -1.334005  3.055747  -1.29  1.006981  -1.330254  2.98988  -1.281  0.709347  0.899928  -1.27057  3.102394  -1.228
P  P2  1  0.69078450  0.39771262  0.05999032  1  1.492145  -0.000654  4.745716  0.0  1.337496  -0.000292  5.244275  0.0  1.3843  0.000422  5.211794  0.0  0.369493  1.304818  -0.00065  5.264963  0.0
P  P3  1  0.60228527  0.30921494  0.44001182  1  1.492167  -0.000643  4.745782  0.0  1.337519  -0.000292  5.244331  0.0  1.384323  0.00042  5.211847  0.0  0.369474  1.30484  -0.00065  5.26502  0.0
P  P4  1  0.30920884  0.60228881  0.94001903  1  1.492424  -0.000642  4.745754  0.0  1.337729  -0.000292  5.244346  0.0  1.384523  0.000423  5.211866  0.0  0.369611  1.305044  -0.000648  5.265036  0.0
P  P5  1  0.39771425  0.69078996  0.55998373  1  1.49238  -0.00065  4.746015  0.0  1.337709  -0.00029  5.244612  0.0  1.384505  0.000422  5.212138  0.0  0.369559  1.305016  -0.000648  5.265303  0.0
H  H6  1  0.57834056  0.21886537  0.15934891  1  0.436155  -7.7e-05  0.872715  0.0  0.399566  -7.9e-05  0.944416  0.0  0.410889  -5.9e-05  0.92838  0.0  0.302198  0.391605  -2.2e-05  0.955651  0.0
H  H7  1  0.78113085  0.42165928  0.34065302  1  0.436157  -7.7e-05  0.872719  0.0  0.399543  -7.9e-05  0.944458  0.0  0.410868  -5.9e-05  0.928419  0.0  0.3022  0.39158  -2.2e-05  0.955694  0.0
H  H8  1  0.42165316  0.78113274  0.84065366  1  0.436156  -7.7e-05  0.872697  0.0  0.399487  -7.8e-05  0.944522  0.0  0.410809  -5.8e-05  0.928488  0.0  0.302171  0.391524  -2.2e-05  0.955759  0.0
H  H9  1  0.21886648  0.57834557  0.65934628  1  0.436202  -7.8e-05  0.87264  0.0  0.399545  -7.8e-05  0.944445  0.0  0.410866  -5.8e-05  0.928413  0.0  0.3022  0.391584  -2.2e-05  0.955679  0.0
H  H10  1  0.01627029  0.44560971  0.74895013  1  0.441261  -0.000695  0.85721  -0.002  0.414579  0.000429  0.912789  0.0  0.42349  0.000759  0.900339  0.001  0.304472  0.408109  0.000171  0.921825  0.0
H  H11  1  0.55438693  0.98372876  0.75105040  1  0.441258  -0.000695  0.857206  -0.002  0.414564  0.000429  0.912801  0.0  0.423476  0.000759  0.900349  0.001  0.304479  0.40809  0.000171  0.921842  0.0
H  H12  1  0.98373443  0.55439417  0.25105243  1  0.441293  -0.000694  0.857243  -0.002  0.414643  0.000431  0.91276  0.0  0.423537  0.000759  0.900331  0.001  0.304469  0.408174  0.000172  0.921795  0.0
H  H13  1  0.44560475  0.01626487  0.24894680  1  0.441267  -0.000694  0.857286  -0.002  0.414617  0.000431  0.912803  0.0  0.423509  0.000759  0.900378  0.001  0.304463  0.408146  0.000172  0.921839  0.0
H  H14  1  0.87662600  0.41375226  0.60769117  1  0.428512  0.001285  0.868811  0.001  0.402975  -0.000545  0.922311  -0.001  0.412299  -0.000947  0.909034  -0.002  0.310032  0.396295  -8.1e-05  0.931834  0.0
H  H15  1  0.58624624  0.12337243  0.89231092  1  0.428476  0.001285  0.86886  0.001  0.402938  -0.000545  0.922362  -0.001  0.412263  -0.000948  0.909082  -0.002  0.31001  0.396259  -8.1e-05  0.931883  0.0
H  H16  1  0.12336844  0.58624921  0.39230696  1  0.428535  0.001283  0.868805  0.001  0.402981  -0.000546  0.922329  -0.001  0.412302  -0.000948  0.909056  -0.002  0.310001  0.396302  -8.2e-05  0.93185  0.0
H  H17  1  0.41375000  0.87663240  0.10769128  1  0.428522  0.001282  0.868818  0.001  0.40296  -0.000546  0.922354  -0.001  0.41228  -0.000948  0.909083  -0.002  0.310008  0.396283  -8.2e-05  0.931874  0.0
H  H18  1  0.53208643  0.53452344  0.16753466  1  0.12298  -0.000164  0.951315  0.0  0.140013  -3.9e-05  1.005361  0.0  0.141619  4.8e-05  1.005646  0.0  0.107722  0.138283  -0.000145  1.006309  0.0
H  H19  1  0.46548075  0.46791418  0.33246773  1  0.122927  -0.000163  0.951311  0.0  0.140013  -3.9e-05  1.00529  0.0  0.141592  4.9e-05  1.005612  0.0  0.107723  0.138276  -0.000145  1.006247  0.0
H  H20  1  0.46791318  0.46548701  0.83246817  1  0.122951  -0.000165  0.95129  0.0  0.140009  -3.9e-05  1.005341  0.0  0.141587  4.8e-05  1.005664  0.0  0.107714  0.138275  -0.000146  1.00629  0.0
H  H21  1  0.53451406  0.53208396  0.66753608  1  0.122905  -0.000163  0.951314  0.0  0.140041  -3.9e-05  1.005274  0.0  0.141638  4.8e-05  1.005569  0.0  0.107734  0.138304  -0.000146  1.006227  0.0
H  H22  1  0.63527673  0.63415383  0.06647306  1  0.123376  0.000272  0.955724  0.0  0.138733  0.000319  1.014813  0.0  0.139545  0.000298  1.01647  0.0  0.106391  0.138262  0.000299  1.013525  0.0
H  H23  1  0.36584519  0.36472281  0.43352714  1  0.123372  0.000269  0.955726  0.0  0.1387  0.000319  1.014842  0.0  0.139512  0.000297  1.016494  0.0  0.106385  0.138228  0.000299  1.013552  0.0
H  H24  1  0.36472002  0.36584324  0.93352364  1  0.123271  0.000272  0.955814  0.0  0.138659  0.00032  1.014897  0.0  0.139472  0.000299  1.016551  0.0  0.106369  0.138185  0.0003  1.013604  0.0
H  H25  1  0.63415834  0.63527549  0.56647832  1  0.123321  0.000271  0.95579  0.0  0.138715  0.00032  1.014891  0.0  0.139527  0.000298  1.016548  0.0  0.106401  0.138241  0.0003  1.013599  0.0
H  H26  1  0.04567283  0.81700742  0.64612205  1  0.111018  0.000386  0.93971  0.001  0.120884  0.000329  0.999135  0.0  0.124794  0.000372  0.996876  0.0  0.108894  0.118365  0.000282  1.000431  0.0
H  H27  1  0.18299437  0.95432626  0.85387518  1  0.111001  0.000388  0.93972  0.001  0.120868  0.000329  0.999149  0.0  0.124777  0.000372  0.996893  0.0  0.108908  0.11835  0.000282  1.000445  0.0
H  H28  1  0.95432041  0.18298847  0.35387586  1  0.110998  0.000386  0.939605  0.001  0.120823  0.00033  0.999088  0.0  0.124736  0.000373  0.996827  0.0  0.108876  0.118306  0.000282  1.000386  0.0
H  H29  1  0.81701918  0.04568337  0.14611555  1  0.111008  0.000387  0.939633  0.001  0.120806  0.00033  0.999143  0.0  0.12471  0.000373  0.996881  0.0  0.108869  0.118288  0.000282  1.00044  0.0
H  H30  1  0.87665686  0.68599608  0.40368269  1  0.098174  -0.00078  0.969535  -0.002  0.106606  0.000524  1.033388  0.0  0.111221  0.000453  1.028544  -0.001  0.103422  0.103183  0.000562  1.037247  0.0
H  H31  1  0.31400819  0.12334645  0.09631301  1  0.098243  -0.000782  0.969503  -0.002  0.10666  0.000523  1.033363  0.0  0.111294  0.000452  1.0285  -0.001  0.103464  0.103224  0.000562  1.037236  0.0
H  H32  1  0.12334183  0.31399991  0.59631626  1  0.09818  -0.000778  0.969484  -0.002  0.106619  0.000523  1.033341  0.0  0.111237  0.000451  1.028493  -0.001  0.103407  0.103198  0.000561  1.037204  0.0
H  H33  1  0.68599967  0.87666195  0.90368162  1  0.0982  -0.000782  0.969477  -0.002  0.106624  0.000523  1.033348  0.0  0.111244  0.000452  1.028499  -0.001  0.103412  0.103216  0.000561  1.037193  0.0
H  H34  1  0.65513226  0.78958014  0.31231731  1  0.111243  0.000292  0.950779  0.0  0.120482  -3.9e-05  1.010712  0.0  0.124071  -0.000146  1.009352  0.0  0.108261  0.117503  4.8e-05  1.012375  0.0
H  H35  1  0.21042134  0.34486865  0.18767731  1  0.111205  0.000288  0.950773  0.0  0.120459  -3.9e-05  1.010698  0.0  0.124049  -0.000146  1.009336  0.0  0.108269  0.117476  4.8e-05  1.012369  0.0
H  H36  1  0.34486545  0.21042139  0.68768247  1  0.111157  0.00029  0.950809  0.0  0.120462  -4e-05  1.010685  0.0  0.12405  -0.000146  1.009326  0.0  0.108221  0.117468  4.7e-05  1.01237  0.0
H  H37  1  0.78957699  0.65513068  0.81231698  1  0.111249  0.000294  0.950698  0.0  0.120493  -4e-05  1.010634  0.0  0.124081  -0.000146  1.009275  0.0  0.108272  0.117513  4.7e-05  1.012302  0.0
H  H38  1  0.61857037  0.01791012  0.46054121  1  0.091645  -0.000167  0.977846  -0.001  0.096634  0.000611  1.045917  0.0  0.099897  0.000557  1.041917  0.0  0.124059  0.094387  0.000565  1.048558  0.0
H  H39  1  0.98208569  0.38142646  0.03946120  1  0.091638  -0.000166  0.977821  -0.001  0.096626  0.000611  1.045898  0.0  0.099894  0.000556  1.041894  0.0  0.124069  0.094376  0.000565  1.048541  0.0
H  H40  1  0.38142722  0.98208584  0.53946894  1  0.091776  -0.000164  0.977959  -0.001  0.096756  0.00061  1.046001  0.0  0.100021  0.000556  1.041999  0.0  0.124148  0.094509  0.000565  1.048635  0.0
H  H41  1  0.01791325  0.61857065  0.96053280  1  0.091788  -0.000167  0.977813  -0.001  0.096779  0.00061  1.045893  0.0  0.100044  0.000556  1.041891  0.0  0.124151  0.094527  0.000565  1.048528  0.0
C  C42  1  0.56757541  0.52418364  0.06439810  1  -0.396927  -0.000297  3.726748  0.0  -0.419816  0.000375  3.978592  0.0  -0.427273  0.000629  3.988344  0.0  -0.165258  -0.414412  0.00011  3.971725  0.0
C  C43  1  0.47581570  0.43242262  0.43560605  1  -0.396839  -0.0003  3.72675  0.0  -0.419726  0.000376  3.978651  0.0  -0.427166  0.000623  3.988415  0.0  -0.165258  -0.414315  0.000111  3.971778  0.0
C  C44  1  0.43242168  0.47582010  0.93560822  1  -0.396837  -0.0003  3.726661  0.0  -0.419825  0.000377  3.978578  0.0  -0.427268  0.000625  3.988349  0.0  -0.165302  -0.414397  0.00011  3.971692  0.0
C  C45  1  0.52417973  0.56757330  0.56439435  1  -0.396908  -0.000297  3.726784  0.0  -0.419975  0.000376  3.978702  0.0  -0.42743  0.000631  3.988461  0.0  -0.165341  -0.414552  0.00011  3.97182  0.0
C  C46  1  0.92427913  0.98934836  0.67973562  1  0.147592  0.048557  3.791036  0.028  0.141704  0.047518  4.03793  0.026  0.150824  0.051773  4.056658  0.028  0.102263  0.135214  0.036765  4.025729  0.019
C  C47  1  0.01065198  0.07572094  0.82026175  1  0.147756  0.048555  3.791072  0.028  0.141887  0.047517  4.037943  0.026  0.151008  0.05177  4.056667  0.028  0.102345  0.135394  0.036766  4.025747  0.019
C  C48  1  0.07572342  0.01065548  0.32026653  1  0.147859  0.048489  3.790665  0.028  0.141894  0.047454  4.037732  0.026  0.151022  0.051661  4.056441  0.028  0.102324  0.135395  0.036735  4.025551  0.019
C  C49  1  0.98934768  0.92427953  0.17972782  1  0.147868  0.048487  3.790738  0.028  0.141886  0.047457  4.037771  0.026  0.15102  0.051666  4.056473  0.028  0.102319  0.135375  0.036737  4.025605  0.019
C  C50  1  0.95098307  0.85934813  0.60116549  1  -0.13168  -0.01505  3.718598  -0.016  -0.15129  -0.003288  3.977026  -0.007  -0.157325  -0.008396  3.993483  -0.011  -0.081333  -0.148248  0.000719  3.96742  -0.003
C  C51  1  0.14065167  0.04901720  0.89883187  1  -0.131701  -0.015053  3.718701  -0.016  -0.151307  -0.003289  3.977118  -0.007  -0.157342  -0.008398  3.993578  -0.011  -0.081387  -0.148265  0.000718  3.96751  -0.003
C  C52  1  0.04901964  0.14064128  0.39883401  1  -0.131688  -0.015051  3.718781  -0.016  -0.151243  -0.003295  3.97726  -0.007  -0.157278  -0.008391  3.993701  -0.011  -0.081296  -0.148202  0.000712  3.967669  -0.003
C  C53  1  0.85936348  0.95098467  0.10116187  1  -0.131649  -0.015048  3.71892  -0.016  -0.151166  -0.003295  3.977382  -0.007  -0.157187  -0.00839  3.993808  -0.011  -0.08126  -0.14812  0.000712  3.967793  -0.003
C  C54  1  0.85710307  0.78626092  0.46685047  1  -0.022615  0.054635  3.727772  0.034  -0.051437  0.045432  3.996041  0.026  -0.042628  0.050064  4.005208  0.029  -0.087343  -0.058161  0.034291  3.991394  0.02
C  C55  1  0.21373726  0.14289943  0.03314703  1  -0.022771  0.054637  3.727962  0.034  -0.051589  0.045434  3.996249  0.026  -0.042793  0.050071  4.005405  0.029  -0.087395  -0.0583  0.034293  3.99161  0.02
C  C56  1  0.14289334  0.21372947  0.53314805  1  -0.022639  0.054605  3.727987  0.034  -0.05147  0.045403  3.996257  0.026  -0.042648  0.049993  4.005409  0.029  -0.087348  -0.058206  0.034284  3.991616  0.02
C  C57  1  0.78627497  0.85710905  0.96685051  1  -0.022776  0.054606  3.728077  0.034  -0.051604  0.045404  3.996339  0.026  -0.042784  0.049992  4.005488  0.029  -0.087388  -0.058348  0.034286  3.991696  0.02
C  C58  1  0.73536988  0.84401142  0.41472187  1  -0.114392  0.004388  3.732704  0.0  -0.130262  0.011368  3.998475  0.004  -0.134551  0.004184  4.012363  -0.001  -0.08854  -0.126356  0.013197  3.988515  0.006
C  C59  1  0.15598818  0.26463063  0.08527547  1  -0.114313  0.004385  3.73269  0.0  -0.13019  0.011365  3.998461  0.004  -0.134476  0.004186  4.012351  -0.001  -0.088543  -0.12628  0.013195  3.988498  0.006
C  C60  1  0.26462290  0.15598224  0.58527243  1  -0.114334  0.004343  3.73277  0.0  -0.130247  0.011327  3.998521  0.004  -0.134532  0.004143  4.012394  -0.001  -0.088489  -0.126331  0.013171  3.988569  0.006
C  C61  1  0.84401702  0.73537549  0.91472345  1  -0.114312  0.004341  3.732625  0.0  -0.130139  0.011324  3.998373  0.004  -0.134424  0.004142  4.012251  -0.001  -0.088508  -0.126237  0.013169  3.988425  0.006
C  C62  1  0.71294104  0.97199907  0.49665823  1  0.124781  0.032353  3.669467  0.019  0.087212  0.020106  3.935528  0.009  0.099471  0.026513  3.94624  0.013  0.038628  0.077797  0.013259  3.928423  0.005
C  C63  1  0.02799875  0.28705677  0.00334341  1  0.1249  0.032359  3.66939  0.019  0.087336  0.02011  3.935432  0.009  0.099578  0.026509  3.946171  0.013  0.03866  0.077924  0.013261  3.928331  0.005
C  C64  1  0.28706286  0.02799591  0.50335084  1  0.124782  0.032378  3.669323  0.019  0.087218  0.020111  3.935402  0.009  0.09949  0.026493  3.946084  0.013  0.038587  0.0778  0.013271  3.928309  0.005
C  C65  1  0.97200322  0.71293929  0.99664784  1  0.124808  0.032374  3.669181  0.019  0.087126  0.020112  3.935317  0.009  0.099398  0.026493  3.945997  0.013  0.038562  0.077714  0.013272  3.928222  0.005
N  N66  1  0.80585991  0.04752928  0.62688057  1  -0.339883  0.063626  3.318124  0.053  -0.287818  0.05171  3.612297  0.044  -0.313247  0.044038  3.631002  0.035  -0.35913  -0.268631  0.045943  3.597983  0.041
N  N67  1  0.95246859  0.19413779  0.87311929  1  -0.339983  0.063625  3.318197  0.053  -0.287973  0.05171  3.612416  0.044  -0.3134  0.044041  3.631118  0.035  -0.359154  -0.268786  0.045943  3.598103  0.041
N  N68  1  0.19414144  0.95246898  0.37312137  1  -0.340103  0.063562  3.317897  0.053  -0.287957  0.051657  3.61213  0.044  -0.313371  0.043946  3.630819  0.035  -0.35914  -0.268777  0.045925  3.597821  0.041
N  N69  1  0.04753386  0.80586050  0.12687558  1  -0.340099  0.063561  3.317927  0.053  -0.287928  0.051656  3.61211  0.044  -0.313344  0.043946  3.630804  0.035  -0.3591  -0.268745  0.045923  3.597801  0.041
O  O70  1  0.74061007  0.38327091  0.91867401  1  -0.797402  -0.004333  2.003744  -0.001  -0.718064  -0.009776  2.282171  -0.004  -0.75147  -0.007694  2.26741  -0.002  -0.345116  -0.692621  -0.012483  2.290684  -0.007
O  O71  1  0.61672981  0.25939022  0.58133192  1  -0.797331  -0.004338  2.003658  -0.001  -0.718053  -0.009777  2.282228  -0.004  -0.751457  -0.007691  2.267465  -0.002  -0.345088  -0.692614  -0.012485  2.290745  -0.007
O  O72  1  0.25939337  0.61672185  0.08131794  1  -0.797519  -0.004335  2.00416  -0.001  -0.718174  -0.009769  2.282618  -0.004  -0.751571  -0.007685  2.267852  -0.002  -0.345181  -0.69273  -0.012476  2.291125  -0.007
O  O73  1  0.38328304  0.74060603  0.41868424  1  -0.797489  -0.00433  2.00419  -0.001  -0.718128  -0.009768  2.282598  -0.004  -0.751523  -0.007686  2.267831  -0.002  -0.345159  -0.692681  -0.012473  2.291101  -0.007
O  O74  1  0.59392651  0.23697921  0.05927140  1  -0.779194  0.000968  2.028544  0.001  -0.696674  8.4e-05  2.247123  0.0  -0.718213  -7.5e-05  2.222511  0.0  -0.386217  -0.681294  0.000349  2.263774  0.0
O  O75  1  0.76301977  0.40607308  0.44073203  1  -0.779218  0.000966  2.028556  0.001  -0.696679  8.4e-05  2.247152  0.0  -0.718222  -7.5e-05  2.222546  0.0  -0.38623  -0.681297  0.000349  2.263807  0.0
O  O76  1  0.40606939  0.76301894  0.94073261  1  -0.779273  0.000965  2.02852  0.001  -0.696644  8.3e-05  2.247114  0.0  -0.718187  -7.6e-05  2.222512  0.0  -0.386201  -0.681264  0.00035  2.26377  0.0
O  O77  1  0.23698254  0.59392965  0.55926780  1  -0.779306  0.000968  2.028487  0.001  -0.69669  8.3e-05  2.247085  0.0  -0.718233  -7.5e-05  2.222484  0.0  -0.386221  -0.681309  0.00035  2.263739  0.0
O  O78  1  0.81292247  0.45159438  0.20163046  1  -0.862105  0.001298  1.983447  0.001  -0.777002  -0.000121  2.218489  0.0  -0.80276  -0.000152  2.20002  0.0  -0.367671  -0.758465  8e-06  2.230577  0.0
O  O79  1  0.54840457  0.18707408  0.29837241  1  -0.86213  0.001297  1.983425  0.001  -0.777028  -0.000121  2.218441  0.0  -0.802787  -0.000153  2.199982  0.0  -0.367661  -0.758489  8e-06  2.230527  0.0
O  O80  1  0.18707111  0.54840818  0.79837395  1  -0.862196  0.001293  1.983269  0.001  -0.777055  -0.000122  2.218351  0.0  -0.802802  -0.000154  2.199866  0.0  -0.367692  -0.758523  7e-06  2.230447  0.0
O  O81  1  0.45159314  0.81292745  0.70162842  1  -0.862195  0.001294  1.983368  0.001  -0.777041  -0.000123  2.218451  0.0  -0.802797  -0.000152  2.19997  0.0  -0.367675  -0.7585  7e-06  2.230544  0.0
O  O82  1  0.90780557  0.39882714  0.70691144  1  -0.801008  0.002263  2.001258  0.006  -0.747033  0.002557  2.218968  0.005  -0.77857  0.002818  2.191139  0.006  -0.559976  -0.725664  0.002161  2.239391  0.004
O  O83  1  0.60117106  0.09219386  0.79308976  1  -0.800973  0.002262  2.001292  0.006  -0.746999  0.002556  2.219032  0.005  -0.778539  0.002818  2.191201  0.006  -0.559975  -0.72563  0.00216  2.239455  0.004
O  O84  1  0.09218154  0.60115529  0.29308803  1  -0.801059  0.002262  2.001283  0.006  -0.747093  0.002565  2.218949  0.005  -0.778621  0.002824  2.191144  0.006  -0.55993  -0.725724  0.002169  2.239363  0.004
O  O85  1  0.39884515  0.90781802  0.20691123  1  -0.801038  0.002263  2.001358  0.006  -0.747027  0.002567  2.21903  0.005  -0.778555  0.002824  2.191234  0.006  -0.559927  -0.725656  0.002171  2.239444  0.004
