# generated using pymatgen
data_Zn2H14C26S(NO5)2
_symmetry_space_group_name_H-M   'P 1'
_cell_length_a   11.13405247
_cell_length_b   11.60121524
_cell_length_c   21.22401749
_cell_angle_alpha   90.00002199
_cell_angle_beta   89.99996586
_cell_angle_gamma   94.78384718
_symmetry_Int_Tables_number   1
_chemical_formula_structural   Zn2H14C26S(NO5)2
_chemical_formula_sum   'Zn8 H56 C104 S4 N8 O40'
_cell_volume   2731.92515824
_cell_formula_units_Z   4
loop_
 _symmetry_equiv_pos_site_id
 _symmetry_equiv_pos_as_xyz
  1  'x, y, z'
loop_
 _atom_site_type_symbol
 _atom_site_label
 _atom_site_symmetry_multiplicity
 _atom_site_fract_x
 _atom_site_fract_y
 _atom_site_fract_z
 _atom_site_occupancy
 _atom_site_pbe_bader_charge
 _atom_site_pbe_bader_spin_density
 _atom_site_pbe_cm5_charge
 _atom_site_pbe_ddec_charge
 _atom_site_pbe_ddec_spin_density
 _atom_site_pbe_ddec_sum_bond_order
 _atom_site_pbe_magmom
Zn  Zn0  1  0.35351738  0.00397396  0.98279267  1  1.32478  0  0.710044  0.90468  0  2.284817  0
Zn  Zn1  1  0.64648549  0.49602702  0.48279309  1  1.324815  0  0.710063  0.904684  0  2.284834  0
Zn  Zn2  1  0.64648385  0.99602375  0.01720740  1  1.324791  0  0.710031  0.904649  0  2.284873  0
Zn  Zn3  1  0.35351589  0.50397243  0.51720792  1  1.324845  0  0.710058  0.90471  0  2.284789  0
Zn  Zn4  1  0.03436916  0.20004520  0.04350686  1  1.294501  0  0.712002  0.880387  0  2.268911  0
Zn  Zn5  1  0.96563128  0.29995291  0.54350678  1  1.294497  0  0.712002  0.880387  0  2.268994  0
Zn  Zn6  1  0.96563125  0.79995337  0.95649368  1  1.294507  0  0.71201  0.880438  0  2.268913  0
Zn  Zn7  1  0.03436643  0.70004566  0.45649423  1  1.294486  0  0.712011  0.880407  0  2.268913  0
H  H8  1  0.24348672  0.44381191  0.95463030  1  0.119649  0  0.114942  0.126912  0  0.987786  0
H  H9  1  0.75651319  0.05618558  0.45463154  1  0.119615  0  0.114932  0.126913  0  0.987766  0
H  H10  1  0.75651317  0.55618061  0.04536741  1  0.119632  0  0.114934  0.126901  0  0.987767  0
H  H11  1  0.24348639  0.94381386  0.54537089  1  0.119638  0  0.114945  0.126887  0  0.987805  0
H  H12  1  0.38458792  0.58097439  0.89375303  1  0.096615  0  0.100556  0.102782  0  1.037918  0
H  H13  1  0.61541357  0.91902635  0.39375250  1  0.096601  0  0.100559  0.102766  0  1.03792  0
H  H14  1  0.61541248  0.41902419  0.10624845  1  0.096579  0  0.100539  0.102748  0  1.037926  0
H  H15  1  0.38458803  0.08097569  0.60624898  1  0.09657  0  0.100537  0.102743  0  1.037949  0
H  H16  1  0.59700971  0.53099543  0.87610789  1  0.114292  0  0.110571  0.117397  0  1.007694  0
H  H17  1  0.40299270  0.96900530  0.37610555  1  0.114131  0  0.110585  0.117415  0  1.007773  0
H  H18  1  0.40299271  0.46900575  0.12389453  1  0.11415  0  0.110561  0.117369  0  1.00772  0
H  H19  1  0.59700875  0.03099501  0.62389452  1  0.114107  0  0.110579  0.117408  0  1.007794  0
H  H20  1  0.74423482  0.96712228  0.76053178  1  0.115936  0  0.106438  0.110495  0  1.020362  0
H  H21  1  0.25576592  0.53287838  0.26053175  1  0.115935  0  0.106435  0.110494  0  1.020351  0
H  H22  1  0.25577023  0.03287804  0.23946594  1  0.115982  0  0.106428  0.1105  0  1.020357  0
H  H23  1  0.74423388  0.46712366  0.73946832  1  0.115958  0  0.106432  0.110463  0  1.020367  0
H  H24  1  0.64498887  0.14400245  0.72518590  1  0.073225  0  0.108364  0.111039  0  0.984176  0
H  H25  1  0.35501152  0.35599750  0.22518544  1  0.073199  0  0.108347  0.111016  0  0.9842  0
H  H26  1  0.35501244  0.85599613  0.27481276  1  0.073246  0  0.108347  0.111014  0  0.984174  0
H  H27  1  0.64498836  0.64400540  0.77481369  1  0.073236  0  0.108362  0.111031  0  0.984174  0
H  H28  1  0.63714772  0.30910888  0.79950173  1  0.081364  0  0.108829  0.106535  0  1.002766  0
H  H29  1  0.36285258  0.19089112  0.29950123  1  0.081453  0  0.108815  0.106533  0  1.002823  0
H  H30  1  0.36285157  0.69088710  0.20049834  1  0.08149  0  0.108805  0.106511  0  1.002805  0
H  H31  1  0.63714632  0.80911091  0.70049790  1  0.08137  0  0.108817  0.106551  0  1.002757  0
H  H32  1  0.13264151  0.05723040  0.92908846  1  0.164987  0  0.124895  0.107889  0  1.021476  0
H  H33  1  0.86735911  0.44276449  0.42908644  1  0.165168  0  0.124908  0.10789  0  1.02152  0
H  H34  1  0.86735785  0.94276645  0.07091208  1  0.165023  0  0.124933  0.107947  0  1.021429  0
H  H35  1  0.13264205  0.55723236  0.57091268  1  0.165041  0  0.124912  0.107912  0  1.021498  0
H  H36  1  0.04699741  0.11236200  0.82774574  1  0.103076  0  0.115185  0.125188  0  1.009032  0
H  H37  1  0.95300063  0.38763282  0.32774416  1  0.103072  0  0.115139  0.125125  0  1.009051  0
H  H38  1  0.95299904  0.88763224  0.17225574  1  0.103109  0  0.115134  0.12514  0  1.009036  0
H  H39  1  0.04700021  0.61237095  0.67225544  1  0.10307  0  0.115145  0.125107  0  1.009066  0
H  H40  1  0.39603529  0.07641817  0.74303175  1  0.072628  0  0.109042  0.113952  0  1.012659  0
H  H41  1  0.60396610  0.42359390  0.24303028  1  0.072638  0  0.109018  0.113892  0  1.012622  0
H  H42  1  0.60395875  0.92357952  0.25696738  1  0.072598  0  0.109021  0.113921  0  1.012658  0
H  H43  1  0.39603757  0.57642198  0.75696884  1  0.072629  0  0.109055  0.113959  0  1.012599  0
H  H44  1  0.47054382  0.02856817  0.85027910  1  0.1132  0  0.122398  0.099633  0  0.990149  0
H  H45  1  0.52945880  0.47143878  0.35027908  1  0.113287  0  0.12237  0.099647  0  0.990108  0
H  H46  1  0.52945493  0.97143214  0.14972003  1  0.113179  0  0.1224  0.099647  0  0.990142  0
H  H47  1  0.47054398  0.52856672  0.64972052  1  0.113218  0  0.122386  0.099657  0  0.990138  0
H  H48  1  0.32422120  0.23019012  0.68066234  1  0.071936  0  0.112244  0.122473  0  0.993948  0
H  H49  1  0.67577923  0.26980980  0.18066176  1  0.071951  0  0.112233  0.12246  0  0.993953  0
H  H50  1  0.67577711  0.76980499  0.31933867  1  0.072023  0  0.112243  0.122442  0  0.993971  0
H  H51  1  0.32422206  0.73019916  0.81933784  1  0.072033  0  0.112226  0.122394  0  0.993957  0
H  H52  1  0.22378891  0.29319002  0.58394740  1  0.169126  0  0.117581  0.096876  0  1.057363  0
H  H53  1  0.77621238  0.20680812  0.08394678  1  0.169135  0  0.117589  0.096885  0  1.057349  0
H  H54  1  0.77621068  0.70680942  0.41605361  1  0.169096  0  0.117576  0.096861  0  1.057436  0
H  H55  1  0.22378839  0.79319479  0.91605329  1  0.169111  0  0.117609  0.096911  0  1.057453  0
H  H56  1  0.89805643  0.11707169  0.63377150  1  0.151555  0  0.12563  0.111619  0  1.009007  0
H  H57  1  0.10194316  0.38292820  0.13377112  1  0.151564  0  0.125618  0.111601  0  1.009054  0
H  H58  1  0.10194068  0.88293034  0.36622904  1  0.151595  0  0.125634  0.111626  0  1.00901  0
H  H59  1  0.89805904  0.61707038  0.86622942  1  0.151613  0  0.125616  0.111609  0  1.009003  0
H  H60  1  0.98614468  0.03927862  0.73085583  1  0.100113  0  0.114254  0.124918  0  0.999599  0
H  H61  1  0.01385502  0.46072393  0.23085549  1  0.10008  0  0.114254  0.124931  0  0.999541  0
H  H62  1  0.01385214  0.96071995  0.26914424  1  0.099706  0  0.114217  0.124866  0  0.999599  0
H  H63  1  0.98614679  0.53928070  0.76914364  1  0.099716  0  0.114228  0.124875  0  0.999576  0
C  C64  1  0.57312240  0.37380792  0.92920527  1  -0.226664  0  -0.021607  -0.118692  0  3.944098  0
C  C65  1  0.42687963  0.12619303  0.42920427  1  -0.22663  0  -0.021594  -0.118616  0  3.943854  0
C  C66  1  0.42687973  0.62618980  0.07079433  1  -0.226744  0  -0.021664  -0.118776  0  3.943938  0
C  C67  1  0.57312017  0.87380901  0.57079580  1  -0.226621  0  -0.02161  -0.118694  0  3.943911  0
C  C68  1  0.49684991  0.29890090  0.96664776  1  0.010538  0  0.005905  -0.020539  0  3.886198  0
C  C69  1  0.50315021  0.20109919  0.46664675  1  0.01049  0  0.005942  -0.020506  0  3.886222  0
C  C70  1  0.50314967  0.70109854  0.03335089  1  0.01042  0  0.005988  -0.020548  0  3.886186  0
C  C71  1  0.49685124  0.79890111  0.53335332  1  0.010566  0  0.005949  -0.020454  0  3.886165  0
C  C72  1  0.37628318  0.32501965  0.97372938  1  -0.01685  0  -0.01456  -0.074421  0  3.937652  0
C  C73  1  0.62371776  0.17497958  0.47372786  1  -0.016835  0  -0.014567  -0.074471  0  3.937773  0
C  C74  1  0.62371873  0.67497547  0.02627116  1  -0.016574  0  -0.014548  -0.074353  0  3.937628  0
C  C75  1  0.37628010  0.82502072  0.52627315  1  -0.016669  0  -0.014606  -0.07454  0  3.937658  0
C  C76  1  0.33648024  0.42523318  0.94644663  1  -0.04438  0  -0.069631  -0.061024  0  3.927285  0
C  C77  1  0.66351907  0.07476777  0.44644554  1  -0.044345  0  -0.069602  -0.061006  0  3.92737  0
C  C78  1  0.66351836  0.57476539  0.05355297  1  -0.044397  0  -0.06964  -0.061037  0  3.927316  0
C  C79  1  0.33648058  0.92523253  0.55355641  1  -0.044421  0  -0.069639  -0.060993  0  3.927338  0
C  C80  1  0.41442206  0.50024258  0.91166999  1  -0.009407  0  -0.087758  -0.074866  0  4.001122  0
C  C81  1  0.58557941  0.99975817  0.41166854  1  -0.009459  0  -0.087817  -0.074902  0  4.001253  0
C  C82  1  0.58557842  0.49975687  0.08833102  1  -0.009427  0  -0.087787  -0.074903  0  4.001279  0
C  C83  1  0.41442024  0.00024213  0.58833294  1  -0.009424  0  -0.087726  -0.074817  0  4.001256  0
C  C84  1  0.53272986  0.47352715  0.90233573  1  0.01355  0  -0.078761  -0.082898  0  3.990561  0
C  C85  1  0.46727198  0.02647118  0.40233422  1  0.013725  0  -0.078777  -0.082938  0  3.990552  0
C  C86  1  0.46727137  0.52647056  0.09766528  1  0.013787  0  -0.078708  -0.082795  0  3.990572  0
C  C87  1  0.53272947  0.97352913  0.59766679  1  0.013752  0  -0.078759  -0.082889  0  3.990623  0
C  C88  1  0.73704951  0.22915895  0.87211142  1  -0.129819  0  -0.018274  -0.102276  0  3.937318  0
C  C89  1  0.26295042  0.27083763  0.37211191  1  -0.129807  0  -0.01838  -0.102374  0  3.937143  0
C  C90  1  0.26295157  0.77083703  0.12788770  1  -0.129843  0  -0.018372  -0.102382  0  3.93736  0
C  C91  1  0.73705096  0.72916182  0.62788816  1  -0.12986  0  -0.018362  -0.102327  0  3.937279  0
C  C92  1  0.79847694  0.13403735  0.89113655  1  0.025359  0  0.006291  -0.032689  0  3.879954  0
C  C93  1  0.20152139  0.36596184  0.39113566  1  0.025439  0  0.006304  -0.032601  0  3.879827  0
C  C94  1  0.20152436  0.86596123  0.10886399  1  0.025484  0  0.006311  -0.03262  0  3.879926  0
C  C95  1  0.79847557  0.63403846  0.60886393  1  0.025368  0  0.006341  -0.032616  0  3.879925  0
C  C96  1  0.79814759  0.03908415  0.84964534  1  0.013  0  -0.010811  -0.049337  0  3.917366  0
C  C97  1  0.20185079  0.46091501  0.34964447  1  0.012983  0  -0.010793  -0.049349  0  3.917398  0
C  C98  1  0.20185544  0.96091357  0.15035238  1  0.012778  0  -0.010757  -0.049307  0  3.917367  0
C  C99  1  0.79814617  0.53908529  0.65035371  1  0.012652  0  -0.010764  -0.049306  0  3.9174  0
C  C100  1  0.74102286  0.04254249  0.79096324  1  -0.056443  0  -0.073373  -0.079532  0  3.951044  0
C  C101  1  0.25897558  0.45745663  0.29096283  1  -0.056421  0  -0.073409  -0.079594  0  3.950957  0
C  C102  1  0.25898129  0.95745782  0.20903494  1  -0.05603  0  -0.073447  -0.079675  0  3.950932  0
C  C103  1  0.74102137  0.54254367  0.70903630  1  -0.056062  0  -0.07342  -0.079598  0  3.950964  0
C  C104  1  0.68442956  0.13940127  0.77202575  1  -0.00205  0  -0.082779  -0.068433  0  3.994247  0
C  C105  1  0.31557062  0.36059698  0.27202483  1  -0.002073  0  -0.082691  -0.068267  0  3.994146  0
C  C106  1  0.31557339  0.86059558  0.22797337  1  -0.002057  0  -0.082714  -0.068284  0  3.994072  0
C  C107  1  0.68442910  0.63940419  0.72797382  1  -0.002051  0  -0.082701  -0.068282  0  3.9941  0
C  C108  1  0.68135880  0.23254964  0.81314333  1  -0.093273  0  -0.075703  -0.078688  0  3.988504  0
C  C109  1  0.31864224  0.26744864  0.31314145  1  -0.093394  0  -0.075711  -0.078764  0  3.988445  0
C  C110  1  0.31864236  0.76744721  0.18685627  1  -0.093494  0  -0.075636  -0.078672  0  3.98854  0
C  C111  1  0.68135831  0.73255167  0.68685721  1  -0.093351  0  -0.075693  -0.078754  0  3.98844  0
C  C112  1  0.54303576  0.19872060  0.00237932  1  1.605185  0  0.204704  0.568539  0  4.231989  0
C  C113  1  0.45696591  0.30128094  0.50237657  1  1.604911  0  0.204628  0.568413  0  4.232135  0
C  C114  1  0.45696712  0.80127538  0.99762122  1  1.604957  0  0.204769  0.568649  0  4.231732  0
C  C115  1  0.54303389  0.69872109  0.49762350  1  1.60469  0  0.204689  0.568472  0  4.232001  0
C  C116  1  0.28628068  0.24859537  0.01055689  1  1.583102  0  0.225962  0.602242  0  4.156706  0
C  C117  1  0.71371987  0.25140358  0.51055735  1  1.583124  0  0.225959  0.602187  0  4.156821  0
C  C118  1  0.71371868  0.75140147  0.98944177  1  1.583003  0  0.225973  0.602197  0  4.156759  0
C  C119  1  0.28627881  0.74859585  0.48944507  1  1.583257  0  0.225975  0.602263  0  4.156817  0
C  C120  1  0.86298825  0.13352754  0.95392625  1  1.62649  0  0.224205  0.618701  0  4.180587  0
C  C121  1  0.13700912  0.36647168  0.45392586  1  1.626472  0  0.224202  0.618648  0  4.180598  0
C  C122  1  0.13701134  0.86647190  0.04607429  1  1.626267  0  0.224191  0.618618  0  4.180521  0
C  C123  1  0.86298971  0.63352949  0.54607468  1  1.626458  0  0.224173  0.618649  0  4.180488  0
C  C124  1  0.85714682  0.93078558  0.86698568  1  1.605628  0  0.193474  0.558228  0  4.262395  0
C  C125  1  0.14285268  0.56921255  0.36698522  1  1.605626  0  0.193465  0.558201  0  4.262318  0
C  C126  1  0.14285620  0.06921214  0.13301297  1  1.605471  0  0.193522  0.558403  0  4.262173  0
C  C127  1  0.85714226  0.43078515  0.63301485  1  1.60563  0  0.193491  0.558272  0  4.262287  0
C  C128  1  0.18869036  0.06338728  0.88711006  1  0.47172  0  0.055748  0.112976  0  3.905788  0
C  C129  1  0.81130873  0.43661017  0.38710948  1  0.471575  0  0.055789  0.11299  0  3.905892  0
C  C130  1  0.81130982  0.93660870  0.11289142  1  0.472765  0  0.055712  0.11291  0  3.905833  0
C  C131  1  0.18869107  0.56339186  0.61289153  1  0.472762  0  0.0557  0.112896  0  3.906034  0
C  C132  1  0.14060409  0.09218474  0.82966101  1  0.010522  0  -0.070269  -0.145688  0  3.894436  0
C  C133  1  0.85939506  0.40781268  0.32966040  1  0.010624  0  -0.070261  -0.145621  0  3.894261  0
C  C134  1  0.85939153  0.90781037  0.17033812  1  0.010997  0  -0.070204  -0.145633  0  3.894352  0
C  C135  1  0.14060765  0.59219196  0.67033778  1  0.011025  0  -0.07023  -0.145525  0  3.894361  0
C  C136  1  0.21389791  0.09767770  0.77597041  1  -0.039716  0  0.019667  0.112407  0  3.974768  0
C  C137  1  0.78610159  0.40232315  0.27596699  1  -0.040187  0  0.019745  0.112467  0  3.974792  0
C  C138  1  0.78609771  0.90231741  0.22403060  1  -0.041654  0  0.01967  0.112387  0  3.974753  0
C  C139  1  0.21390149  0.59768581  0.72403166  1  -0.042141  0  0.019682  0.112367  0  3.974745  0
C  C140  1  0.33499815  0.07431376  0.78323621  1  0.0285  0  -0.080903  -0.177952  0  3.940361  0
C  C141  1  0.66500254  0.42569055  0.28323755  1  0.028855  0  -0.080881  -0.17789  0  3.940416  0
C  C142  1  0.66499770  0.92568394  0.21676386  1  0.028794  0  -0.080857  -0.177834  0  3.940321  0
C  C143  1  0.33500054  0.57431841  0.71676252  1  0.028832  0  -0.080872  -0.17786  0  3.940424  0
C  C144  1  0.37714455  0.04640482  0.84246203  1  0.448691  0  0.052669  0.102923  0  3.944125  0
C  C145  1  0.62285794  0.45360039  0.34246103  1  0.448126  0  0.052653  0.102802  0  3.944336  0
C  C146  1  0.62285309  0.95359288  0.15753757  1  0.448758  0  0.05267  0.102861  0  3.94406  0
C  C147  1  0.37714410  0.54640683  0.65753951  1  0.448632  0  0.052632  0.102786  0  3.944289  0
C  C148  1  0.16259317  0.13078850  0.71525524  1  -0.065924  0  0.014058  0.101312  0  3.992346  0
C  C149  1  0.83740302  0.36921490  0.21525510  1  -0.065961  0  0.014074  0.101291  0  3.992417  0
C  C150  1  0.83740260  0.86920834  0.28474436  1  -0.065952  0  0.014048  0.101231  0  3.992457  0
C  C151  1  0.16259743  0.63079492  0.78474402  1  -0.065443  0  0.014064  0.101236  0  3.99244  0
C  C152  1  0.23005375  0.20103484  0.67216302  1  -0.000258  0  -0.080262  -0.17577  0  3.938084  0
C  C153  1  0.76994691  0.29896767  0.17216100  1  -0.00023  0  -0.080237  -0.175765  0  3.938216  0
C  C154  1  0.76994381  0.79896200  0.32783705  1  -0.000474  0  -0.080326  -0.175763  0  3.938025  0
C  C155  1  0.23005348  0.70104129  0.82783718  1  -0.000459  0  -0.080294  -0.175684  0  3.938081  0
C  C156  1  0.17432607  0.23858598  0.61831460  1  0.503807  0  0.054332  0.118635  0  3.904022  0
C  C157  1  0.82567465  0.26141650  0.11831492  1  0.503764  0  0.054279  0.118628  0  3.904131  0
C  C158  1  0.82567261  0.76141346  0.38168594  1  0.503833  0  0.054336  0.118602  0  3.90403  0
C  C159  1  0.17432717  0.73858813  0.88168609  1  0.503768  0  0.054294  0.118569  0  3.904152  0
C  C160  1  0.99195865  0.13926800  0.64603024  1  0.591865  0  0.063894  0.123835  0  3.904255  0
C  C161  1  0.00803919  0.36073276  0.14602988  1  0.591846  0  0.063917  0.123863  0  3.904366  0
C  C162  1  0.00803651  0.86073230  0.35397077  1  0.59186  0  0.063868  0.123764  0  3.904275  0
C  C163  1  0.99196405  0.63926755  0.85397019  1  0.5918  0  0.063872  0.123784  0  3.904392  0
C  C164  1  0.04194713  0.09715208  0.70036788  1  -0.069182  0  -0.073756  -0.159435  0  3.902282  0
C  C165  1  0.95805358  0.40285132  0.20036630  1  -0.06914  0  -0.07379  -0.159457  0  3.902137  0
C  C166  1  0.95804871  0.90284563  0.29963266  1  -0.068624  0  -0.073678  -0.159298  0  3.902083  0
C  C167  1  0.04194943  0.59715678  0.79963377  1  -0.06861  0  -0.073688  -0.159296  0  3.902123  0
S  S168  1  0.73080037  0.35723725  0.91871100  1  2.481729  0  0.476727  0.966623  0  5.711609  0
S  S169  1  0.26920033  0.14275850  0.41870864  1  2.481845  0  0.476693  0.966507  0  5.711427  0
S  S170  1  0.26920049  0.64275614  0.08129189  1  2.482  0  0.476804  0.966667  0  5.711285  0
S  S171  1  0.73080008  0.85724008  0.58128861  1  2.481735  0  0.476765  0.966564  0  5.711623  0
N  N172  1  0.30483300  0.04065292  0.89349856  1  -1.24919  0  -0.332064  -0.252022  0  3.594414  0
N  N173  1  0.69516990  0.45934714  0.39349801  1  -1.248702  0  -0.332062  -0.251927  0  3.594477  0
N  N174  1  0.69516547  0.95934393  0.10650104  1  -1.24915  0  -0.332074  -0.251981  0  3.594309  0
N  N175  1  0.30483252  0.54065403  0.60650205  1  -1.249138  0  -0.332025  -0.251953  0  3.594385  0
N  N176  1  0.05688822  0.21020373  0.60623302  1  -1.273063  0  -0.326609  -0.232896  0  3.562204  0
N  N177  1  0.94311244  0.28979787  0.10623284  1  -1.273091  0  -0.326617  -0.232941  0  3.562263  0
N  N178  1  0.94311068  0.78979830  0.39376799  1  -1.273096  0  -0.326594  -0.232829  0  3.562294  0
N  N179  1  0.05688886  0.71020071  0.89376865  1  -1.273092  0  -0.326597  -0.232913  0  3.562364  0
O  O180  1  0.78286286  0.34120411  0.98021820  1  -1.287079  0  -0.294629  -0.489904  0  2.22259  0
O  O181  1  0.21713911  0.15879686  0.48021962  1  -1.287077  0  -0.294606  -0.489851  0  2.222279  0
O  O182  1  0.21713762  0.65879533  0.01977857  1  -1.286972  0  -0.294709  -0.489961  0  2.222166  0
O  O183  1  0.78286069  0.84120517  0.51978092  1  -1.287019  0  -0.294645  -0.489894  0  2.222634  0
O  O184  1  0.77774952  0.45230240  0.87884956  1  -1.295407  0  -0.307891  -0.516947  0  2.196508  0
O  O185  1  0.22225167  0.04769851  0.37885190  1  -1.295528  0  -0.307833  -0.516859  0  2.196712  0
O  O186  1  0.22225111  0.54769877  0.12114674  1  -1.295824  0  -0.30785  -0.516872  0  2.196752  0
O  O187  1  0.77775000  0.95230439  0.62114864  1  -1.295444  0  -0.307882  -0.516899  0  2.196558  0
O  O188  1  0.54717113  0.10251954  0.96977815  1  -1.170442  0  -0.330799  -0.594676  0  2.381902  0
O  O189  1  0.45282801  0.39747969  0.46977531  1  -1.170303  0  -0.330826  -0.594703  0  2.381998  0
O  O190  1  0.45282935  0.89747990  0.03022475  1  -1.170192  0  -0.33092  -0.594825  0  2.381727  0
O  O191  1  0.54717261  0.60252148  0.53022429  1  -1.170233  0  -0.330869  -0.594773  0  2.381924  0
O  O192  1  0.57548364  0.21057497  0.05785938  1  -1.147174  0  -0.291379  -0.497522  0  2.144946  0
O  O193  1  0.42452171  0.28942835  0.55785759  1  -1.147018  0  -0.291312  -0.49739  0  2.144907  0
O  O194  1  0.42452080  0.78942880  0.94214116  1  -1.147181  0  -0.291343  -0.497465  0  2.144882  0
O  O195  1  0.57547899  0.71057369  0.44214201  1  -1.147029  0  -0.291344  -0.497419  0  2.144875  0
O  O196  1  0.30998280  0.14734293  0.02690722  1  -1.188037  0  -0.317964  -0.554865  0  2.386714  0
O  O197  1  0.69001780  0.35265690  0.52690724  1  -1.188035  0  -0.317976  -0.554856  0  2.386771  0
O  O198  1  0.69001940  0.85265565  0.97309285  1  -1.187968  0  -0.317957  -0.554836  0  2.386831  0
O  O199  1  0.30998081  0.64734168  0.47309471  1  -1.18803  0  -0.31794  -0.554854  0  2.386769  0
O  O200  1  0.18789990  0.29228326  0.02323924  1  -1.157994  0  -0.303219  -0.515693  0  2.326172  0
O  O201  1  0.81209869  0.20771396  0.52324155  1  -1.15804  0  -0.303193  -0.515627  0  2.326165  0
O  O202  1  0.81210021  0.70771185  0.97675659  1  -1.158122  0  -0.303226  -0.515684  0  2.326076  0
O  O203  1  0.18789708  0.79228287  0.47676276  1  -1.158174  0  -0.303241  -0.515702  0  2.32619  0
O  O204  1  0.80930596  0.08949991  0.00199197  1  -1.186595  0  -0.3059  -0.561471  0  2.420796  0
O  O205  1  0.19069197  0.41049989  0.50199168  1  -1.186558  0  -0.305896  -0.561443  0  2.420834  0
O  O206  1  0.19069190  0.91050039  0.99800904  1  -1.18685  0  -0.305924  -0.561438  0  2.420812  0
O  O207  1  0.80930671  0.58949954  0.49800744  1  -1.186566  0  -0.305879  -0.561399  0  2.420681  0
O  O208  1  0.96869607  0.18463577  0.95612187  1  -1.138861  0  -0.30792  -0.521612  0  2.304179  0
O  O209  1  0.03130324  0.31536518  0.45612150  1  -1.138916  0  -0.307899  -0.521622  0  2.304144  0
O  O210  1  0.03130082  0.81536366  0.04387914  1  -1.138345  0  -0.307881  -0.521604  0  2.304049  0
O  O211  1  0.96869649  0.68463599  0.54387952  1  -1.138906  0  -0.307929  -0.521651  0  2.304133  0
O  O212  1  0.93066418  0.94398898  0.91468352  1  -1.168744  0  -0.327862  -0.567079  0  2.390983  0
O  O213  1  0.06933452  0.55601090  0.41468355  1  -1.168738  0  -0.327854  -0.567084  0  2.390919  0
O  O214  1  0.06933622  0.05600960  0.08531561  1  -1.168789  0  -0.327865  -0.567132  0  2.390888  0
O  O215  1  0.93066417  0.44398854  0.58531604  1  -1.168684  0  -0.327886  -0.567144  0  2.390927  0
O  O216  1  0.83331274  0.84049918  0.83637978  1  -1.170098  0  -0.325931  -0.542253  0  2.108125  0
O  O217  1  0.16668792  0.65950152  0.33637934  1  -1.170083  0  -0.325942  -0.542251  0  2.108062  0
O  O218  1  0.16668954  0.15950026  0.16361887  1  -1.170135  0  -0.325976  -0.542332  0  2.108009  0
O  O219  1  0.83330904  0.34049878  0.66361932  1  -1.170112  0  -0.32595  -0.54225  0  2.108031  0
