# generated using pymatgen
data_CuH9C13IN
_symmetry_space_group_name_H-M   'P 1'
_cell_length_a   4.07619519
_cell_length_b   9.74333588
_cell_length_c   13.96956726
_cell_angle_alpha   92.43659849
_cell_angle_beta   101.10290477
_cell_angle_gamma   96.33107014
_symmetry_Int_Tables_number   1
_chemical_formula_structural   CuH9C13IN
_chemical_formula_sum   'Cu2 H18 C26 I2 N2'
_cell_volume   539.94976129
_cell_formula_units_Z   2
loop_
 _symmetry_equiv_pos_site_id
 _symmetry_equiv_pos_as_xyz
  1  'x, y, z'
loop_
 _atom_site_type_symbol
 _atom_site_label
 _atom_site_symmetry_multiplicity
 _atom_site_fract_x
 _atom_site_fract_y
 _atom_site_fract_z
 _atom_site_occupancy
 _atom_site_pbe_bader_spin_density
 _atom_site_pbe_cm5_charge
 _atom_site_pbe_ddec_charge
 _atom_site_pbe_ddec_spin_density
 _atom_site_pbe_ddec_sum_bond_order
 _atom_site_pbe_magmom
Cu  Cu0  1  0.96376036  0.59164775  0.24680642  1  0  0.310215  0.252006  0  2.464178  0
Cu  Cu1  1  0.03621621  0.40834998  0.75319313  1  0  0.310203  0.252  0  2.464193  0
H  H2  1  0.74326467  0.50223646  0.39011976  1  0  0.087133  0.088983  0  1.076623  0
H  H3  1  0.25669553  0.49775810  0.60987390  1  0  0.087176  0.089  0  1.076585  0
H  H4  1  0.60057861  0.38028992  0.53264790  1  0  0.094435  0.093252  0  1.030225  0
H  H5  1  0.39938159  0.61970465  0.46734577  1  0  0.094416  0.093235  0  1.030131  0
H  H6  1  0.65694413  0.13122938  0.54604184  1  0  0.090991  0.093267  0  1.039573  0
H  H7  1  0.34305011  0.86876942  0.45395716  1  0  0.09098  0.093295  0  1.039624  0
H  H8  1  0.85604990  0.99937790  0.41518113  1  0  0.093475  0.096065  0  1.048823  0
H  H9  1  0.14394963  0.00062194  0.58481816  1  0  0.093502  0.096088  0  1.048761  0
H  H10  1  0.07338159  0.99738488  0.26121025  1  0  0.092527  0.107561  0  1.029899  0
H  H11  1  0.92662330  0.00261601  0.73879004  1  0  0.092538  0.107575  0  1.02989  0
H  H12  1  0.13793808  0.50326349  0.09186196  1  0  0.088934  0.0944  0  1.074425  0
H  H13  1  0.86209511  0.49673954  0.90814190  1  0  0.088957  0.09439  0  1.074478  0
H  H14  1  0.33366984  0.37931404  0.95795402  1  0  0.088779  0.083862  0  1.053958  0
H  H15  1  0.66637651  0.62069110  0.04205126  1  0  0.088798  0.083876  0  1.054037  0
H  H16  1  0.39575293  0.13000413  0.96291131  1  0  0.093949  0.095952  0  1.029666  0
H  H17  1  0.60427776  0.86999890  0.03709244  1  0  0.093928  0.095976  0  1.029551  0
H  H18  1  0.26474955  0.99999990  0.10434330  1  0  0.095528  0.096662  0  1.037729  0
H  H19  1  0.73526821  0.00000206  0.89565836  1  0  0.095539  0.096696  0  1.03785  0
C  C20  1  0.88973303  0.32164520  0.32234327  1  0  0.109826  0.202403  0  3.966905  0
C  C21  1  0.11025377  0.67835358  0.67765609  1  0  0.109863  0.202325  0  3.966965  0
C  C22  1  0.77050939  0.39264826  0.39713326  1  0  -0.09613  -0.164589  0  3.953356  0
C  C23  1  0.22945976  0.60735048  0.60286382  1  0  -0.09616  -0.164479  0  3.953317  0
C  C24  1  0.69142058  0.32478874  0.47552195  1  0  -0.084959  -0.048415  0  3.982175  0
C  C25  1  0.30854513  0.67520689  0.52447416  1  0  -0.084975  -0.04846  0  3.981886  0
C  C26  1  0.72383885  0.18199183  0.48322065  1  0  -0.095056  -0.0892  0  4.014632  0
C  C27  1  0.27614854  0.81801004  0.51677597  1  0  -0.095049  -0.089257  0  4.014657  0
C  C28  1  0.83478379  0.10968388  0.41168414  1  0  -0.088944  -0.116815  0  3.966942  0
C  C29  1  0.16521287  0.89031492  0.58831427  1  0  -0.088937  -0.116777  0  3.966829  0
C  C30  1  0.92261178  0.17665110  0.32995911  1  0  -0.008413  0.037078  0  4.014449  0
C  C31  1  0.07738216  0.82334666  0.67003985  1  0  -0.008397  0.037083  0  4.014497  0
C  C32  1  0.04276785  0.10701355  0.25683525  1  0  -0.063955  -0.111592  0  3.893878  0
C  C33  1  0.95723160  0.89298629  0.74316332  1  0  -0.064024  -0.111661  0  3.893971  0
C  C34  1  0.08232028  0.32225100  0.17419429  1  0  0.109383  0.205739  0  3.962646  0
C  C35  1  0.91768491  0.67775093  0.82580605  1  0  0.109325  0.205735  0  3.962823  0
C  C36  1  0.16331403  0.39310017  0.09353492  1  0  -0.098487  -0.174718  0  3.966224  0
C  C37  1  0.83670586  0.60690075  0.90646610  1  0  -0.098544  -0.174756  0  3.966234  0
C  C38  1  0.27263086  0.32423299  0.01983582  1  0  -0.088278  -0.051377  0  3.985824  0
C  C39  1  0.72738660  0.67576793  0.98016580  1  0  -0.088262  -0.051338  0  3.985787  0
C  C40  1  0.30907369  0.18127901  0.02261740  1  0  -0.093615  -0.080413  0  3.996861  0
C  C41  1  0.69095436  0.81872400  0.97738479  1  0  -0.093575  -0.080464  0  3.996793  0
C  C42  1  0.23744543  0.10981392  0.10011735  1  0  -0.085871  -0.112549  0  3.957938  0
C  C43  1  0.76256827  0.89019013  0.89988775  1  0  -0.08591  -0.112593  0  3.958051  0
C  C44  1  0.12168134  0.17721944  0.17755269  1  0  -0.007909  0.036755  0  4.005859  0
C  C45  1  0.87832296  0.82277938  0.82244752  1  0  -0.007823  0.036822  0  4.005908  0
I  I46  1  0.51361278  0.74840010  0.25048092  1  0  -0.178106  -0.349506  0  2.100372  0
I  I47  1  0.48637181  0.25159871  0.74952120  1  0  -0.17811  -0.349522  0  2.100363  0
N  N48  1  0.97079336  0.39180588  0.24604249  1  0  -0.365441  -0.284804  0  3.604317  0
N  N49  1  0.02919587  0.60819290  0.75395627  1  0  -0.365468  -0.284797  0  3.604376  0
