# generated using pymatgen
data_NiH26C16(NO)4
_symmetry_space_group_name_H-M   'P 1'
_cell_length_a   9.25587990
_cell_length_b   9.97951254
_cell_length_c   10.69898155
_cell_angle_alpha   92.38732566
_cell_angle_beta   99.69164244
_cell_angle_gamma   106.93879024
_symmetry_Int_Tables_number   1
_chemical_formula_structural   NiH26C16(NO)4
_chemical_formula_sum   'Ni2 H52 C32 N8 O8'
_cell_volume   927.56859881
_cell_formula_units_Z   2
loop_
 _symmetry_equiv_pos_site_id
 _symmetry_equiv_pos_as_xyz
  1  'x, y, z'
loop_
 _atom_site_type_symbol
 _atom_site_label
 _atom_site_symmetry_multiplicity
 _atom_site_fract_x
 _atom_site_fract_y
 _atom_site_fract_z
 _atom_site_occupancy
 _atom_site_hle17_ddec_charge
 _atom_site_hle17_ddec_spin_density
 _atom_site_hle17_ddec_sum_bond_order
 _atom_site_hle17_magmom
 _atom_site_hse06_10hf_ddec_charge
 _atom_site_hse06_10hf_ddec_spin_density
 _atom_site_hse06_10hf_ddec_sum_bond_order
 _atom_site_hse06_10hf_magmom
 _atom_site_hse06_ddec_charge
 _atom_site_hse06_ddec_spin_density
 _atom_site_hse06_ddec_sum_bond_order
 _atom_site_hse06_magmom
 _atom_site_pbe_cm5_charge
 _atom_site_pbe_ddec_charge
 _atom_site_pbe_ddec_spin_density
 _atom_site_pbe_ddec_sum_bond_order
 _atom_site_pbe_magmom
Ni  Ni0  1  0.57230596  0.24378879  0.23141992  1  0.72035  -1.71849  2.053424  -1.454  0.714346  -1.784355  2.44118  -1.573  0.801019  -1.842545  2.381489  -1.665  0.622212  0.653427  -1.731951  2.484382  -1.494
Ni  Ni1  1  0.42769816  0.75621328  0.76858082  1  0.720445  -1.718496  2.053317  -1.454  0.714412  -1.784369  2.441149  -1.573  0.801074  -1.842539  2.381398  -1.665  0.622187  0.653466  -1.731947  2.48432  -1.494
H  H2  1  0.64930446  0.02962491  0.17248377  1  0.284454  0.001371  0.922128  0.002  0.277481  0.000141  0.976361  0.0  0.284634  0.00038  0.971416  0.001  0.285979  0.272094  -6.3e-05  0.980554  0.0
H  H3  1  0.35069102  0.97037752  0.82751478  1  0.284441  0.001365  0.922057  0.002  0.27747  0.000141  0.9763  0.0  0.284619  0.00038  0.97136  0.001  0.285956  0.272081  -6.3e-05  0.980497  0.0
H  H4  1  0.69635346  0.13875751  0.06743324  1  0.287958  0.001669  0.927241  0.002  0.279308  0.000472  0.986805  0.001  0.285957  0.000605  0.982976  0.001  0.286741  0.274656  0.000329  0.989535  0.0
H  H5  1  0.30364295  0.86123854  0.93256405  1  0.287977  0.00165  0.927244  0.002  0.279328  0.000472  0.986809  0.001  0.285976  0.000606  0.98298  0.001  0.286759  0.274674  0.000329  0.989539  0.0
H  H6  1  0.92879381  0.27612061  0.20045401  1  0.05398  -0.000153  0.938835  -0.001  0.072509  -0.000166  1.003037  -0.001  0.072599  -9.3e-05  1.003117  0.0  0.101709  0.072603  -0.000308  1.002286  -0.001
H  H7  1  0.07120991  0.72387442  0.79953682  1  0.054002  -0.000148  0.93886  -0.001  0.072508  -0.000166  1.003078  -0.001  0.072598  -9.3e-05  1.003147  0.0  0.101701  0.072581  -0.000308  1.002352  -0.001
H  H8  1  0.92891653  0.09823351  0.18300070  1  0.03407  -0.003391  0.933153  -0.005  0.051365  -0.002604  0.997245  -0.003  0.050786  -0.001927  0.998042  -0.002  0.089505  0.052167  -0.003215  0.995915  -0.004
H  H9  1  0.07107721  0.90175534  0.81699194  1  0.034141  -0.003395  0.933195  -0.005  0.051418  -0.002604  0.997279  -0.003  0.050838  -0.001927  0.998076  -0.002  0.089563  0.052221  -0.003214  0.995946  -0.004
H  H10  1  0.63673528  0.14364754  0.43914514  1  0.249499  0.002297  0.883849  0.002  0.250017  0.000794  0.926887  0.001  0.255106  0.000918  0.924869  0.001  0.302995  0.24638  0.000533  0.928368  0.0
H  H11  1  0.36327223  0.85634591  0.56085455  1  0.249566  0.002294  0.883837  0.002  0.250026  0.000794  0.926859  0.001  0.255113  0.000917  0.924842  0.001  0.303014  0.246387  0.000533  0.928344  0.0
H  H12  1  0.02256610  0.18497491  0.40336898  1  0.071123  0.000306  0.935865  0.0  0.091493  0.000109  0.995622  0.0  0.091811  0.000102  0.996556  0.0  0.095031  0.090858  7.1e-05  0.995506  0.0
H  H13  1  0.97743315  0.81500517  0.59662478  1  0.071137  0.000295  0.935762  0.0  0.091514  0.000109  0.995524  0.0  0.09179  0.000103  0.996499  0.0  0.095083  0.090896  7.1e-05  0.995398  0.0
H  H14  1  0.83976010  0.06217870  0.39373308  1  0.067249  0.000115  0.922736  0.0  0.089172  6.8e-05  0.976608  0.0  0.089761  5.5e-05  0.977105  0.0  0.092979  0.088859  5.1e-05  0.975981  0.0
H  H15  1  0.16022990  0.93781780  0.60625862  1  0.067237  0.000102  0.922719  0.0  0.089148  6.9e-05  0.976624  0.0  0.089734  5.6e-05  0.977111  0.0  0.092977  0.088836  5.2e-05  0.975995  0.0
H  H16  1  0.51536134  0.35356276  0.03030414  1  0.274213  0.002115  0.89773  0.002  0.27337  0.000512  0.948737  0.001  0.279313  0.000675  0.945173  0.001  0.291972  0.268973  0.000257  0.951461  0.0
H  H17  1  0.48464504  0.64644242  0.96969716  1  0.274112  0.0021  0.897885  0.002  0.273314  0.000512  0.948853  0.001  0.279245  0.000674  0.945302  0.001  0.291966  0.268913  0.000257  0.951575  0.0
H  H18  1  0.47958368  0.18696927  0.98502108  1  0.305776  0.001002  0.935649  0.001  0.295503  3.2e-05  0.996491  0.0  0.303133  0.000243  0.990426  0.001  0.290903  0.290066  -0.000239  1.000887  0.0
H  H19  1  0.52042725  0.81303344  0.01498446  1  0.305808  0.000997  0.935603  0.001  0.29555  3.1e-05  0.996426  0.0  0.303181  0.000243  0.99036  0.001  0.290949  0.290128  -0.000239  1.000793  0.0
H  H20  1  0.90170770  0.28848934  0.54139496  1  0.043714  -0.002761  0.980147  -0.004  0.05757  -0.002111  1.048935  -0.003  0.056258  -0.001542  1.052113  -0.002  0.088637  0.058541  -0.002533  1.047129  -0.003
H  H21  1  0.09829943  0.71150311  0.45860367  1  0.043733  -0.002747  0.980156  -0.004  0.05758  -0.002111  1.048972  -0.003  0.056269  -0.001543  1.05215  -0.002  0.088647  0.058552  -0.002533  1.047171  -0.003
H  H22  1  0.89636766  0.38171842  0.40351529  1  0.064988  -0.00038  0.928351  -0.001  0.083336  -0.000384  0.988533  -0.001  0.083314  -0.000253  0.989087  -0.001  0.104408  0.083443  -0.000502  0.988  -0.001
H  H23  1  0.10363847  0.61828021  0.59648925  1  0.06494  -0.000371  0.92833  -0.001  0.083308  -0.000383  0.98851  -0.001  0.083285  -0.000253  0.989066  -0.001  0.104371  0.083414  -0.000502  0.987976  -0.001
H  H24  1  0.50824484  0.45432155  0.31025649  1  0.2519  0.001782  0.960607  0.002  0.243698  0.000657  1.017452  0.001  0.250977  0.000832  1.012967  0.001  0.281933  0.238436  0.000525  1.020869  0.001
H  H25  1  0.49174911  0.54567673  0.68974060  1  0.251992  0.001777  0.960671  0.002  0.243814  0.000657  1.017455  0.001  0.251091  0.000833  1.012974  0.001  0.281974  0.238553  0.000525  1.020865  0.001
H  H26  1  0.69990337  0.44731352  0.49331302  1  0.066435  -2.5e-05  0.930535  0.0  0.083711  -4.8e-05  0.994008  0.0  0.084167  -1.6e-05  0.993844  0.0  0.108226  0.083297  -8.6e-05  0.994325  0.0
H  H27  1  0.30009941  0.55267605  0.50668102  1  0.066425  -2.1e-05  0.93047  0.0  0.083683  -4.8e-05  0.993984  0.0  0.084141  -1.6e-05  0.993822  0.0  0.108185  0.083269  -8.6e-05  0.994295  0.0
H  H28  1  0.65059146  0.31874530  0.60195793  1  0.062516  -0.001923  0.923272  -0.003  0.080693  -0.001439  0.981596  -0.002  0.080582  -0.001042  0.98241  -0.001  0.0994  0.080731  -0.001827  0.981476  -0.002
H  H29  1  0.34941149  0.68125062  0.39803752  1  0.062471  -0.001926  0.923208  -0.003  0.080641  -0.00144  0.981568  -0.002  0.080532  -0.001041  0.98238  -0.001  0.099366  0.080678  -0.001827  0.981452  -0.002
H  H30  1  0.39428883  0.20915522  0.45278171  1  0.071869  -0.000219  0.919458  -0.001  0.089078  -0.000151  0.980261  0.0  0.090443  -9e-05  0.978543  0.0  0.104882  0.087841  -0.000195  0.981786  0.0
H  H31  1  0.60571620  0.79083747  0.54721288  1  0.071868  -0.000215  0.919504  -0.001  0.08903  -0.000151  0.980339  0.0  0.090395  -9e-05  0.978622  0.0  0.104838  0.087793  -0.000195  0.981867  0.0
H  H32  1  0.41790653  0.38401858  0.51161269  1  0.064765  -0.002197  0.96268  -0.003  0.080495  -0.001511  1.028567  -0.002  0.080947  -0.001075  1.028573  -0.002  0.098189  0.080169  -0.001884  1.028979  -0.003
H  H33  1  0.58210096  0.61597484  0.48838793  1  0.064682  -0.002187  0.962789  -0.003  0.080435  -0.001511  1.028623  -0.002  0.080887  -0.001075  1.028629  -0.002  0.098167  0.080114  -0.001885  1.029028  -0.003
H  H34  1  0.23141495  0.39746430  0.30787985  1  0.038942  -0.003612  0.928641  -0.005  0.055604  -0.00281  0.99427  -0.003  0.055398  -0.00204  0.994732  -0.002  0.091367  0.055963  -0.003507  0.993524  -0.004
H  H35  1  0.76858223  0.60252205  0.69211873  1  0.038973  -0.003604  0.928644  -0.005  0.055594  -0.00281  0.994303  -0.003  0.05539  -0.00204  0.994761  -0.002  0.091311  0.055956  -0.003506  0.993551  -0.004
H  H36  1  0.21805918  0.21874839  0.26959679  1  0.049834  -0.000163  0.952436  -0.001  0.065102  -0.000173  1.024059  -0.001  0.065007  -8.9e-05  1.024231  0.0  0.099543  0.065438  -0.000354  1.023223  -0.001
H  H37  1  0.78194503  0.78124208  0.73040033  1  0.049891  -0.000161  0.952472  -0.001  0.065154  -0.000174  1.024069  -0.001  0.065059  -8.9e-05  1.024239  0.0  0.099562  0.065491  -0.000354  1.023238  -0.001
H  H38  1  0.33122711  0.45486312  0.10195416  1  0.072484  0.000145  0.922908  0.0  0.093856  3.4e-05  0.977942  0.0  0.094662  3.7e-05  0.978078  0.0  0.095246  0.092973  1.4e-05  0.978416  0.0
H  H39  1  0.66877618  0.54513673  0.89804910  1  0.072453  0.000114  0.922946  0.0  0.093862  3.4e-05  0.977966  0.0  0.09467  3.8e-05  0.9781  0.0  0.09525  0.092975  1.4e-05  0.978436  0.0
H  H40  1  0.13965880  0.34669144  0.08354877  1  0.068909  0.000331  0.952884  0.0  0.087792  0.000131  1.015962  0.0  0.087363  0.000119  1.018409  0.0  0.09309  0.087846  8.8e-05  1.014659  0.0
H  H41  1  0.86034449  0.65330541  0.91644961  1  0.068869  0.000308  0.952837  0.0  0.087765  0.00013  1.015936  0.0  0.087334  0.00012  1.018384  0.0  0.093095  0.087814  8.8e-05  1.014628  0.0
H  H42  1  0.23369001  0.13241336  0.05589778  1  0.053623  -0.000314  0.919411  -0.001  0.075451  -0.000338  0.974725  -0.001  0.074713  -0.000229  0.975944  0.0  0.101647  0.076043  -0.000427  0.973757  -0.001
H  H43  1  0.76631955  0.86758559  0.94409700  1  0.053749  -0.000317  0.919386  -0.001  0.075476  -0.000338  0.974749  -0.001  0.074738  -0.000229  0.975972  0.0  0.101647  0.076073  -0.000427  0.973785  -0.001
H  H44  1  0.24529345  0.24491768  0.93185967  1  0.040854  -0.003183  0.976217  -0.005  0.057151  -0.002359  1.039693  -0.003  0.056171  -0.001744  1.041493  -0.002  0.090476  0.057848  -0.002792  1.038827  -0.004
H  H45  1  0.75471656  0.75508543  0.06813735  1  0.040924  -0.003188  0.976268  -0.005  0.057175  -0.002359  1.03974  -0.003  0.056196  -0.001743  1.041541  -0.002  0.090509  0.057882  -0.002791  1.038861  -0.004
H  H46  1  0.23385855  0.66935308  0.10296115  1  0.100442  1e-05  0.951996  0.0  0.107958  -4.3e-05  1.016244  0.0  0.112145  -2.5e-05  1.013284  0.0  0.102774  0.104998  -2.5e-05  1.018659  0.0
H  H47  1  0.76614267  0.33065018  0.89706357  1  0.100371  1.6e-05  0.952145  0.0  0.107909  -4.3e-05  1.016346  0.0  0.112097  -2.5e-05  1.013385  0.0  0.102735  0.104946  -2.5e-05  1.018756  0.0
H  H48  1  0.97910505  0.50185283  0.12479227  1  0.093899  -0.00033  0.967558  0.0  0.100727  -0.000264  1.036636  0.0  0.104551  -0.000172  1.033944  0.0  0.099967  0.098204  -0.000284  1.038161  0.0
H  H49  1  0.02089800  0.49815240  0.87523473  1  0.093837  -0.000332  0.967725  0.0  0.100712  -0.000264  1.036725  0.0  0.104542  -0.000172  1.034042  0.0  0.099991  0.098189  -0.000284  1.038254  0.0
H  H50  1  0.87783104  0.83201264  0.32749391  1  0.095995  -1.1e-05  0.952927  0.0  0.103316  -7e-06  1.017091  0.0  0.10755  -2e-06  1.013827  0.0  0.100563  0.10025  2.8e-05  1.019772  0.0
H  H51  1  0.12216578  0.16801110  0.67250543  1  0.09592  -2e-06  0.95287  0.0  0.103263  -7e-06  1.017026  0.0  0.107502  -2e-06  1.013755  0.0  0.100481  0.100191  2.8e-05  1.019707  0.0
H  H52  1  0.13730879  0.99839865  0.31293955  1  0.087879  -0.000294  0.97411  0.0  0.094117  -0.000299  1.045976  0.0  0.098258  -0.000193  1.042616  0.0  0.097079  0.091327  -0.000348  1.04801  0.0
H  H53  1  0.86269118  0.00161292  0.68706687  1  0.087828  -0.000292  0.974108  0.0  0.094125  -0.000299  1.04589  0.0  0.09821  -0.000193  1.042588  0.0  0.097074  0.091339  -0.000348  1.047921  0.0
C  C54  1  0.87287093  0.16922790  0.22337689  1  0.091078  0.002286  3.657902  0.003  0.036814  -0.000126  3.929856  0.001  0.04263  0.000346  3.943122  0.001  -0.07436  0.032618  -0.000563  3.920289  0.001
C  C55  1  0.12712216  0.83076511  0.77661876  1  0.090945  0.002277  3.658165  0.003  0.036745  -0.000128  3.930054  0.001  0.042571  0.000343  3.943295  0.001  -0.074419  0.032563  -0.000563  3.920483  0.001
C  C56  1  0.89906224  0.16759792  0.36814226  1  -0.151036  -0.000321  3.67817  -0.001  -0.192466  -0.000256  3.943831  -0.001  -0.195013  -0.0001  3.958535  -0.001  -0.158425  -0.189984  -0.000464  3.933125  -0.001
C  C57  1  0.10093228  0.83239603  0.63185554  1  -0.151038  -0.000286  3.678063  -0.001  -0.192492  -0.000257  3.943783  -0.001  -0.194995  -0.000104  3.95846  -0.001  -0.158504  -0.190006  -0.000463  3.933048  -0.001
C  C58  1  0.85171563  0.27880455  0.43928080  1  0.032374  0.004083  3.652607  0.004  -0.025042  0.001383  3.922413  0.002  -0.020001  0.001749  3.936014  0.002  -0.074796  -0.028762  0.000706  3.913277  0.002
C  C59  1  0.14829340  0.72119003  0.56071639  1  0.032438  0.004005  3.6525  0.004  -0.025053  0.001383  3.922305  0.002  -0.020017  0.001753  3.935893  0.002  -0.074771  -0.028774  0.000706  3.913173  0.002
C  C60  1  0.63102799  0.33858659  0.50075679  1  0.010472  0.003407  3.638226  0.003  -0.048324  0.000941  3.911129  0.001  -0.043734  0.001339  3.923155  0.002  -0.069575  -0.051189  0.000461  3.90249  0.001
C  C61  1  0.36897496  0.66141233  0.49924355  1  0.010564  0.003402  3.638162  0.003  -0.04831  0.00094  3.911017  0.001  -0.043727  0.001338  3.923055  0.002  -0.069491  -0.051173  0.000461  3.902369  0.001
C  C62  1  0.46190776  0.31960303  0.45057620  1  0.002533  0.003362  3.649531  0.003  -0.056811  0.000777  3.920768  0.001  -0.052441  0.001207  3.932785  0.001  -0.074866  -0.059903  0.000271  3.912883  0.001
C  C63  1  0.53809836  0.68039261  0.54942344  1  0.002588  0.003351  3.649777  0.003  -0.05666  0.000776  3.920893  0.001  -0.052292  0.001206  3.932917  0.001  -0.074785  -0.059755  0.00027  3.913009  0.001
C  C64  1  0.28159134  0.32783960  0.25779480  1  0.050079  0.003721  3.659017  0.004  -0.006114  0.000782  3.929284  0.002  -0.00065  0.001225  3.943486  0.002  -0.068722  -0.00994  0.000438  3.919307  0.002
C  C65  1  0.71840996  0.67215192  0.74220477  1  0.049951  0.003675  3.659054  0.004  -0.006176  0.000784  3.929297  0.002  -0.000711  0.001223  3.943497  0.002  -0.068697  -0.010003  0.000438  3.91932  0.002
C  C66  1  0.25960289  0.34893110  0.11626776  1  -0.15323  -0.000439  3.677763  -0.001  -0.194813  -0.000339  3.940473  -0.001  -0.197633  -0.000142  3.955588  -0.001  -0.161125  -0.192765  -0.000568  3.93029  -0.001
C  C67  1  0.74039706  0.65106568  0.88373479  1  -0.153045  -0.000384  3.677746  -0.001  -0.19474  -0.000339  3.940512  -0.001  -0.19756  -0.000143  3.955633  -0.001  -0.161129  -0.192685  -0.000568  3.930316  -0.001
C  C68  1  0.29240760  0.23835089  0.03203632  1  0.087373  0.002785  3.649802  0.003  0.034678  0.000224  3.918106  0.001  0.040582  0.000747  3.93128  0.001  -0.076091  0.030499  -0.000434  3.908924  0.001
C  C69  1  0.70759983  0.76165121  0.96796117  1  0.087151  0.002811  3.650142  0.003  0.034636  0.000224  3.918281  0.001  0.040539  0.00074  3.931454  0.001  -0.0761  0.030452  -0.000434  3.909109  0.001
C  C70  1  0.35562341  0.94207832  0.19590986  1  0.62177  0.00262  3.94804  0.002  0.577303  -0.000483  4.24985  0.0  0.61254  0.00011  4.241546  0.0  0.197022  0.551849  -0.000777  4.256205  -0.001
C  C71  1  0.64437206  0.05792109  0.80408473  1  0.621618  0.002634  3.948064  0.002  0.577058  -0.000481  4.249999  0.0  0.612293  0.000113  4.241705  0.0  0.197017  0.551597  -0.000776  4.256365  -0.001
C  C72  1  0.20109676  0.84383256  0.20727345  1  -0.060029  -0.00269  3.759576  -0.004  -0.03998  -0.001886  3.992426  -0.002  -0.04548  -0.001213  4.013562  -0.002  -0.020494  -0.036743  -0.002389  3.980048  -0.003
C  C73  1  0.79890593  0.15617752  0.79274075  1  -0.059871  -0.0027  3.759336  -0.004  -0.039825  -0.001888  3.992221  -0.002  -0.045318  -0.001219  4.013343  -0.002  -0.020447  -0.036592  -0.00239  3.979843  -0.003
C  C74  1  0.15592042  0.70387657  0.15329614  1  -0.086481  -0.001176  3.750688  -0.001  -0.108146  -0.000884  4.001917  -0.001  -0.109377  -0.000603  4.021637  -0.001  -0.090468  -0.107889  -0.000929  3.990303  -0.001
C  C75  1  0.84407874  0.29612701  0.84672268  1  -0.086508  -0.001176  3.750607  -0.001  -0.108179  -0.000881  4.001786  -0.001  -0.109415  -0.0006  4.021512  -0.001  -0.09045  -0.107909  -0.000928  3.990159  -0.001
C  C76  1  0.01480168  0.61120972  0.16495548  1  -0.0837  0.001899  3.755582  0.001  -0.106162  0.000397  4.008021  0.0  -0.106482  0.000461  4.0271  0.0  -0.090098  -0.106423  -0.000293  3.996292  0.0
C  C77  1  0.98519457  0.38880372  0.83505987  1  -0.083706  0.001924  3.75556  0.001  -0.106172  0.000394  4.007977  0.0  -0.106504  0.000459  4.027067  0.0  -0.090189  -0.106444  -0.000293  3.996261  0.0
C  C78  1  0.91434544  0.65728210  0.22806000  1  -0.063273  -0.005818  3.756395  -0.007  -0.041631  -0.003834  3.985584  -0.004  -0.047016  -0.002773  4.005502  -0.003  -0.020423  -0.037968  -0.004849  3.973644  -0.006
C  C79  1  0.08564378  0.34273304  0.77194602  1  -0.063339  -0.005825  3.756547  -0.007  -0.04174  -0.003833  3.9858  -0.004  -0.047129  -0.002774  4.005721  -0.003  -0.020411  -0.038074  -0.004849  3.973862  -0.006
C  C80  1  0.95794457  0.79796789  0.27948426  1  -0.085683  0.00079  3.765401  0.0  -0.10544  -0.00029  4.013829  0.0  -0.106041  -6.2e-05  4.032346  0.0  -0.088776  -0.105536  2.9e-05  4.002495  0.0
C  C81  1  0.04204816  0.20205371  0.72051806  1  -0.085603  0.000754  3.765445  0.0  -0.105337  -0.000291  4.013874  0.0  -0.105936  -6.1e-05  4.032378  0.0  -0.088666  -0.105423  2.9e-05  4.002522  0.0
C  C82  1  0.10062757  0.88985748  0.27044771  1  -0.086629  -0.000795  3.755324  -0.001  -0.109044  -0.000664  4.006955  -0.001  -0.109581  -0.000515  4.025728  0.0  -0.09152  -0.109287  -0.001672  3.995249  -0.002
C  C83  1  0.89937040  0.11014872  0.72956083  1  -0.086578  -0.000789  3.755324  -0.001  -0.109053  -0.000663  4.006998  -0.001  -0.109544  -0.000513  4.025797  0.0  -0.091512  -0.109297  -0.001672  3.995285  -0.002
C  C84  1  0.76141803  0.55663210  0.24160176  1  0.618  0.004348  3.934411  0.003  0.575607  0.00081  4.236956  0.0  0.610739  0.000735  4.229336  0.0  0.197771  0.550227  0.001426  4.242813  0.001
C  C85  1  0.23856061  0.44338101  0.75838476  1  0.61834  0.004353  3.934701  0.003  0.575894  0.000811  4.237324  0.0  0.611031  0.000737  4.229699  0.0  0.197813  0.550507  0.001426  4.243184  0.001
N  N86  1  0.70934264  0.13201913  0.16412594  1  -0.591681  -0.052071  3.14693  -0.081  -0.572203  -0.035328  3.414435  -0.055  -0.599662  -0.027534  3.414531  -0.047  -0.63377  -0.553274  -0.041152  3.414839  -0.061
N  N87  1  0.29065201  0.86797810  0.83587024  1  -0.591646  -0.052051  3.146898  -0.081  -0.572206  -0.035328  3.414435  -0.055  -0.599661  -0.027534  3.414522  -0.047  -0.633721  -0.553263  -0.041155  3.414821  -0.061
N  N88  1  0.68345819  0.24547497  0.42044092  1  -0.36636  -0.052733  3.264463  -0.084  -0.319538  -0.036549  3.53216  -0.059  -0.346167  -0.028713  3.547249  -0.049  -0.485899  -0.300583  -0.04273  3.521464  -0.065
N  N89  1  0.31654793  0.75452067  0.57955872  1  -0.366536  -0.052736  3.264709  -0.084  -0.319474  -0.036547  3.532225  -0.059  -0.346092  -0.028711  3.547296  -0.049  -0.485925  -0.30051  -0.042731  3.521515  -0.065
N  N90  1  0.45793968  0.25457069  0.04948588  1  -0.588033  -0.053017  3.148292  -0.083  -0.575593  -0.0357  3.421485  -0.056  -0.602714  -0.027755  3.420632  -0.047  -0.633607  -0.55592  -0.04209  3.421867  -0.063
N  N91  1  0.54206743  0.74543348  0.95051359  1  -0.587962  -0.052999  3.14836  -0.083  -0.575585  -0.035697  3.421545  -0.056  -0.602693  -0.027752  3.420672  -0.047  -0.633645  -0.555919  -0.042089  3.421886  -0.063
N  N92  1  0.44291210  0.35143818  0.31690534  1  -0.390418  -0.059079  3.268331  -0.093  -0.345953  -0.039332  3.538852  -0.063  -0.374674  -0.030461  3.55422  -0.052  -0.49414  -0.325563  -0.045728  3.527609  -0.069
N  N93  1  0.55708904  0.64855880  0.68309179  1  -0.390564  -0.059086  3.268627  -0.093  -0.34614  -0.039331  3.539114  -0.063  -0.374858  -0.030463  3.554476  -0.052  -0.49419  -0.325745  -0.045729  3.527865  -0.069
O  O94  1  0.40463492  0.05732640  0.26863477  1  -0.619531  -0.037475  2.068644  -0.063  -0.589308  -0.026513  2.33852  -0.045  -0.623771  -0.019778  2.32957  -0.036  -0.321556  -0.562664  -0.034288  2.343623  -0.056
O  O95  1  0.59537900  0.94267246  0.73135878  1  -0.619531  -0.037478  2.068722  -0.063  -0.589256  -0.026513  2.338616  -0.045  -0.623715  -0.01978  2.329654  -0.036  -0.3216  -0.562609  -0.034288  2.343722  -0.056
O  O96  1  0.74004687  0.42763958  0.20262510  1  -0.617772  -0.041885  2.076358  -0.071  -0.584759  -0.029296  2.347129  -0.051  -0.620948  -0.021882  2.33939  -0.04  -0.32405  -0.556523  -0.037896  2.351067  -0.063
O  O97  1  0.25994795  0.57236998  0.79738228  1  -0.617843  -0.0419  2.076339  -0.071  -0.584856  -0.029297  2.347193  -0.051  -0.621044  -0.021882  2.33944  -0.04  -0.324028  -0.55661  -0.037903  2.351116  -0.063
O  O98  1  0.42517247  0.90471126  0.11504904  1  -0.629386  0.001468  1.997717  0.0  -0.578316  0.000444  2.217969  0.0  -0.601476  0.000837  2.208012  0.0  -0.319533  -0.562802  0.000439  2.225558  -0.001
O  O99  1  0.57481901  0.09527744  0.88494887  1  -0.629322  0.001469  1.997772  0.0  -0.578195  0.000445  2.218058  0.0  -0.601351  0.000839  2.208103  0.0  -0.319529  -0.562667  0.00044  2.225645  -0.001
O  O100  1  0.66911546  0.60514594  0.28977333  1  -0.61814  0.003079  1.907392  0.002  -0.578966  0.001841  2.12414  0.001  -0.600245  0.001886  2.11405  0.001  -0.339955  -0.564918  0.001695  2.132038  0.001
O  O101  1  0.33084390  0.39487421  0.71018839  1  -0.618305  0.003096  1.907883  0.002  -0.579109  0.00184  2.124684  0.001  -0.600387  0.001884  2.114585  0.001  -0.339977  -0.565065  0.001695  2.132588  0.001
