# generated using pymatgen
data_CdH6C8I2(BrN2)2
_symmetry_space_group_name_H-M   'P 1'
_cell_length_a   4.03648288
_cell_length_b   10.47658754
_cell_length_c   16.89172525
_cell_angle_alpha   90.00013079
_cell_angle_beta   89.99971731
_cell_angle_gamma   90.54340658
_symmetry_Int_Tables_number   1
_chemical_formula_structural   CdH6C8I2(BrN2)2
_chemical_formula_sum   'Cd2 H12 C16 I4 Br4 N8'
_cell_volume   714.29471515
_cell_formula_units_Z   2
loop_
 _symmetry_equiv_pos_site_id
 _symmetry_equiv_pos_as_xyz
  1  'x, y, z'
loop_
 _atom_site_type_symbol
 _atom_site_label
 _atom_site_symmetry_multiplicity
 _atom_site_fract_x
 _atom_site_fract_y
 _atom_site_fract_z
 _atom_site_occupancy
 _atom_site_hle17_bader_spin_density
 _atom_site_hle17_ddec_charge
 _atom_site_hle17_ddec_spin_density
 _atom_site_hle17_ddec_sum_bond_order
 _atom_site_hle17_magmom
 _atom_site_hse06_10hf_bader_spin_density
 _atom_site_hse06_10hf_ddec_charge
 _atom_site_hse06_10hf_ddec_spin_density
 _atom_site_hse06_10hf_ddec_sum_bond_order
 _atom_site_hse06_10hf_magmom
 _atom_site_hse06_bader_spin_density
 _atom_site_hse06_ddec_charge
 _atom_site_hse06_ddec_spin_density
 _atom_site_hse06_ddec_sum_bond_order
 _atom_site_hse06_magmom
 _atom_site_pbe_bader_spin_density
 _atom_site_pbe_cm5_charge
 _atom_site_pbe_ddec_charge
 _atom_site_pbe_ddec_spin_density
 _atom_site_pbe_ddec_sum_bond_order
 _atom_site_pbe_magmom
Cd  Cd0  1  0.49999738  0.49999899  0.49999991  1  0  0.845768  0  1.974347  0  0  0.675367  0  2.424282  0  0  0.725249  0  2.387265  0  0  0.538421  0.64256  0  2.446339  0
Cd  Cd1  1  0.50000534  0.00000026  0.00000030  1  0  0.84585  0  1.974291  0  0  0.675439  0  2.424255  0  0  0.725332  0  2.387211  0  0  0.538438  0.642631  0  2.446316  0
H  H2  1  0.70976103  0.20285067  0.47643537  1  0  0.082635  0  0.995198  0  0  0.084322  0  1.073802  0  0  0.088395  0  1.070074  0  0  0.091003  0.081248  0  1.076824  0
H  H3  1  0.29023186  0.29715218  0.97643553  1  0  0.08263  0  0.995148  0  0  0.084305  0  1.073775  0  0  0.08838  0  1.070043  0  0  0.091002  0.081231  0  1.076803  0
H  H4  1  0.29023129  0.79715017  0.52356445  1  0  0.082659  0  0.995149  0  0  0.084336  0  1.073776  0  0  0.088412  0  1.070044  0  0  0.09099  0.081262  0  1.076799  0
H  H5  1  0.70977286  0.70284963  0.02356488  1  0  0.082651  0  0.995141  0  0  0.084318  0  1.073788  0  0  0.088394  0  1.070054  0  0  0.090979  0.081242  0  1.076815  0
H  H6  1  0.21942168  0.26764506  0.21637405  1  0  0.076121  0  0.988293  0  0  0.077649  0  1.064206  0  0  0.081456  0  1.061221  0  0  0.092401  0.075084  0  1.066278  0
H  H7  1  0.78058151  0.23235497  0.71637354  1  0  0.076049  0  0.988265  0  0  0.077614  0  1.064148  0  0  0.081419  0  1.061165  0  0  0.0924  0.075047  0  1.066217  0
H  H8  1  0.78057800  0.73235102  0.78362517  1  0  0.076104  0  0.988326  0  0  0.077628  0  1.064246  0  0  0.081434  0  1.061262  0  0  0.092393  0.075063  0  1.066314  0
H  H9  1  0.21942073  0.76764684  0.28362568  1  0  0.076076  0  0.988289  0  0  0.077656  0  1.064157  0  0  0.081461  0  1.061173  0  0  0.092426  0.07509  0  1.066226  0
H  H10  1  0.28293894  0.45058191  0.31364603  1  0  0.094831  0  0.971306  0  0  0.092795  0  1.053296  0  0  0.096901  0  1.048904  0  0  0.104366  0.089617  0  1.056623  0
H  H11  1  0.71706474  0.04941942  0.81364652  1  0  0.09483  0  0.971299  0  0  0.092816  0  1.053241  0  0  0.096921  0  1.04885  0  0  0.104358  0.089638  0  1.056567  0
H  H12  1  0.71704837  0.54941510  0.68635438  1  0  0.094809  0  0.971265  0  0  0.092803  0  1.053251  0  0  0.096912  0  1.048854  0  0  0.104369  0.089625  0  1.056577  0
H  H13  1  0.28295239  0.95058337  0.18635566  1  0  0.094821  0  0.971319  0  0  0.092822  0  1.053254  0  0  0.096932  0  1.048865  0  0  0.104374  0.089642  0  1.056583  0
C  C14  1  0.60184666  0.21718077  0.41796599  1  0  0.044014  0  3.696923  0  0  0.008782  0  3.950941  0  0  0.011444  0  3.969931  0  0  0.031262  0.007112  0  3.938556  0
C  C15  1  0.39815242  0.28282380  0.91796482  1  0  0.044133  0  3.697111  0  0  0.008981  0  3.95105  0  0  0.011643  0  3.970041  0  0  0.031368  0.007312  0  3.938671  0
C  C16  1  0.39815063  0.78282103  0.58203501  1  0  0.043984  0  3.697176  0  0  0.008796  0  3.951117  0  0  0.011455  0  3.970112  0  0  0.031319  0.007125  0  3.938732  0
C  C17  1  0.60185479  0.71717898  0.08203559  1  0  0.044027  0  3.697072  0  0  0.008844  0  3.950989  0  0  0.011505  0  3.96998  0  0  0.031353  0.007175  0  3.938609  0
C  C18  1  0.57388996  0.11869227  0.36219839  1  0  0.117583  0  3.690206  0  0  0.131687  0  3.962735  0  0  0.135897  0  3.983148  0  0  0.074877  0.128185  0  3.949691  0
C  C19  1  0.42610033  0.38131018  0.86219674  1  0  0.117598  0  3.690041  0  0  0.131596  0  3.962726  0  0  0.135807  0  3.983133  0  0  0.074846  0.128091  0  3.949688  0
C  C20  1  0.42609987  0.88130762  0.63780320  1  0  0.117703  0  3.690076  0  0  0.131763  0  3.962674  0  0  0.135975  0  3.983083  0  0  0.074929  0.128259  0  3.94963  0
C  C21  1  0.57390439  0.61869164  0.13780249  1  0  0.117702  0  3.690041  0  0  0.131775  0  3.962618  0  0  0.135989  0  3.983018  0  0  0.074928  0.12827  0  3.949582  0
C  C22  1  0.33163778  0.25353758  0.27443495  1  0  0.086396  0  3.683656  0  0  0.067247  0  3.939011  0  0  0.068074  0  3.955415  0  0  0.04583  0.065946  0  3.929179  0
C  C23  1  0.66836173  0.24646265  0.77443459  1  0  0.086566  0  3.683522  0  0  0.067383  0  3.938875  0  0  0.06821  0  3.955279  0  0  0.045893  0.066086  0  3.929036  0
C  C24  1  0.66835446  0.74645849  0.72556487  1  0  0.086378  0  3.683718  0  0  0.067237  0  3.939073  0  0  0.068063  0  3.955477  0  0  0.045862  0.065936  0  3.929236  0
C  C25  1  0.33164050  0.75353820  0.22556463  1  0  0.086544  0  3.683566  0  0  0.067351  0  3.938916  0  0  0.068178  0  3.955321  0  0  0.045877  0.066053  0  3.92908  0
C  C26  1  0.36231758  0.35415461  0.32815835  1  0  0.075013  0  3.652537  0  0  0.043964  0  3.904406  0  0  0.048468  0  3.920902  0  0  0.042099  0.041079  0  3.893174  0
C  C27  1  0.63768578  0.14584582  0.82815907  1  0  0.074955  0  3.652276  0  0  0.04389  0  3.904193  0  0  0.048394  0  3.92069  0  0  0.042061  0.041008  0  3.892957  0
C  C28  1  0.63767467  0.64584146  0.67184147  1  0  0.07505  0  3.652389  0  0  0.043939  0  3.904271  0  0  0.048443  0  3.920765  0  0  0.042043  0.041053  0  3.893036  0
C  C29  1  0.36232639  0.85415696  0.17184193  1  0  0.074936  0  3.652426  0  0  0.043824  0  3.904366  0  0  0.048319  0  3.920872  0  0  0.042021  0.040942  0  3.89313  0
I  I30  1  0.75214361  0.93503326  0.39055536  1  0  -0.00498  0  1.533503  0  0  -0.027477  0  1.882248  0  0  -0.030106  0  1.87295  0  0  0.098457  -0.023233  0  1.888386  0
I  I31  1  0.24785297  0.56496880  0.89055405  1  0  -0.004991  0  1.533504  0  0  -0.027439  0  1.88225  0  0  -0.03008  0  1.872984  0  0  0.098466  -0.023193  0  1.888391  0
I  I32  1  0.24785611  0.06496568  0.60944623  1  0  -0.004979  0  1.533517  0  0  -0.027461  0  1.882266  0  0  -0.030093  0  1.872972  0  0  0.098468  -0.023219  0  1.888403  0
I  I33  1  0.75214928  0.43503301  0.10944577  1  0  -0.004988  0  1.5335  0  0  -0.027475  0  1.88224  0  0  -0.030116  0  1.872968  0  0  0.098467  -0.023226  0  1.888384  0
Br  Br34  1  0.99795770  0.62798770  0.41767301  1  0  -0.469613  0  1.119822  0  0  -0.401969  0  1.445709  0  0  -0.423592  0  1.423595  0  0  -0.238016  -0.388252  0  1.459617  0
Br  Br35  1  0.00205317  0.87201352  0.91767243  1  0  -0.46963  0  1.119832  0  0  -0.401981  0  1.445729  0  0  -0.423601  0  1.423599  0  0  -0.238011  -0.388263  0  1.459636  0
Br  Br36  1  0.00203947  0.37200647  0.58232444  1  0  -0.469612  0  1.119842  0  0  -0.401959  0  1.445724  0  0  -0.423584  0  1.423614  0  0  -0.238011  -0.388243  0  1.459633  0
Br  Br37  1  0.99795903  0.12799116  0.08232502  1  0  -0.469648  0  1.119864  0  0  -0.401982  0  1.445732  0  0  -0.423604  0  1.423606  0  0  -0.238016  -0.388263  0  1.459643  0
N  N38  1  0.49388177  0.33435817  0.40021425  1  0  -0.261929  0  3.267933  0  0  -0.182584  0  3.517764  0  0  -0.200263  0  3.540902  0  0  -0.310708  -0.170929  0  3.500153  0
N  N39  1  0.50611275  0.16564823  0.90021574  1  0  -0.261985  0  3.268058  0  0  -0.182666  0  3.517932  0  0  -0.200346  0  3.541072  0  0  -0.310742  -0.171013  0  3.500324  0
N  N40  1  0.50610314  0.66564457  0.59978438  1  0  -0.261898  0  3.268026  0  0  -0.18256  0  3.517893  0  0  -0.200238  0  3.541035  0  0  -0.310686  -0.170904  0  3.500279  0
N  N41  1  0.49389944  0.83435550  0.09978526  1  0  -0.261928  0  3.268082  0  0  -0.182581  0  3.517936  0  0  -0.200261  0  3.54108  0  0  -0.310709  -0.170926  0  3.500324  0
N  N42  1  0.43636370  0.13548709  0.29156627  1  0  -0.262948  0  3.080904  0  0  -0.232102  0  3.343859  0  0  -0.239298  0  3.35919  0  0  -0.300782  -0.22714  0  3.334353  0
N  N43  1  0.56363294  0.36451034  0.79156384  1  0  -0.26309  0  3.080924  0  0  -0.232214  0  3.343949  0  0  -0.239408  0  3.359277  0  0  -0.300866  -0.227251  0  3.334439  0
N  N44  1  0.56363347  0.86450708  0.70843532  1  0  -0.263075  0  3.080909  0  0  -0.232214  0  3.343876  0  0  -0.239408  0  3.359202  0  0  -0.300893  -0.227252  0  3.334366  0
N  N45  1  0.43636682  0.63549051  0.20843539  1  0  -0.263127  0  3.080943  0  0  -0.232268  0  3.343934  0  0  -0.239461  0  3.359259  0  0  -0.300906  -0.227306  0  3.334429  0
