# generated using pymatgen
data_CdH6C8S2N5
_symmetry_space_group_name_H-M   'P 1'
_cell_length_a   7.12132137
_cell_length_b   11.29230047
_cell_length_c   14.98994168
_cell_angle_alpha   90.00009961
_cell_angle_beta   90.00010851
_cell_angle_gamma   89.99969388
_symmetry_Int_Tables_number   1
_chemical_formula_structural   CdH6C8S2N5
_chemical_formula_sum   'Cd4 H24 C32 S8 N20'
_cell_volume   1205.43265853
_cell_formula_units_Z   4
loop_
 _symmetry_equiv_pos_site_id
 _symmetry_equiv_pos_as_xyz
  1  'x, y, z'
loop_
 _atom_site_type_symbol
 _atom_site_label
 _atom_site_symmetry_multiplicity
 _atom_site_fract_x
 _atom_site_fract_y
 _atom_site_fract_z
 _atom_site_occupancy
 _atom_site_hle17_bader_spin_density
 _atom_site_hle17_ddec_charge
 _atom_site_hle17_ddec_spin_density
 _atom_site_hle17_ddec_sum_bond_order
 _atom_site_hle17_magmom
 _atom_site_hse06_10hf_bader_spin_density
 _atom_site_hse06_10hf_ddec_charge
 _atom_site_hse06_10hf_ddec_spin_density
 _atom_site_hse06_10hf_ddec_sum_bond_order
 _atom_site_hse06_10hf_magmom
 _atom_site_hse06_bader_spin_density
 _atom_site_hse06_ddec_charge
 _atom_site_hse06_ddec_spin_density
 _atom_site_hse06_ddec_sum_bond_order
 _atom_site_hse06_magmom
 _atom_site_pbe_bader_spin_density
 _atom_site_pbe_cm5_charge
 _atom_site_pbe_ddec_charge
 _atom_site_pbe_ddec_spin_density
 _atom_site_pbe_ddec_sum_bond_order
 _atom_site_pbe_magmom
Cd  Cd0  1  0.45770959  0.54764527  0.27862074  1  0  0.93281  0  2.037772  0  0  0.752053  0  2.50786  0  0  0.796931  0  2.471521  0  0  0.715827  0.7201  0  2.533343  0
Cd  Cd1  1  0.45771085  0.45235076  0.72137757  1  0  0.932747  0  2.037834  0  0  0.751977  0  2.50791  0  0  0.796853  0  2.471573  0  0  0.715824  0.72002  0  2.533389  0
Cd  Cd2  1  0.54227879  0.95234889  0.77862166  1  0  0.932834  0  2.0378  0  0  0.752087  0  2.507881  0  0  0.796964  0  2.471538  0  0  0.715845  0.720136  0  2.533367  0
Cd  Cd3  1  0.54229143  0.04764598  0.22138073  1  0  0.932798  0  2.037745  0  0  0.75202  0  2.507817  0  0  0.796897  0  2.471481  0  0  0.715811  0.720065  0  2.533297  0
H  H4  1  0.36656702  0.49999728  0.49999978  1  0  0.056946  0  0.95158  0  0  0.059466  0  1.031518  0  0  0.061885  0  1.027223  0  0  0.116088  0.057371  0  1.035052  0
H  H5  1  0.63343432  0.99999714  0.00000163  1  0  0.056984  0  0.951504  0  0  0.05948  0  1.031461  0  0  0.061899  0  1.027166  0  0  0.116078  0.057383  0  1.034995  0
H  H6  1  0.86181880  0.53170728  0.35742910  1  0  0.090451  0  0.948494  0  0  0.096536  0  1.017736  0  0  0.098893  0  1.014307  0  0  0.114091  0.094535  0  1.020644  0
H  H7  1  0.86181962  0.46828740  0.64257359  1  0  0.090487  0  0.948377  0  0  0.096504  0  1.017705  0  0  0.098862  0  1.014275  0  0  0.114071  0.0945  0  1.020617  0
H  H8  1  0.13817971  0.96828794  0.85742766  1  0  0.090453  0  0.948436  0  0  0.096526  0  1.017698  0  0  0.098882  0  1.01427  0  0  0.114093  0.094525  0  1.020606  0
H  H9  1  0.13818376  0.03171712  0.14257235  1  0  0.090572  0  0.948374  0  0  0.096531  0  1.017722  0  0  0.098888  0  1.014293  0  0  0.114107  0.094532  0  1.020623  0
H  H10  1  0.04919333  0.49999161  0.50000097  1  0  0.115201  0  0.95703  0  0  0.125  0  1.017908  0  0  0.12805  0  1.017289  0  0  0.10309  0.122468  0  1.019226  0
H  H11  1  0.95080862  0.00000398  0.99999966  1  0  0.115266  0  0.95702  0  0  0.12506  0  1.017875  0  0  0.128108  0  1.017259  0  0  0.103121  0.122526  0  1.019191  0
H  H12  1  0.05275350  0.58738000  0.18797113  1  0  0.059921  0  0.94783  0  0  0.062303  0  1.022539  0  0  0.063864  0  1.020788  0  0  0.115914  0.060849  0  1.024326  0
H  H13  1  0.05274421  0.41262358  0.81202347  1  0  0.059925  0  0.947595  0  0  0.062312  0  1.022345  0  0  0.063872  0  1.020594  0  0  0.115908  0.060857  0  1.024133  0
H  H14  1  0.94724576  0.91262724  0.68797571  1  0  0.059835  0  0.947592  0  0  0.062188  0  1.022375  0  0  0.063747  0  1.020626  0  0  0.11587  0.06074  0  1.024154  0
H  H15  1  0.94725842  0.08738222  0.31202640  1  0  0.060024  0  0.947775  0  0  0.062384  0  1.022541  0  0  0.063945  0  1.020789  0  0  0.115971  0.060931  0  1.024327  0
H  H16  1  0.08463481  0.68528288  0.92185598  1  0  0.071881  0  0.960662  0  0  0.079297  0  1.027028  0  0  0.081171  0  1.025329  0  0  0.103627  0.077919  0  1.028095  0
H  H17  1  0.08463899  0.31472147  0.07813998  1  0  0.071916  0  0.960716  0  0  0.079329  0  1.027076  0  0  0.081201  0  1.025382  0  0  0.103677  0.077953  0  1.02814  0
H  H18  1  0.91536395  0.81472666  0.42185918  1  0  0.071868  0  0.960761  0  0  0.079285  0  1.027112  0  0  0.081157  0  1.025418  0  0  0.103633  0.077909  0  1.028173  0
H  H19  1  0.91536555  0.18527494  0.57814156  1  0  0.071927  0  0.960654  0  0  0.079336  0  1.027009  0  0  0.081209  0  1.025314  0  0  0.10365  0.077957  0  1.028075  0
H  H20  1  0.43856070  0.68937979  0.93166339  1  0  0.115446  0  0.980684  0  0  0.121988  0  1.046078  0  0  0.124209  0  1.047486  0  0  0.104162  0.120392  0  1.045179  0
H  H21  1  0.43856347  0.31062339  0.06833490  1  0  0.115433  0  0.980474  0  0  0.121944  0  1.045926  0  0  0.124174  0  1.047317  0  0  0.104163  0.120349  0  1.045022  0
H  H22  1  0.56144090  0.81062092  0.43166826  1  0  0.11546  0  0.980625  0  0  0.121971  0  1.04605  0  0  0.124198  0  1.047452  0  0  0.104193  0.120375  0  1.045146  0
H  H23  1  0.56144665  0.18937477  0.56833549  1  0  0.115431  0  0.980667  0  0  0.121938  0  1.046092  0  0  0.124159  0  1.047504  0  0  0.104167  0.120343  0  1.045188  0
H  H24  1  0.58566823  0.63399571  0.08014510  1  0  0.092825  0  0.916758  0  0  0.101861  0  0.977872  0  0  0.10445  0  0.974838  0  0  0.124083  0.099891  0  0.980148  0
H  H25  1  0.58566679  0.36600698  0.91985266  1  0  0.092859  0  0.916799  0  0  0.101902  0  0.977917  0  0  0.104493  0  0.974882  0  0  0.124097  0.099931  0  0.980193  0
H  H26  1  0.41432780  0.86600509  0.58014646  1  0  0.092837  0  0.916735  0  0  0.101874  0  0.977852  0  0  0.104464  0  0.974816  0  0  0.124089  0.099902  0  0.980127  0
H  H27  1  0.41433907  0.13399374  0.41985182  1  0  0.092845  0  0.916842  0  0  0.101851  0  0.978006  0  0  0.104442  0  0.97497  0  0  0.124102  0.099881  0  0.980281  0
C  C28  1  0.29217460  0.82159332  0.31721406  1  0  0.314  0  3.997968  0  0  0.293951  0  4.298553  0  0  0.316178  0  4.311435  0  0  0.1497  0.278578  0  4.289094  0
C  C29  1  0.29216262  0.17840504  0.68278877  1  0  0.314162  0  3.998059  0  0  0.294117  0  4.298644  0  0  0.316343  0  4.311527  0  0  0.149849  0.278744  0  4.289188  0
C  C30  1  0.70782516  0.67840536  0.81721143  1  0  0.314044  0  3.997987  0  0  0.293998  0  4.298561  0  0  0.316225  0  4.311438  0  0  0.149723  0.278626  0  4.289099  0
C  C31  1  0.70782968  0.32159249  0.18278845  1  0  0.314121  0  3.99788  0  0  0.294077  0  4.298459  0  0  0.316306  0  4.311344  0  0  0.14978  0.278703  0  4.288998  0
C  C32  1  0.25561482  0.27595163  0.27214612  1  0  0.318826  0  3.991047  0  0  0.297133  0  4.296645  0  0  0.319449  0  4.309861  0  0  0.152453  0.28166  0  4.286973  0
C  C33  1  0.25561377  0.72404330  0.72785533  1  0  0.318921  0  3.991034  0  0  0.297225  0  4.296632  0  0  0.31954  0  4.309846  0  0  0.152523  0.281754  0  4.286961  0
C  C34  1  0.74438064  0.22404788  0.77214026  1  0  0.318908  0  3.991193  0  0  0.297205  0  4.296806  0  0  0.319519  0  4.310025  0  0  0.152529  0.281733  0  4.287133  0
C  C35  1  0.74438985  0.77595252  0.22785832  1  0  0.318823  0  3.991001  0  0  0.297126  0  4.296609  0  0  0.319442  0  4.309826  0  0  0.152455  0.281652  0  4.28694  0
C  C36  1  0.51961025  0.49999703  0.49999852  1  0  0.296845  0  3.736768  0  0  0.24049  0  4.009221  0  0  0.255805  0  4.023342  0  0  0.182971  0.230435  0  3.999828  0
C  C37  1  0.48038829  0.99999828  0.00000222  1  0  0.296858  0  3.736694  0  0  0.240522  0  4.009136  0  0  0.255835  0  4.02326  0  0  0.183037  0.230473  0  3.999738  0
C  C38  1  0.79503784  0.51666979  0.42182557  1  0  0.194062  0  3.644676  0  0  0.157541  0  3.893663  0  0  0.169156  0  3.908942  0  0  0.071151  0.150001  0  3.883598  0
C  C39  1  0.79503969  0.48332335  0.57817239  1  0  0.19388  0  3.64505  0  0  0.157422  0  3.89398  0  0  0.169035  0  3.909263  0  0  0.071052  0.149884  0  3.883912  0
C  C40  1  0.20495810  0.98332558  0.92182889  1  0  0.194012  0  3.645032  0  0  0.157505  0  3.893984  0  0  0.169117  0  3.909269  0  0  0.071086  0.149966  0  3.88392  0
C  C41  1  0.20496204  0.01667926  0.07817519  1  0  0.193891  0  3.644879  0  0  0.157509  0  3.893755  0  0  0.169124  0  3.909033  0  0  0.071132  0.149971  0  3.883689  0
C  C42  1  0.89659085  0.49999640  0.50000336  1  0  -0.152578  0  3.685056  0  0  -0.161603  0  3.932277  0  0  -0.173409  0  3.953775  0  0  -0.075574  -0.154555  0  3.919026  0
C  C43  1  0.10340970  0.00000362  0.99999860  1  0  -0.152698  0  3.685095  0  0  -0.161718  0  3.93228  0  0  -0.173525  0  3.953781  0  0  -0.075617  -0.15467  0  3.919034  0
C  C44  1  0.13791164  0.60969411  0.12976949  1  0  0.283455  0  3.729785  0  0  0.23823  0  3.998703  0  0  0.251397  0  4.013459  0  0  0.174604  0.229751  0  3.988533  0
C  C45  1  0.13791261  0.39030564  0.87023120  1  0  0.283436  0  3.730202  0  0  0.238183  0  3.999143  0  0  0.251349  0  4.013904  0  0  0.17458  0.229703  0  3.988968  0
C  C46  1  0.86208739  0.89030769  0.62976595  1  0  0.28369  0  3.730118  0  0  0.238449  0  3.999111  0  0  0.251618  0  4.013869  0  0  0.174728  0.229965  0  3.988945  0
C  C47  1  0.86209587  0.10969586  0.37022940  1  0  0.283333  0  3.729966  0  0  0.238094  0  3.9989  0  0  0.251262  0  4.013653  0  0  0.174521  0.229612  0  3.988731  0
C  C48  1  0.15718476  0.66374338  0.98402369  1  0  0.17364  0  3.683322  0  0  0.143935  0  3.940706  0  0  0.153633  0  3.95659  0  0  0.060957  0.137843  0  3.930039  0
C  C49  1  0.15719413  0.33625896  0.01597367  1  0  0.17369  0  3.683266  0  0  0.143993  0  3.940648  0  0  0.153694  0  3.956523  0  0  0.060985  0.137893  0  3.929996  0
C  C50  1  0.84281845  0.83626365  0.48402151  1  0  0.173829  0  3.682717  0  0  0.14413  0  3.940094  0  0  0.153831  0  3.955967  0  0  0.06108  0.13803  0  3.929436  0
C  C51  1  0.84281859  0.16374084  0.51597382  1  0  0.173591  0  3.683309  0  0  0.14392  0  3.940646  0  0  0.153614  0  3.956528  0  0  0.060969  0.137826  0  3.929984  0
C  C52  1  0.35273555  0.66585777  0.98905115  1  0  -0.168592  0  3.693354  0  0  -0.175758  0  3.935904  0  0  -0.187266  0  3.95954  0  0  -0.083312  -0.16856  0  3.920516  0
C  C53  1  0.35273368  0.33414746  0.01094172  1  0  -0.16858  0  3.69366  0  0  -0.175722  0  3.936274  0  0  -0.187235  0  3.959924  0  0  -0.083375  -0.168523  0  3.920885  0
C  C54  1  0.64725785  0.83414926  0.48905813  1  0  -0.168695  0  3.693689  0  0  -0.175832  0  3.936287  0  0  -0.187346  0  3.959929  0  0  -0.083418  -0.16863  0  3.920897  0
C  C55  1  0.64726638  0.16585234  0.51094770  1  0  -0.16859  0  3.693344  0  0  -0.175728  0  3.935896  0  0  -0.187238  0  3.959532  0  0  -0.083333  -0.16853  0  3.920509  0
C  C56  1  0.43359530  0.63592470  0.07045720  1  0  0.179944  0  3.658483  0  0  0.146364  0  3.903069  0  0  0.15632  0  3.920622  0  0  0.067222  0.14011  0  3.891153  0
C  C57  1  0.43359391  0.36407761  0.92954442  1  0  0.17985  0  3.658551  0  0  0.146254  0  3.903153  0  0  0.156209  0  3.920711  0  0  0.067209  0.139999  0  3.891236  0
C  C58  1  0.56640631  0.86407608  0.57045536  1  0  0.179953  0  3.658788  0  0  0.146397  0  3.903364  0  0  0.156352  0  3.92092  0  0  0.06721  0.140141  0  3.891446  0
C  C59  1  0.56641338  0.13591782  0.42954239  1  0  0.179926  0  3.658916  0  0  0.14636  0  3.90345  0  0  0.156316  0  3.921  0  0  0.067161  0.140105  0  3.891534  0
S  S60  1  0.21778031  0.70118579  0.36584922  1  0  -0.346645  0  2.16541  0  0  -0.31394  0  2.497111  0  0  -0.330831  0  2.488956  0  0  -0.141305  -0.300837  0  2.502115  0
S  S61  1  0.21778396  0.29881458  0.63415220  1  0  -0.34673  0  2.165513  0  0  -0.314025  0  2.49722  0  0  -0.330918  0  2.489074  0  0  -0.14135  -0.300918  0  2.502222  0
S  S62  1  0.78221402  0.79881389  0.86584950  1  0  -0.346704  0  2.165417  0  0  -0.314005  0  2.497118  0  0  -0.330902  0  2.48897  0  0  -0.141335  -0.300899  0  2.50212  0
S  S63  1  0.78221658  0.20118638  0.13415045  1  0  -0.346617  0  2.165453  0  0  -0.313911  0  2.497152  0  0  -0.330805  0  2.489002  0  0  -0.14129  -0.300807  0  2.502153  0
S  S64  1  0.17651110  0.39584944  0.31944789  1  0  -0.354796  0  2.202528  0  0  -0.323119  0  2.541813  0  0  -0.341096  0  2.534683  0  0  -0.148175  -0.309198  0  2.546171  0
S  S65  1  0.17651090  0.60414664  0.68054483  1  0  -0.354852  0  2.202358  0  0  -0.323168  0  2.541646  0  0  -0.341149  0  2.534523  0  0  -0.148201  -0.30925  0  2.546007  0
S  S66  1  0.82348033  0.10414575  0.81945061  1  0  -0.354879  0  2.202322  0  0  -0.323185  0  2.541572  0  0  -0.341146  0  2.534409  0  0  -0.14818  -0.309261  0  2.54593  0
S  S67  1  0.82348833  0.89584730  0.18055072  1  0  -0.354766  0  2.202475  0  0  -0.323083  0  2.54176  0  0  -0.341057  0  2.534628  0  0  -0.148155  -0.309161  0  2.546113  0
N  N68  1  0.34662332  0.90943091  0.28305590  1  0  -0.521734  0  2.872939  0  0  -0.466322  0  3.147788  0  0  -0.487057  0  3.154076  0  0  -0.393112  -0.452019  0  3.143966  0
N  N69  1  0.34661644  0.09056991  0.71694898  1  0  -0.521855  0  2.873066  0  0  -0.46646  0  3.14794  0  0  -0.487197  0  3.154235  0  0  -0.393239  -0.452158  0  3.144119  0
N  N70  1  0.65337631  0.59056946  0.78305378  1  0  -0.521735  0  2.873032  0  0  -0.466331  0  3.147893  0  0  -0.48706  0  3.154168  0  0  -0.393117  -0.452026  0  3.144068  0
N  N71  1  0.65337600  0.40943478  0.21694538  1  0  -0.521899  0  2.87286  0  0  -0.466505  0  3.147747  0  0  -0.487239  0  3.154026  0  0  -0.393223  -0.452201  0  3.143923  0
N  N72  1  0.30905605  0.18845737  0.23701787  1  0  -0.527218  0  2.867107  0  0  -0.47462  0  3.144949  0  0  -0.495157  0  3.151753  0  0  -0.390395  -0.460354  0  3.140819  0
N  N73  1  0.30906000  0.81153296  0.76298030  1  0  -0.527242  0  2.867324  0  0  -0.474662  0  3.145207  0  0  -0.495196  0  3.15201  0  0  -0.390436  -0.460398  0  3.141081  0
N  N74  1  0.69094629  0.31153408  0.73701607  1  0  -0.527212  0  2.867434  0  0  -0.474628  0  3.145311  0  0  -0.495162  0  3.152119  0  0  -0.390469  -0.460359  0  3.141176  0
N  N75  1  0.69094095  0.68845940  0.26298513  1  0  -0.527235  0  2.867074  0  0  -0.47465  0  3.144936  0  0  -0.495187  0  3.15174  0  0  -0.39042  -0.460383  0  3.140809  0
N  N76  1  0.60634955  0.51554101  0.42193689  1  0  -0.356446  0  3.227051  0  0  -0.277974  0  3.486333  0  0  -0.300912  0  3.505077  0  0  -0.31784  -0.262847  0  3.473574  0
N  N77  1  0.60635139  0.48445629  0.57806423  1  0  -0.356436  0  3.227119  0  0  -0.277917  0  3.486307  0  0  -0.300855  0  3.505049  0  0  -0.317811  -0.262789  0  3.473544  0
N  N78  1  0.39364499  0.98445436  0.92193705  1  0  -0.356476  0  3.227064  0  0  -0.278  0  3.486316  0  0  -0.300937  0  3.505057  0  0  -0.317865  -0.262873  0  3.473561  0
N  N79  1  0.39365175  0.01554454  0.07806321  1  0  -0.356447  0  3.227289  0  0  -0.27794  0  3.48643  0  0  -0.300878  0  3.505176  0  0  -0.317851  -0.262811  0  3.473668  0
N  N80  1  0.32548220  0.60714340  0.14086101  1  0  -0.376998  0  3.248692  0  0  -0.293652  0  3.504824  0  0  -0.317886  0  3.526565  0  0  -0.327139  -0.277487  0  3.489738  0
N  N81  1  0.32546906  0.39286104  0.85913251  1  0  -0.376902  0  3.248503  0  0  -0.293526  0  3.504613  0  0  -0.317759  0  3.526355  0  0  -0.327059  -0.277358  0  3.489525  0
N  N82  1  0.67451969  0.89285931  0.64086598  1  0  -0.377077  0  3.248619  0  0  -0.293736  0  3.504755  0  0  -0.317969  0  3.526492  0  0  -0.327132  -0.277571  0  3.489675  0
N  N83  1  0.67452673  0.10714486  0.35913587  1  0  -0.377022  0  3.249086  0  0  -0.293649  0  3.505166  0  0  -0.317882  0  3.526905  0  0  -0.32709  -0.277483  0  3.49008  0
N  N84  1  0.04821173  0.63655849  0.05435156  1  0  -0.332966  0  3.004519  0  0  -0.297408  0  3.272121  0  0  -0.311537  0  3.284983  0  0  -0.315757  -0.288112  0  3.263321  0
N  N85  1  0.04821041  0.36344598  0.94564037  1  0  -0.333014  0  3.004547  0  0  -0.297454  0  3.272164  0  0  -0.311583  0  3.285024  0  0  -0.315799  -0.288158  0  3.263371  0
N  N86  1  0.95178982  0.86344933  0.55436141  1  0  -0.333156  0  3.004576  0  0  -0.297583  0  3.272224  0  0  -0.311711  0  3.285079  0  0  -0.315903  -0.288286  0  3.263433  0
N  N87  1  0.95179133  0.13655746  0.44564670  1  0  -0.332878  0  3.004581  0  0  -0.297323  0  3.272167  0  0  -0.311448  0  3.285028  0  0  -0.315739  -0.288027  0  3.263372  0
