# generated using pymatgen
data_Zr3H13C13NO16
_symmetry_space_group_name_H-M   'P 1'
_cell_length_a   12.01898403
_cell_length_b   14.01922345
_cell_length_c   23.14877882
_cell_angle_alpha   82.13075736
_cell_angle_beta   74.97034937
_cell_angle_gamma   64.62111619
_symmetry_Int_Tables_number   1
_chemical_formula_structural   Zr3H13C13NO16
_chemical_formula_sum   'Zr12 H52 C52 N4 O64'
_cell_volume   3402.03509765
_cell_formula_units_Z   4
loop_
 _symmetry_equiv_pos_site_id
 _symmetry_equiv_pos_as_xyz
  1  'x, y, z'
loop_
 _atom_site_type_symbol
 _atom_site_label
 _atom_site_symmetry_multiplicity
 _atom_site_fract_x
 _atom_site_fract_y
 _atom_site_fract_z
 _atom_site_occupancy
 _atom_site_pbe_bader_charge
 _atom_site_pbe_bader_spin_density
 _atom_site_pbe_cm5_charge
 _atom_site_pbe_ddec_charge
 _atom_site_pbe_ddec_spin_density
 _atom_site_pbe_ddec_sum_bond_order
 _atom_site_pbe_magmom
Zr  Zr0  1  0.26936461  0.39124425  0.55711572  1  2.639092  0  1.59021  2.359697  0  2.739361  0
Zr  Zr1  1  0.45700002  0.64901439  0.51246230  1  2.612318  0  1.57659  2.337521  0  2.791358  0
Zr  Zr2  1  0.51627701  0.41634090  0.44304497  1  2.622573  0  1.557334  2.380042  0  2.792401  0
Zr  Zr3  1  0.20956030  0.62547735  0.62746218  1  2.632746  0  1.569163  2.385493  0  2.762419  0
Zr  Zr4  1  0.51982286  0.41202269  0.60086947  1  2.617229  0  1.549883  2.374577  0  2.786387  0
Zr  Zr5  1  0.20531931  0.63000421  0.47210410  1  2.617735  0  1.562405  2.385341  0  2.711753  0
Zr  Zr6  1  0.65669338  0.16280042  0.01155659  1  2.607452  0  1.589915  2.358915  0  2.741578  0
Zr  Zr7  1  0.05744822  0.90497784  0.05616707  1  2.609842  0  1.57644  2.337754  0  2.792274  0
Zr  Zr8  1  0.81463494  0.13759134  0.12570145  1  2.620465  0  1.557407  2.380917  0  2.788878  0
Zr  Zr9  1  0.90138543  0.92861579  0.94115331  1  2.632256  0  1.56945  2.386479  0  2.760543  0
Zr  Zr10  1  0.97165641  0.14203010  0.96789323  1  2.613502  0  1.550004  2.374431  0  2.785869  0
Zr  Zr11  1  0.74648748  0.92396521  0.09650421  1  2.618668  0  1.562665  2.384992  0  2.711561  0
H  H12  1  0.45523726  0.21048160  0.24503848  1  0.129282  0  0.118938  0.148568  0  0.998051  0
H  H13  1  0.33340554  0.16947022  0.17376706  1  0.099719  0  0.116178  0.134905  0  1.002846  0
H  H14  1  0.28490401  0.41823571  0.67433693  1  0.610349  0  0.33145  0.428118  0  0.853997  0
H  H15  1  0.68703643  0.45738339  0.50061329  1  0.605413  0  0.328223  0.426276  0  0.857964  0
H  H16  1  0.20053935  0.78956206  0.54252867  1  0.623768  0  0.330939  0.426669  0  0.856417  0
H  H17  1  0.28072553  0.42851119  0.42903021  1  0.601361  0  0.31844  0.407798  0  0.890115  0
H  H18  1  0.69736596  0.20845026  0.57003877  1  0.62606  0  0.322653  0.408335  0  0.882064  0
H  H19  1  0.53995579  0.44407574  0.32505096  1  0.595893  0  0.302425  0.394441  0  0.9043  0
H  H20  1  0.28187328  0.66440424  0.34904185  1  0.599168  0  0.322439  0.410268  0  0.876466  0
H  H21  1  0.52091515  0.46022801  0.70931496  1  0.624856  0  0.308612  0.404128  0  0.905838  0
H  H22  1  0.16974046  0.59314116  0.74833133  1  0.58972  0  0.308628  0.405982  0  0.885442  0
H  H23  1  0.96273139  0.73783001  0.64867198  1  0.600314  0  0.302513  0.395903  0  0.904142  0
H  H24  1  0.99994492  0.83343589  0.49794914  1  0.61096  0  0.324766  0.405921  0  0.879974  0
H  H25  1  0.74906618  0.38609681  0.60988332  1  0.623484  0  0.296814  0.405598  0  0.890177  0
H  H26  1  0.69185988  0.66486535  0.50050593  1  0.643575  0  0.338782  0.430464  0  0.850813  0
H  H27  1  0.10054484  0.36531070  0.49992493  1  0.604256  0  0.320184  0.400252  0  0.89265  0
H  H28  1  0.08076316  0.57586900  0.41206304  1  0.582422  0  0.276444  0.361841  0  0.973346  0
H  H29  1  0.36855567  0.50985716  0.71311301  1  0.651153  0  0.284697  0.400959  0  0.941259  0
H  H30  1  0.58996773  0.73002295  0.55570071  1  0.6599  0  0.331512  0.418997  0  0.876198  0
H  H31  1  0.70867649  0.23279961  0.42564692  1  0.592942  0  0.298603  0.392463  0  0.90989  0
H  H32  1  0.70614773  0.27491999  0.50650026  1  0.646122  0  0.278675  0.399565  0  0.945929  0
H  H33  1  0.01509464  0.76380759  0.56198429  1  0.634137  0  0.277939  0.405513  0  0.939096  0
H  H34  1  0.35676371  0.53635084  0.35951741  1  0.647871  0  0.279285  0.401415  0  0.945114  0
H  H35  1  0.07272591  0.49211654  0.49182908  1  0.64871  0  0.278577  0.401786  0  0.942261  0
H  H36  1  0.24168703  0.85821321  0.82714219  1  0.153616  0  0.122159  0.156198  0  0.990478  0
H  H37  1  0.32870765  0.92423231  0.90496073  1  0.151421  0  0.119365  0.150383  0  0.993638  0
H  H38  1  0.36605426  0.69586491  0.74156182  1  0.116371  0  0.122651  0.156331  0  0.991413  0
H  H39  1  0.59677373  0.62928234  0.66367538  1  0.146849  0  0.119286  0.150224  0  0.992672  0
H  H40  1  0.81624567  0.13591965  0.89437498  1  0.624499  0  0.331235  0.428326  0  0.853514  0
H  H41  1  0.08402436  0.09662189  0.06806934  1  0.590717  0  0.328319  0.426735  0  0.85755  0
H  H42  1  0.97154905  0.76446289  0.02605145  1  0.604874  0  0.331287  0.427509  0  0.854922  0
H  H43  1  0.57733037  0.12537982  0.13965791  1  0.609141  0  0.318566  0.40801  0  0.888172  0
H  H44  1  0.91493327  0.34560256  0.99872752  1  0.609116  0  0.322414  0.408382  0  0.882254  0
H  H45  1  0.74855689  0.10939754  0.24369712  1  0.597094  0  0.302339  0.393009  0  0.906114  0
H  H46  1  0.73443019  0.88923992  0.21957591  1  0.617585  0  0.322254  0.409566  0  0.878053  0
H  H47  1  0.12952409  0.09362566  0.85955414  1  0.643158  0  0.308312  0.403258  0  0.907186  0
H  H48  1  0.94977431  0.96120477  0.82032459  1  0.603415  0  0.308146  0.405468  0  0.886578  0
H  H49  1  0.78813370  0.81627060  0.91990402  1  0.586204  0  0.302144  0.395196  0  0.90496  0
H  H50  1  0.77037123  0.72047556  0.07059770  1  0.606356  0  0.324881  0.405946  0  0.879911  0
H  H51  1  0.18425256  0.16754655  0.95904108  1  0.592797  0  0.296629  0.405269  0  0.890539  0
H  H52  1  0.29622141  0.88933085  0.06806586  1  0.643383  0  0.338926  0.429812  0  0.851914  0
H  H53  1  0.40483374  0.18876688  0.06877106  1  0.605328  0  0.320363  0.400153  0  0.893063  0
H  H54  1  0.50782890  0.97801905  0.15652407  1  0.597157  0  0.276314  0.360788  0  0.975017  0
H  H55  1  0.03035607  0.04436279  0.85559839  1  0.664539  0  0.284852  0.400452  0  0.941806  0
H  H56  1  0.31444635  0.82421561  0.01288944  1  0.661037  0  0.331364  0.419054  0  0.87614  0
H  H57  1  0.80584342  0.32122861  0.14306300  1  0.592073  0  0.298594  0.393222  0  0.908962  0
H  H58  1  0.92652215  0.27912994  0.06226084  1  0.655267  0  0.278541  0.399668  0  0.945872  0
H  H59  1  0.77987004  0.79018342  0.00660197  1  0.653385  0  0.278329  0.405748  0  0.939064  0
H  H60  1  0.69180435  0.01729797  0.20919685  1  0.644056  0  0.279334  0.401435  0  0.94479  0
H  H61  1  0.49570107  0.06191168  0.07682832  1  0.64514  0  0.278508  0.402157  0  0.941679  0
H  H62  1  0.34908463  0.34298872  0.32364607  1  0.155374  0  0.118873  0.148908  0  0.998514  0
H  H63  1  0.11492727  0.38426208  0.39485279  1  0.090309  0  0.115549  0.133706  0  1.004063  0
C  C64  1  0.38204556  0.11202537  0.31160226  1  0.397337  0  0.093663  0.155921  0  4.061112  0
C  C65  1  0.40238177  0.16178171  0.25609450  1  0.017182  0  -0.083869  -0.156109  0  3.960039  0
C  C66  1  0.34144276  0.13900544  0.21881420  1  0.027677  0  -0.09658  -0.200202  0  3.980659  0
C  C67  1  0.28580413  0.07269545  0.25055630  1  0.361397  0  0.104266  0.175001  0  4.071232  0
C  C68  1  0.44039140  0.21425783  0.64092875  1  1.680369  0  0.23943  0.720633  0  4.190577  0
C  C69  1  0.03564959  0.48648887  0.66891613  1  1.672017  0  0.243084  0.711369  0  4.185168  0
C  C70  1  0.41665071  0.22675085  0.45071412  1  1.68382  0  0.22965  0.693521  0  4.218599  0
C  C71  1  0.67832387  0.56162966  0.39128856  1  1.698138  0  0.237692  0.7034  0  4.211697  0
C  C72  1  0.29700388  0.82077868  0.42250137  1  1.648711  0  0.236842  0.719206  0  4.19125  0
C  C73  1  0.32074615  0.80680961  0.62336329  1  1.66055  0  0.23029  0.690734  0  4.216179  0
C  C74  1  0.33819684  0.93978898  0.75933317  1  0.349486  0  0.090693  0.146191  0  4.084487  0
C  C75  1  0.29846152  0.90371867  0.81664611  1  0.001482  0  -0.079024  -0.157335  0  3.946073  0
C  C76  1  0.34403350  0.93699217  0.85684721  1  0.033604  0  -0.086462  -0.180446  0  3.954415  0
C  C77  1  0.41219039  0.99370545  0.82452341  1  0.3731  0  0.104893  0.173498  0  4.066008  0
C  C78  1  0.47641590  0.61426827  0.80934725  1  0.394702  0  0.090452  0.147779  0  4.083057  0
C  C79  1  0.45786431  0.65027161  0.75202042  1  0.045846  0  -0.079133  -0.158769  0  3.945228  0
C  C80  1  0.57682013  0.61670465  0.71180100  1  -0.015223  0  -0.086652  -0.179758  0  3.951056  0
C  C81  1  0.66936357  0.55994463  0.74415140  1  0.423175  0  0.105182  0.174731  0  4.066598  0
C  C82  1  0.73448015  0.33992554  0.92792272  1  1.678603  0  0.240352  0.723022  0  4.185944  0
C  C83  1  0.62985197  0.06740697  0.89976757  1  1.683652  0  0.243735  0.710543  0  4.18574  0
C  C84  1  0.53294271  0.32717173  0.11804430  1  1.679964  0  0.230091  0.694526  0  4.219855  0
C  C85  1  0.07045518  0.99209987  0.17727013  1  1.697173  0  0.237263  0.704005  0  4.211583  0
C  C86  1  0.97951363  0.73313369  0.14605362  1  1.656904  0  0.236869  0.718629  0  4.196057  0
C  C87  1  0.19000906  0.74744434  0.94517003  1  1.666108  0  0.231388  0.693896  0  4.212138  0
C  C88  1  0.24411656  0.44140275  0.25702690  1  0.392375  0  0.094243  0.151498  0  4.059913  0
C  C89  1  0.25862274  0.39166749  0.31253982  1  -0.00865  0  -0.083966  -0.158901  0  3.96563  0
C  C90  1  0.13763409  0.41455850  0.34977473  1  0.037695  0  -0.095512  -0.198426  0  3.984394  0
C  C91  1  0.04751044  0.48085603  0.31797194  1  0.37267  0  0.103571  0.168513  0  4.069512  0
C  C92  1  0.69465145  0.42977045  0.88786010  1  0.284935  0  -0.043102  -0.246933  0  3.952605  0
C  C93  1  0.65863323  0.49156507  0.84747362  1  0.077461  0  0.101095  0.097295  0  4.158406  0
C  C94  1  0.02125362  0.64128303  0.18448205  1  0.380173  0  -0.042558  -0.243378  0  3.969874  0
C  C95  1  0.06206958  0.57166084  0.22072419  1  -0.005349  0  0.098995  0.082379  0  4.163606  0
C  C96  1  0.33457811  0.42443913  0.20339358  1  -0.517538  0  -0.027878  -0.063831  0  4.131498  0
C  C97  1  0.42198378  0.39335108  0.15962165  1  0.260575  0  -0.036452  -0.166808  0  3.908806  0
C  C98  1  0.30187429  0.67794053  0.90647614  1  -0.093362  0  -0.039812  -0.180805  0  3.936616  0
C  C99  1  0.38919736  0.64015281  0.86361554  1  -0.167451  0  -0.021251  -0.04815  0  4.139543  0
C  C100  1  0.15022938  0.00310485  0.21112286  1  0.119026  0  -0.02939  -0.151825  0  3.897083  0
C  C101  1  0.21445890  0.03069725  0.23220476  1  -0.347277  0  -0.026424  -0.064672  0  4.124927  0
C  C102  1  0.28554044  0.91257669  0.38407381  1  0.291997  0  -0.041961  -0.244347  0  3.967771  0
C  C103  1  0.29352525  0.98207651  0.34787799  1  0.084384  0  0.098618  0.091486  0  4.171058  0
C  C104  1  0.80294789  0.55052971  0.35739470  1  0.214701  0  -0.028896  -0.15023  0  3.895573  0
C  C105  1  0.91583415  0.52288600  0.33629570  1  -0.447394  0  -0.027225  -0.067318  0  4.127767  0
C  C106  1  0.80047729  0.51786143  0.72362267  1  -0.026754  0  -0.019232  -0.050864  0  4.113984  0
C  C107  1  0.91227914  0.49253516  0.70078238  1  -0.191174  0  -0.024581  -0.147661  0  3.889107  0
C  C108  1  0.43580481  0.06248837  0.72131883  1  0.043676  0  0.100327  0.094686  0  4.163058  0
C  C109  1  0.45022166  0.12452418  0.68106122  1  0.336368  0  -0.042489  -0.244802  0  3.954568  0
C  C110  1  0.48087068  0.03567266  0.84505418  1  -0.206856  0  -0.018426  -0.049669  0  4.110764  0
C  C111  1  0.54432779  0.06110076  0.86798988  1  0.007417  0  -0.02516  -0.14792  0  3.88839  0
C  C112  1  0.32417663  0.87646233  0.66208385  1  0.238491  0  -0.039615  -0.179689  0  3.936764  0
C  C113  1  0.33089451  0.91403358  0.70503718  1  -0.463283  0  -0.021639  -0.048947  0  4.140435  0
C  C114  1  0.40175902  0.12899121  0.36531676  1  -0.411892  0  -0.027245  -0.062385  0  4.127622  0
C  C115  1  0.41396917  0.16032631  0.40910933  1  0.158186  0  -0.03698  -0.167318  0  3.908119  0
N  N116  1  0.31152744  0.05502448  0.30778525  1  -1.229665  0  -0.195221  0.015324  0  3.806127  0
N  N117  1  0.40756150  0.99713867  0.76420390  1  -1.247525  0  -0.196641  0.007563  0  3.805541  0
N  N118  1  0.60794815  0.55670609  0.80449154  1  -1.218063  0  -0.197511  0.004333  0  3.805012  0
N  N119  1  0.11281194  0.49848936  0.26076853  1  -1.219522  0  -0.195447  0.038292  0  3.770152  0
O  O120  1  0.09129991  0.42483331  0.52074269  1  -1.249901  0  -0.602442  -0.817691  0  2.039669  0
O  O121  1  0.35358615  0.24529982  0.61188213  1  -1.168723  0  -0.345559  -0.601454  0  2.224345  0
O  O122  1  0.32682783  0.25472192  0.49760832  1  -1.17369  0  -0.355893  -0.630593  0  2.209881  0
O  O123  1  0.05831214  0.56428152  0.67639468  1  -1.169743  0  -0.338526  -0.633209  0  2.264178  0
O  O124  1  0.50534514  0.25780990  0.43381259  1  -1.170539  0  -0.33766  -0.616107  0  2.259482  0
O  O125  1  0.10741209  0.40791773  0.63576588  1  -1.164585  0  -0.347468  -0.601301  0  2.220442  0
O  O126  1  0.51677128  0.25649173  0.63920304  1  -1.169952  0  -0.351231  -0.627913  0  2.232383  0
O  O127  1  0.44887617  0.38156416  0.53250574  1  -1.21805  0  -0.789348  -1.189919  0  2.122355  0
O  O128  1  0.31026719  0.44501203  0.63449850  1  -1.249921  0  -0.691416  -1.06813  0  2.298998  0
O  O129  1  0.30690319  0.45162487  0.45883528  1  -1.247986  0  -0.688514  -1.033799  0  2.263933  0
O  O130  1  0.19058227  0.55494874  0.55477708  1  -1.232112  0  -0.773847  -1.128172  0  1.974327  0
O  O131  1  0.03219668  0.75075268  0.62179246  1  -1.236357  0  -0.652135  -0.918798  0  1.902152  0
O  O132  1  0.70306499  0.27357585  0.55202568  1  -1.27151  0  -0.60714  -0.826615  0  2.043153  0
O  O133  1  0.40901094  0.57543617  0.59149184  1  -1.224909  0  -0.774139  -1.152902  0  1.996402  0
O  O134  1  0.59672909  0.47641334  0.50933480  1  -1.25779  0  -0.666825  -1.025543  0  2.142943  0
O  O135  1  0.40235606  0.57863987  0.46143136  1  -1.220178  0  -0.790411  -1.181791  0  2.119679  0
O  O136  1  0.24519493  0.71374643  0.53811933  1  -1.260106  0  -0.695666  -1.070502  0  2.313858  0
O  O137  1  0.69809498  0.29747900  0.44175985  1  -1.235152  0  -0.663136  -0.928787  0  1.878765  0
O  O138  1  0.64196626  0.49414196  0.38169123  1  -1.162697  0  -0.329686  -0.602242  0  2.256234  0
O  O139  1  0.62165437  0.63337427  0.43026496  1  -1.165028  0  -0.345757  -0.632614  0  2.242875  0
O  O140  1  0.06656602  0.58968363  0.45402915  1  -1.235444  0  -0.662451  -0.928182  0  1.894969  0
O  O141  1  0.38231463  0.79085208  0.45218689  1  -1.144938  0  -0.342149  -0.591475  0  2.22618  0
O  O142  1  0.47241647  0.43847958  0.35727652  1  -1.240034  0  -0.648953  -0.925969  0  1.925273  0
O  O143  1  0.26885112  0.60302356  0.36896535  1  -1.250917  0  -0.605727  -0.834606  0  2.047394  0
O  O144  1  0.01775735  0.76274404  0.51527576  1  -1.24701  0  -0.609874  -0.825932  0  2.018678  0
O  O145  1  0.22206505  0.77737182  0.42278238  1  -1.169083  0  -0.356768  -0.654195  0  2.224267  0
O  O146  1  0.63160955  0.66073122  0.53728226  1  -1.254138  0  -0.574066  -0.779775  0  2.032658  0
O  O147  1  0.23393350  0.60148362  0.71525565  1  -1.230889  0  -0.657262  -0.939572  0  1.892852  0
O  O148  1  0.40160178  0.78469104  0.57263654  1  -1.190527  0  -0.366281  -0.657342  0  2.238989  0
O  O149  1  0.23903079  0.76941807  0.64451001  1  -1.152048  0  -0.329317  -0.576768  0  2.258599  0
O  O150  1  0.45335468  0.44559468  0.70196788  1  -1.267708  0  -0.612313  -0.8108  0  2.063225  0
O  O151  1  0.66030777  0.42292174  0.62838138  1  -1.253742  0  -0.69438  -0.97474  0  1.826248  0
O  O152  1  0.47588989  0.12925312  0.04794252  1  -1.249505  0  -0.602473  -0.817751  0  2.041068  0
O  O153  1  0.64970903  0.30880699  0.95689436  1  -1.159617  0  -0.346015  -0.601931  0  2.221806  0
O  O154  1  0.51826394  0.29935546  0.07100841  1  -1.172356  0  -0.356217  -0.631113  0  2.210837  0
O  O155  1  0.73788241  0.98974290  0.89224665  1  -1.166974  0  -0.339471  -0.633538  0  2.263648  0
O  O156  1  0.63562639  0.29611437  0.13511127  1  -1.169648  0  -0.337927  -0.616876  0  2.258098  0
O  O157  1  0.58994871  0.14603258  0.93287612  1  -1.156067  0  -0.347636  -0.600716  0  2.21887  0
O  O158  1  0.85136389  0.29762991  0.92963139  1  -1.174074  0  -0.351311  -0.628629  0  2.230752  0
O  O159  1  0.80190664  0.17246606  0.03623186  1  -1.222012  0  -0.789226  -1.189376  0  2.121494  0
O  O160  1  0.82865910  0.10912122  0.93420205  1  -1.263078  0  -0.691224  -1.069022  0  2.297841  0
O  O161  1  0.65638392  0.10236828  0.10984677  1  -1.253879  0  -0.688749  -1.035175  0  2.262561  0
O  O162  1  0.73926331  0.99908604  0.01384806  1  -1.198828  0  -0.774054  -1.128064  0  1.97404  0
O  O163  1  0.84371084  0.80328963  0.94677436  1  -1.220515  0  -0.651756  -0.918024  0  1.902045  0
O  O164  1  0.96770683  0.28048326  0.01676756  1  -1.263754  0  -0.606836  -0.826711  0  2.043281  0
O  O165  1  0.01479131  0.97864840  0.97716654  1  -1.226405  0  -0.774398  -1.153152  0  1.99742  0
O  O166  1  0.02143164  0.07758326  0.05938286  1  -1.240436  0  -0.667267  -1.026348  0  2.142424  0
O  O167  1  0.88145972  0.97531407  0.10720716  1  -1.216351  0  -0.790496  -1.181559  0  2.119257  0
O  O168  1  0.93604387  0.84027815  0.03045232  1  -1.243395  0  -0.695772  -1.071114  0  2.311826  0
O  O169  1  0.87612185  0.25654402  0.12701705  1  -1.230774  0  -0.66292  -0.929554  0  1.876835  0
O  O170  1  0.95707558  0.05968278  0.18689422  1  -1.16653  0  -0.329287  -0.602402  0  2.2563  0
O  O171  1  0.12431755  0.92034001  0.13831243  1  -1.172865  0  -0.345904  -0.632372  0  2.244582  0
O  O172  1  0.54936997  0.96429005  0.11455173  1  -1.247751  0  -0.662702  -0.927324  0  1.895941  0
O  O173  1  0.06461723  0.76296737  0.11637264  1  -1.149547  0  -0.341678  -0.591127  0  2.229033  0
O  O174  1  0.70753214  0.11505795  0.21149296  1  -1.242634  0  -0.648842  -0.924235  0  1.926731  0
O  O175  1  0.67994477  0.95068481  0.19968736  1  -1.265842  0  -0.605864  -0.834176  0  2.048442  0
O  O176  1  0.73482588  0.79119088  0.05329721  1  -1.260865  0  -0.610287  -0.826387  0  2.018745  0
O  O177  1  0.86143339  0.77666066  0.14579830  1  -1.191203  0  -0.356918  -0.654103  0  2.22511  0
O  O178  1  0.26845857  0.89350076  0.03132125  1  -1.255095  0  -0.574081  -0.779142  0  2.034552  0
O  O179  1  0.98934792  0.95280654  0.85338023  1  -1.243458  0  -0.656784  -0.938819  0  1.894019  0
O  O180  1  0.19794779  0.76943169  0.99596577  1  -1.193024  0  -0.366878  -0.658785  0  2.237936  0
O  O181  1  0.09204078  0.78479881  0.92401526  1  -1.146634  0  -0.329537  -0.579002  0  2.257194  0
O  O182  1  0.03993988  0.10850705  0.86679083  1  -1.296558  0  -0.612195  -0.809627  0  2.064046  0
O  O183  1  0.15066014  0.13083841  0.94053931  1  -1.224646  0  -0.694017  -0.974123  0  1.826888  0
