# generated using pymatgen
data_ZnH10(C2O)4
_symmetry_space_group_name_H-M   'P 1'
_cell_length_a   4.79025165
_cell_length_b   9.39375266
_cell_length_c   10.99090622
_cell_angle_alpha   102.34816225
_cell_angle_beta   102.34628457
_cell_angle_gamma   90.14589106
_symmetry_Int_Tables_number   1
_chemical_formula_structural   ZnH10(C2O)4
_chemical_formula_sum   'Zn2 H20 C16 O8'
_cell_volume   471.35469786
_cell_formula_units_Z   2
loop_
 _symmetry_equiv_pos_site_id
 _symmetry_equiv_pos_as_xyz
  1  'x, y, z'
loop_
 _atom_site_type_symbol
 _atom_site_label
 _atom_site_symmetry_multiplicity
 _atom_site_fract_x
 _atom_site_fract_y
 _atom_site_fract_z
 _atom_site_occupancy
 _atom_site_hle17_bader_spin_density
 _atom_site_hle17_ddec_charge
 _atom_site_hle17_ddec_spin_density
 _atom_site_hle17_ddec_sum_bond_order
 _atom_site_hle17_magmom
 _atom_site_hse06_10hf_bader_spin_density
 _atom_site_hse06_10hf_ddec_charge
 _atom_site_hse06_10hf_ddec_spin_density
 _atom_site_hse06_10hf_ddec_sum_bond_order
 _atom_site_hse06_10hf_magmom
 _atom_site_hse06_bader_spin_density
 _atom_site_hse06_ddec_charge
 _atom_site_hse06_ddec_spin_density
 _atom_site_hse06_ddec_sum_bond_order
 _atom_site_hse06_magmom
 _atom_site_pbe_bader_spin_density
 _atom_site_pbe_cm5_charge
 _atom_site_pbe_ddec_charge
 _atom_site_pbe_ddec_spin_density
 _atom_site_pbe_ddec_sum_bond_order
 _atom_site_pbe_magmom
Zn  Zn0  1  0.91001851  0.54995926  0.75154601  1  0  1.164603  0  1.72368  0  0  0.989147  0  2.206727  0  0  1.040311  0  2.142046  0  0  0.699103  0.952772  0  2.251683  0
Zn  Zn1  1  0.84219885  0.04979884  0.75185164  1  0  1.164522  0  1.723629  0  0  0.989168  0  2.206806  0  0  1.04031  0  2.142129  0  0  0.699065  0.952854  0  2.251627  0
H  H2  1  0.23227812  0.83663841  0.90932676  1  0  0.120318  0  0.934604  0  0  0.133401  0  0.999687  0  0  0.135918  0  0.997868  0  0  0.106623  0.131578  0  1.001022  0
H  H3  1  0.67568281  0.33710584  0.90855666  1  0  0.120663  0  0.933479  0  0  0.134296  0  0.998257  0  0  0.13681  0  0.996448  0  0  0.106753  0.132461  0  0.99962  0
H  H4  1  0.27015835  0.74108565  0.03172179  1  0  0.126907  0  0.91861  0  0  0.144443  0  0.971965  0  0  0.146527  0  0.971719  0  0  0.112856  0.142947  0  0.972328  0
H  H5  1  0.75972071  0.24215860  0.03126775  1  0  0.127644  0  0.918463  0  0  0.144921  0  0.972465  0  0  0.147032  0  0.972174  0  0  0.112566  0.143438  0  0.97281  0
H  H6  1  0.50705099  0.90459357  0.23180354  1  0  0.111392  0  0.984225  0  0  0.12608  0  1.043094  0  0  0.128698  0  1.042495  0  0  0.090056  0.124187  0  1.043701  0
H  H7  1  0.72068040  0.40613668  0.23152428  1  0  0.110213  0  0.985056  0  0  0.125428  0  1.043431  0  0  0.128073  0  1.042724  0  0  0.08982  0.123487  0  1.04414  0
H  H8  1  0.80697389  0.03255789  0.23525116  1  0  0.115501  0  1.003316  0  0  0.126274  0  1.067849  0  0  0.128789  0  1.068203  0  0  0.087125  0.124458  0  1.06776  0
H  H9  1  0.42387986  0.53304632  0.23479978  1  0  0.116508  0  1.003291  0  0  0.126698  0  1.068538  0  0  0.129209  0  1.06893  0  0  0.0874  0.125043  0  1.068199  0
H  H10  1  0.54329045  0.88531171  0.48290407  1  0  0.120816  0  0.924196  0  0  0.138627  0  0.979561  0  0  0.140468  0  0.979365  0  0  0.111767  0.137054  0  0.980319  0
H  H11  1  0.94251333  0.38471155  0.48191647  1  0  0.120449  0  0.923843  0  0  0.138061  0  0.979662  0  0  0.140002  0  0.97937  0  0  0.111368  0.136449  0  0.980448  0
H  H12  1  0.33485307  0.89073645  0.59756307  1  0  0.126734  0  0.934717  0  0  0.141302  0  0.997525  0  0  0.143762  0  0.99599  0  0  0.109903  0.139757  0  0.998343  0
H  H13  1  0.26416364  0.39211124  0.59676363  1  0  0.126195  0  0.934845  0  0  0.141077  0  0.997758  0  0  0.143584  0  0.996186  0  0  0.109872  0.139343  0  0.998833  0
H  H14  1  0.92189522  0.65540929  0.25928066  1  0  0.120967  0  0.994664  0  0  0.133945  0  1.056107  0  0  0.136556  0  1.05623  0  0  0.089899  0.132055  0  1.056119  0
H  H15  1  0.33650116  0.15418344  0.25731303  1  0  0.121841  0  0.994864  0  0  0.13481  0  1.056254  0  0  0.137445  0  1.056357  0  0  0.090132  0.13296  0  1.056222  0
H  H16  1  0.14011321  0.82764438  0.29021585  1  0  0.112374  0  0.9915  0  0  0.126241  0  1.052771  0  0  0.12867  0  1.052663  0  0  0.088945  0.12443  0  1.053072  0
H  H17  1  0.13751212  0.32236103  0.28631109  1  0  0.112012  0  0.992418  0  0  0.126164  0  1.053125  0  0  0.128634  0  1.052897  0  0  0.089419  0.124364  0  1.053376  0
H  H18  1  0.76131105  0.94206005  0.00497512  1  0  0.071786  0  0.949487  0  0  0.087506  0  1.005294  0  0  0.089342  0  1.005396  0  0  0.096189  0.086202  0  1.005386  0
H  H19  1  0.24177612  0.44156196  0.00482396  1  0  0.072518  0  0.94736  0  0  0.087656  0  1.00381  0  0  0.089591  0  1.003836  0  0  0.096294  0.086265  0  1.003966  0
H  H20  1  0.16189080  0.61397191  0.46989228  1  0  0.074797  0  0.959996  0  0  0.088127  0  1.019023  0  0  0.08997  0  1.019328  0  0  0.096482  0.086369  0  1.01958  0
H  H21  1  0.32220912  0.11791310  0.47179752  1  0  0.075747  0  0.956702  0  0  0.08863  0  1.016132  0  0  0.090434  0  1.016491  0  0  0.09675  0.086916  0  1.016684  0
C  C22  1  0.50306850  0.66213439  0.88766217  1  0  0.738836  0  3.779815  0  0  0.687683  0  4.075885  0  0  0.722598  0  4.068611  0  0  0.229847  0.663784  0  4.080059  0
C  C23  1  0.38398272  0.16218421  0.88789512  1  0  0.74038  0  3.779866  0  0  0.689814  0  4.075279  0  0  0.724786  0  4.06789  0  0  0.230335  0.665876  0  4.079503  0
C  C24  1  0.67374149  0.75007536  0.61485070  1  0  0.731524  0  3.787781  0  0  0.68227  0  4.080127  0  0  0.716785  0  4.073798  0  0  0.226372  0.658732  0  4.083443  0
C  C25  1  0.94364415  0.25032825  0.61484778  1  0  0.731769  0  3.787037  0  0  0.68246  0  4.079507  0  0  0.716994  0  4.073126  0  0  0.226573  0.658984  0  4.082752  0
C  C26  1  0.61675423  0.89861109  0.05441535  1  0  0.032608  0  3.77378  0  0  0.022791  0  4.025114  0  0  0.022649  0  4.048194  0  0  -0.097855  0.022896  0  4.009345  0
C  C27  1  0.43549368  0.39884215  0.05417555  1  0  0.033927  0  3.772797  0  0  0.024899  0  4.02397  0  0  0.024657  0  4.047087  0  0  -0.097524  0.025094  0  4.008218  0
C  C28  1  0.21935984  0.71036655  0.43803640  1  0  0.033085  0  3.761149  0  0  0.026796  0  4.008208  0  0  0.026839  0  4.030511  0  0  -0.095392  0.027035  0  3.992772  0
C  C29  1  0.22396890  0.21116109  0.43796887  1  0  0.031588  0  3.759372  0  0  0.025656  0  4.007357  0  0  0.025665  0  4.029732  0  0  -0.096355  0.025797  0  3.991955  0
C  C30  1  0.39224090  0.78667781  0.97352150  1  0  -0.294277  0  3.73241  0  0  -0.330387  0  3.968158  0  0  -0.337068  0  3.977891  0  0  -0.161805  -0.3257  0  3.961377  0
C  C31  1  0.57975999  0.28718501  0.97329366  1  0  -0.297366  0  3.733028  0  0  -0.333913  0  3.968762  0  0  -0.340676  0  3.978572  0  0  -0.162225  -0.32921  0  3.96196  0
C  C32  1  0.64502754  0.94826647  0.17980642  1  0  -0.292054  0  3.677898  0  0  -0.327081  0  3.910552  0  0  -0.332413  0  3.927822  0  0  -0.186492  -0.323296  0  3.898953  0
C  C33  1  0.53115492  0.44901591  0.17946559  1  0  -0.293004  0  3.677582  0  0  -0.328376  0  3.910393  0  0  -0.333699  0  3.927612  0  0  -0.187066  -0.324698  0  3.898719  0
C  C34  1  0.43994828  0.81563510  0.53113843  1  0  -0.299673  0  3.729664  0  0  -0.336373  0  3.965289  0  0  -0.342948  0  3.974605  0  0  -0.161516  -0.331618  0  3.95855  0
C  C35  1  0.09416588  0.31608142  0.53064630  1  0  -0.297516  0  3.728414  0  0  -0.334868  0  3.964427  0  0  -0.341546  0  3.973749  0  0  -0.160532  -0.330049  0  3.957868  0
C  C36  1  0.08862115  0.73152119  0.32368311  1  0  -0.29372  0  3.65701  0  0  -0.331715  0  3.886755  0  0  -0.337307  0  3.903944  0  0  -0.186322  -0.32775  0  3.874875  0
C  C37  1  0.23203003  0.22935020  0.32158230  1  0  -0.294314  0  3.66052  0  0  -0.332467  0  3.890045  0  0  -0.338068  0  3.907188  0  0  -0.186541  -0.328298  0  3.878073  0
O  O38  1  0.33093716  0.57250054  0.79931243  1  0  -0.676983  0  2.079222  0  0  -0.606543  0  2.369195  0  0  -0.63618  0  2.351406  0  0  -0.322047  -0.585809  0  2.380709  0
O  O39  1  0.46872277  0.07211481  0.79987313  1  0  -0.677474  0  2.07888  0  0  -0.606931  0  2.368563  0  0  -0.636546  0  2.35068  0  0  -0.321893  -0.586243  0  2.380133  0
O  O40  1  0.77316379  0.65095652  0.90321918  1  0  -0.642037  0  2.054139  0  0  -0.564803  0  2.322768  0  0  -0.595025  0  2.308887  0  0  -0.306997  -0.54376  0  2.331673  0
O  O41  1  0.12898389  0.15108426  0.90339702  1  0  -0.64161  0  2.053007  0  0  -0.565324  0  2.322001  0  0  -0.595502  0  2.307964  0  0  -0.30718  -0.54435  0  2.33107  0
O  O42  1  0.68271085  0.61181537  0.59879393  1  0  -0.633689  0  2.025399  0  0  -0.559619  0  2.287712  0  0  -0.589403  0  2.274195  0  0  -0.306513  -0.538923  0  2.296655  0
O  O43  1  0.91879465  0.11203995  0.59901698  1  0  -0.63491  0  2.0263  0  0  -0.56008  0  2.287912  0  0  -0.589845  0  2.274288  0  0  -0.306694  -0.53937  0  2.296863  0
O  O44  1  0.85549562  0.83459190  0.70369943  1  0  -0.669034  0  2.052486  0  0  -0.597346  0  2.334508  0  0  -0.626835  0  2.317089  0  0  -0.319737  -0.576652  0  2.34561  0
O  O45  1  0.84922903  0.33461159  0.70361552  1  0  -0.670561  0  2.051544  0  0  -0.598545  0  2.332978  0  0  -0.628046  0  2.315596  0  0  -0.320829  -0.57786  0  2.344069  0
