# generated using pymatgen
data_AlH6C16Cl3O5
_symmetry_space_group_name_H-M   'P 1'
_cell_length_a   6.68775240
_cell_length_b   23.76339168
_cell_length_c   26.03089204
_cell_angle_alpha   101.47486020
_cell_angle_beta   89.99990497
_cell_angle_gamma   90.00079357
_symmetry_Int_Tables_number   1
_chemical_formula_structural   AlH6C16Cl3O5
_chemical_formula_sum   'Al4 H24 C64 Cl12 O20'
_cell_volume   4054.23665137
_cell_formula_units_Z   4
loop_
 _symmetry_equiv_pos_site_id
 _symmetry_equiv_pos_as_xyz
  1  'x, y, z'
loop_
 _atom_site_type_symbol
 _atom_site_label
 _atom_site_symmetry_multiplicity
 _atom_site_fract_x
 _atom_site_fract_y
 _atom_site_fract_z
 _atom_site_occupancy
 _atom_site_pbe_bader_charge
 _atom_site_pbe_bader_spin_density
 _atom_site_pbe_cm5_charge
 _atom_site_pbe_ddec_charge
 _atom_site_pbe_ddec_spin_density
 _atom_site_pbe_ddec_sum_bond_order
 _atom_site_pbe_magmom
Al  Al0  1  0.21182977  0.25017467  0.25012765  1  2.504801  0  0.40047  1.655859  0  2.559003  0
Al  Al1  1  0.78816839  0.74982661  0.74987324  1  2.504933  0  0.400522  1.656011  0  2.55879  0
Al  Al2  1  0.71182883  0.24982533  0.24987264  1  2.504773  0  0.400522  1.655892  0  2.55891  0
Al  Al3  1  0.28816633  0.75017494  0.75012746  1  2.504948  0  0.400531  1.655926  0  2.558841  0
H  H4  1  0.94245053  0.64973027  0.98106022  1  0.11154  0  0.1083  0.126694  0  0.991216  0
H  H5  1  0.05755061  0.35026942  0.01893910  1  0.111497  0  0.108324  0.126705  0  0.991157  0
H  H6  1  0.44245272  0.85026973  0.51894012  1  0.111547  0  0.108299  0.126695  0  0.991231  0
H  H7  1  0.55754992  0.14973054  0.48105998  1  0.111531  0  0.108301  0.126694  0  0.991225  0
H  H8  1  0.12403507  0.50888326  0.85767194  1  0.116503  0  0.102533  0.121959  0  1.009875  0
H  H9  1  0.87596757  0.49111508  0.14232698  1  0.116562  0  0.102503  0.121938  0  1.009935  0
H  H10  1  0.62403391  0.99111602  0.64232715  1  0.116525  0  0.102538  0.121976  0  1.009927  0
H  H11  1  0.37597023  0.00888375  0.35767256  1  0.116528  0  0.102534  0.121995  0  1.009911  0
H  H12  1  0.26924847  0.43221969  0.01088652  1  0.099387  0  0.104375  0.120611  0  1.007585  0
H  H13  1  0.73074669  0.56777915  0.98911279  1  0.099496  0  0.104412  0.120681  0  1.007577  0
H  H14  1  0.76925290  0.06777938  0.48911221  1  0.099422  0  0.104404  0.120669  0  1.007575  0
H  H15  1  0.23074974  0.93222124  0.51088750  1  0.099454  0  0.104406  0.120696  0  1.007564  0
H  H16  1  0.69315610  0.54522123  0.54414076  1  0.080517  0  0.11049  0.112128  0  0.995574  0
H  H17  1  0.30684953  0.45477930  0.45586052  1  0.080626  0  0.11046  0.112107  0  0.995546  0
H  H18  1  0.19314915  0.95484257  0.95580453  1  0.08164  0  0.11038  0.111935  0  0.99556  0
H  H19  1  0.80685050  0.04515661  0.04419636  1  0.08163  0  0.110367  0.111911  0  0.995607  0
H  H20  1  0.66493716  0.46505996  0.46616369  1  0.088829  0  0.108966  0.110472  0  1.00275  0
H  H21  1  0.33507146  0.53494057  0.53383759  1  0.088724  0  0.108965  0.110443  0  1.002796  0
H  H22  1  0.16494404  0.03500882  0.03377729  1  0.088136  0  0.108997  0.11022  0  1.003167  0
H  H23  1  0.83505411  0.96499045  0.96622398  1  0.088231  0  0.108998  0.110209  0  1.003065  0
H  H24  1  0.46266316  0.32537984  0.25728806  1  0.640314  0  0.360451  0.442675  0  0.833847  0
H  H25  1  0.53733649  0.67462137  0.74271244  1  0.640361  0  0.360417  0.442564  0  0.833971  0
H  H26  1  0.96265576  0.17462029  0.24271188  1  0.640338  0  0.360436  0.442629  0  0.833869  0
H  H27  1  0.03734389  0.82538058  0.75728901  1  0.640312  0  0.360449  0.442689  0  0.833805  0
C  C28  1  0.46112418  0.17359383  0.17328589  1  1.662028  0  0.272971  0.713922  0  4.169647  0
C  C29  1  0.53887398  0.82640687  0.82671421  1  1.662048  0  0.27296  0.713967  0  4.169634  0
C  C30  1  0.96112645  0.32640646  0.32671288  1  1.662095  0  0.272795  0.713538  0  4.169756  0
C  C31  1  0.03887619  0.67359491  0.67328645  1  1.661808  0  0.272827  0.713632  0  4.16963  0
C  C32  1  0.46152642  0.18826574  0.31315273  1  1.651312  0  0.265683  0.661931  0  4.128882  0
C  C33  1  0.53846575  0.81173546  0.68684777  1  1.651392  0  0.265714  0.66197  0  4.128961  0
C  C34  1  0.96151819  0.31173311  0.18684721  1  1.651037  0  0.265708  0.661997  0  4.128789  0
C  C35  1  0.03847697  0.68826607  0.81315171  1  1.65177  0  0.265768  0.662217  0  4.128741  0
C  C36  1  0.98369222  0.66909335  0.90453072  1  0.046799  0  0.021985  0.15291  0  4.04116  0
C  C37  1  0.01630593  0.33090490  0.09546781  1  0.046521  0  0.021972  0.152907  0  4.041209  0
C  C38  1  0.48369615  0.83090523  0.59546806  1  0.046531  0  0.022029  0.152961  0  4.041078  0
C  C39  1  0.51630201  0.16909454  0.40453165  1  0.046743  0  0.022003  0.152901  0  4.041189  0
C  C40  1  0.98194631  0.63260171  0.94036006  1  0.057317  0  -0.096034  -0.207123  0  3.951078  0
C  C41  1  0.01805184  0.36739755  0.05963925  1  0.057569  0  -0.096103  -0.207192  0  3.950958  0
C  C42  1  0.48195210  0.86739795  0.55963989  1  0.057605  0  -0.096147  -0.207261  0  3.951155  0
C  C43  1  0.51804755  0.13260233  0.44036021  1  0.057354  0  -0.096144  -0.207255  0  3.951175  0
C  C44  1  0.03332435  0.57454162  0.92411273  1  -0.02379  0  -0.005708  0.110985  0  4.009121  0
C  C45  1  0.96667231  0.42545722  0.07588659  1  -0.023402  0  -0.005694  0.111057  0  4.008965  0
C  C46  1  0.53332792  0.92545786  0.57588714  1  -0.023465  0  -0.00568  0.111033  0  4.009045  0
C  C47  1  0.46667621  0.07454233  0.42411258  1  -0.02386  0  -0.005672  0.111066  0  4.009074  0
C  C48  1  0.08686216  0.55387672  0.87165274  1  0.038433  0  -0.100001  -0.211918  0  3.976128  0
C  C49  1  0.91313749  0.44612204  0.12834618  1  0.038445  0  -0.099942  -0.211897  0  3.976094  0
C  C50  1  0.58686196  0.94612282  0.62834635  1  0.038427  0  -0.099947  -0.211827  0  3.976059  0
C  C51  1  0.41313769  0.05387737  0.37165336  1  0.038448  0  -0.099998  -0.211933  0  3.976069  0
C  C52  1  0.08941703  0.59113713  0.83660442  1  0.061053  0  0.020125  0.153411  0  4.032447  0
C  C53  1  0.91057963  0.40886129  0.16339490  1  0.061144  0  0.020189  0.153515  0  4.032266  0
C  C54  1  0.58942839  0.90886250  0.66339507  1  0.061086  0  0.020091  0.153276  0  4.032384  0
C  C55  1  0.41057275  0.09113853  0.33660465  1  0.061119  0  0.020129  0.153397  0  4.032245  0
C  C56  1  0.03793917  0.64924280  0.85205707  1  0.010374  0  -0.014617  -0.146154  0  3.921342  0
C  C57  1  0.96205301  0.35075503  0.14794146  1  0.010354  0  -0.014605  -0.146153  0  3.921438  0
C  C58  1  0.53795238  0.85075738  0.64794202  1  0.010359  0  -0.014619  -0.14613  0  3.921417  0
C  C59  1  0.46204876  0.14924374  0.35205809  1  0.010336  0  -0.01459  -0.146095  0  3.921398  0
C  C60  1  0.17024585  0.49593365  0.96878688  1  0.035383  0  0.012138  0.102879  0  4.027603  0
C  C61  1  0.82975231  0.50406561  0.03121243  1  0.0351  0  0.012135  0.102913  0  4.027394  0
C  C62  1  0.67024795  0.00406617  0.53121204  1  0.035214  0  0.0121  0.102801  0  4.027536  0
C  C63  1  0.32975320  0.99593487  0.46878767  1  0.035201  0  0.012098  0.10281  0  4.027575  0
C  C64  1  0.14822793  0.46127263  0.00572003  1  0.02808  0  -0.097066  -0.191842  0  3.989285  0
C  C65  1  0.85176872  0.53872638  0.99427811  1  0.027973  0  -0.097054  -0.191901  0  3.989325  0
C  C66  1  0.64823098  0.03872678  0.49427868  1  0.027968  0  -0.097055  -0.191856  0  3.989257  0
C  C67  1  0.35177315  0.96127316  0.50572182  1  0.027921  0  -0.097031  -0.191847  0  3.989261  0
C  C68  1  0.97847248  0.46414276  0.03786565  1  0.015025  0  -0.007622  0.030101  0  3.964256  0
C  C69  1  0.02152717  0.53585659  0.96213405  1  0.015244  0  -0.007591  0.030168  0  3.964533  0
C  C70  1  0.47847291  0.03585684  0.46213351  1  0.015546  0  -0.007575  0.030191  0  3.96449  0
C  C71  1  0.52153122  0.96414234  0.53786541  1  0.015119  0  -0.007557  0.030216  0  3.964406  0
C  C72  1  0.81086993  0.48064618  0.48125061  1  -0.053196  0  -0.075074  -0.115149  0  3.950416  0
C  C73  1  0.18913720  0.51935434  0.51875067  1  -0.053134  0  -0.075096  -0.115165  0  3.950441  0
C  C74  1  0.31086718  0.01938939  0.01871732  1  -0.050491  0  -0.074987  -0.114741  0  3.950699  0
C  C75  1  0.68912948  0.98060962  0.98128474  1  -0.050523  0  -0.074993  -0.114688  0  3.950601  0
C  C76  1  0.98417724  0.45478730  0.45600163  1  0.073227  0  0.007408  0.133125  0  4.102197  0
C  C77  1  0.01582989  0.54521281  0.54399965  1  0.073131  0  0.007399  0.13312  0  4.102251  0
C  C78  1  0.48416810  0.04521494  0.04399794  1  0.073906  0  0.007367  0.132973  0  4.101965  0
C  C79  1  0.51583155  0.95478416  0.95600255  1  0.073799  0  0.007463  0.133045  0  4.101899  0
C  C80  1  0.17359891  0.47489942  0.47550204  1  0.032414  0  -0.072785  -0.111149  0  3.945026  0
C  C81  1  0.82640523  0.52510178  0.52449846  1  0.03246  0  -0.072845  -0.111255  0  3.945194  0
C  C82  1  0.67359903  0.02506704  0.02453102  1  0.028612  0  -0.072736  -0.111004  0  3.944975  0
C  C83  1  0.32640212  0.97493197  0.97547103  1  0.02865  0  -0.072828  -0.111078  0  3.944865  0
C  C84  1  0.97010729  0.40962846  0.41164749  1  -0.57508  0  -0.022383  -0.036321  0  4.085596  0
C  C85  1  0.02989984  0.59037232  0.58835301  1  -0.57553  0  -0.022343  -0.036151  0  4.085715  0
C  C86  1  0.47010752  0.09037187  0.08834933  1  -0.574851  0  -0.022339  -0.036198  0  4.085147  0
C  C87  1  0.52989512  0.90962706  0.91165234  1  -0.57479  0  -0.022461  -0.036364  0  4.085335  0
C  C88  1  0.03731121  0.62900124  0.62685403  1  0.31388  0  -0.035868  -0.186322  0  3.953614  0
C  C89  1  0.96268844  0.37099879  0.37314490  1  0.313439  0  -0.035841  -0.186134  0  3.953412  0
C  C90  1  0.53731684  0.87099540  0.87314426  1  0.313182  0  -0.035847  -0.186226  0  3.953006  0
C  C91  1  0.46267683  0.12900453  0.12685623  1  0.313328  0  -0.035904  -0.186333  0  3.953003  0
Cl  Cl92  1  0.92100462  0.74054465  0.92573491  1  -0.194099  0  -0.00095  -0.064871  0  1.429526  0
Cl  Cl93  1  0.07899653  0.25945445  0.07426362  1  -0.194134  0  -0.000974  -0.064892  0  1.429602  0
Cl  Cl94  1  0.42100680  0.75945468  0.57426463  1  -0.194127  0  -0.000971  -0.064878  0  1.429588  0
Cl  Cl95  1  0.57899285  0.24054568  0.42573586  1  -0.194103  0  -0.00095  -0.064855  0  1.429611  0
Cl  Cl96  1  0.15233306  0.56418798  0.77177087  1  -0.206477  0  -0.007431  -0.073512  0  1.429133  0
Cl  Cl97  1  0.84766659  0.43581087  0.22822845  1  -0.206489  0  -0.007448  -0.073539  0  1.429049  0
Cl  Cl98  1  0.65233490  0.93581326  0.72822903  1  -0.206488  0  -0.007439  -0.073496  0  1.429056  0
Cl  Cl99  1  0.34766475  0.06418735  0.27177069  1  -0.206489  0  -0.007443  -0.073524  0  1.42901  0
Cl  Cl100  1  0.39197350  0.49005106  0.93352847  1  -0.213201  0  0.001  -0.072792  0  1.536428  0
Cl  Cl101  1  0.60802316  0.50994779  0.06647085  1  -0.213301  0  0.001009  -0.072777  0  1.536369  0
Cl  Cl102  1  0.89197720  0.00994876  0.56647011  1  -0.213373  0  0.001011  -0.072766  0  1.536435  0
Cl  Cl103  1  0.10802394  0.99005177  0.43352921  1  -0.213258  0  0.001011  -0.072777  0  1.536402  0
O  O104  1  0.63150016  0.20162208  0.29769057  1  -1.242417  0  -0.227398  -0.582505  0  2.337254  0
O  O105  1  0.36849949  0.79837962  0.70231032  1  -1.242527  0  -0.227419  -0.582486  0  2.337277  0
O  O106  1  0.13150955  0.29837801  0.20230970  1  -1.242147  0  -0.22742  -0.58259  0  2.336922  0
O  O107  1  0.86847664  0.70162294  0.79768962  1  -1.242324  0  -0.227481  -0.58273  0  2.336783  0
O  O108  1  0.29070704  0.19090186  0.19185830  1  -1.237625  0  -0.230778  -0.591574  0  2.299108  0
O  O109  1  0.70928962  0.80909918  0.80814141  1  -1.237612  0  -0.230763  -0.591602  0  2.299024  0
O  O110  1  0.79072056  0.30909898  0.30814044  1  -1.237563  0  -0.230653  -0.5914  0  2.299238  0
O  O111  1  0.20927311  0.69090180  0.69185810  1  -1.237493  0  -0.230695  -0.591456  0  2.299416  0
O  O112  1  0.29166554  0.20308986  0.29892958  1  -1.240883  0  -0.227643  -0.582056  0  2.342342  0
O  O113  1  0.70833261  0.79691083  0.70107053  1  -1.240824  0  -0.227655  -0.582104  0  2.342355  0
O  O114  1  0.79167600  0.29690845  0.20106916  1  -1.240884  0  -0.227666  -0.582055  0  2.342658  0
O  O115  1  0.20831019  0.70309006  0.79892859  1  -1.241527  0  -0.227655  -0.582134  0  2.342858  0
O  O116  1  0.13181608  0.30917268  0.30828478  1  -1.239886  0  -0.228669  -0.581909  0  2.285255  0
O  O117  1  0.86818058  0.69082919  0.69171690  1  -1.239639  0  -0.228713  -0.581948  0  2.284976  0
O  O118  1  0.63180071  0.19082590  0.19171627  1  -1.239855  0  -0.228795  -0.582108  0  2.285309  0
O  O119  1  0.36819894  0.80917311  0.80828579  1  -1.239875  0  -0.228773  -0.582151  0  2.285385  0
O  O120  1  0.46206559  0.28395732  0.25301317  1  -1.440333  0  -0.446821  -0.994467  0  2.197881  0
O  O121  1  0.53793257  0.71604379  0.74698694  1  -1.440558  0  -0.446801  -0.994369  0  2.19793  0
O  O122  1  0.96206758  0.21604263  0.24698599  1  -1.440397  0  -0.446829  -0.994429  0  2.197913  0
O  O123  1  0.03793207  0.78395823  0.75301490  1  -1.44039  0  -0.446826  -0.994506  0  2.19785  0
