# generated using pymatgen
data_Cu2Mo2H9C10N3O8
_symmetry_space_group_name_H-M   'P 1'
_cell_length_a   7.53886100
_cell_length_b   9.27701523
_cell_length_c   27.20718111
_cell_angle_alpha   90.02769412
_cell_angle_beta   89.98664347
_cell_angle_gamma   109.45720416
_symmetry_Int_Tables_number   1
_chemical_formula_structural   Cu2Mo2H9C10N3O8
_chemical_formula_sum   'Cu8 Mo8 H36 C40 N12 O32'
_cell_volume   1794.15015694
_cell_formula_units_Z   4
loop_
 _symmetry_equiv_pos_site_id
 _symmetry_equiv_pos_as_xyz
  1  'x, y, z'
loop_
 _atom_site_type_symbol
 _atom_site_label
 _atom_site_symmetry_multiplicity
 _atom_site_fract_x
 _atom_site_fract_y
 _atom_site_fract_z
 _atom_site_occupancy
 _atom_site_pbe_bader_charge
 _atom_site_pbe_bader_spin_density
 _atom_site_pbe_cm5_charge
 _atom_site_pbe_ddec_charge
 _atom_site_pbe_ddec_spin_density
 _atom_site_pbe_ddec_sum_bond_order
 _atom_site_pbe_magmom
Cu  Cu0  1  0.36391969  0.50614831  0.45311173  1  1.131266  0.550275  0.711291  1.027556  0.693436  2.289841  0.548
Cu  Cu1  1  0.36323708  0.00582199  0.04689650  1  1.133372  -0.537326  0.713439  1.03038  -0.687799  2.29215  -0.535
Cu  Cu2  1  0.63649343  0.49415439  0.54709051  1  1.13355  -0.522703  0.712794  1.027374  -0.669713  2.296445  -0.521
Cu  Cu3  1  0.63665982  0.99413646  0.95304220  1  1.133537  0.537312  0.713414  1.030668  0.677002  2.291976  0.535
Cu  Cu4  1  0.81141383  0.20261119  0.52884896  1  1.168863  0.586036  0.740456  1.082996  0.738508  2.213114  0.584
Cu  Cu5  1  0.81264608  0.70264488  0.97128658  1  1.1647  0.564672  0.738637  1.080574  0.712137  2.221262  0.563
Cu  Cu6  1  0.18873033  0.79736214  0.47128637  1  1.168442  0.585218  0.739213  1.082406  0.737833  2.217218  0.583
Cu  Cu7  1  0.18724020  0.29731691  0.02866682  1  1.16552  -0.564687  0.738477  1.080173  -0.723568  2.220909  -0.563
Mo  Mo8  1  0.71374051  0.80969419  0.49195523  1  2.545088  0.007164  1.4887  2.107248  0.006854  4.777627  0.013
Mo  Mo9  1  0.71409215  0.30969195  0.00820531  1  2.548086  0.020459  1.49009  2.110281  0.017824  4.777085  0.025
Mo  Mo10  1  0.28642238  0.19037952  0.50813784  1  2.547196  0.015106  1.490062  2.110169  0.013626  4.775306  0.02
Mo  Mo11  1  0.28579169  0.69024702  0.99173743  1  2.548432  -0.020449  1.490244  2.110535  -0.018224  4.777674  -0.025
Mo  Mo12  1  0.84984853  0.45275383  0.44084035  1  2.539468  0.011088  1.473504  2.102909  0.010073  4.784002  0.013
Mo  Mo13  1  0.84995157  0.95297742  0.05927017  1  2.538623  0.007036  1.472613  2.102313  0.006056  4.781854  0.007
Mo  Mo14  1  0.15058567  0.54798888  0.55954166  1  2.539603  0.034274  1.472979  2.104058  0.030334  4.786704  0.037
Mo  Mo15  1  0.14993381  0.04698207  0.94065897  1  2.538125  -0.007022  1.472714  2.102372  -0.006337  4.781268  -0.007
H  H16  1  0.20967218  0.31090713  0.36703746  1  0.13048  0.001884  0.126887  0.113098  0.00085  0.976403  0.001
H  H17  1  0.20725768  0.81094598  0.13285969  1  0.145457  -0.001829  0.127391  0.114414  -0.00083  0.974906  -0.001
H  H18  1  0.79052228  0.68926597  0.63306002  1  0.137175  -0.00176  0.127008  0.113424  -0.000771  0.97593  -0.001
H  H19  1  0.79256173  0.18912114  0.86709630  1  0.145357  0.001825  0.127225  0.114118  0.000815  0.975233  0.001
H  H20  1  0.23464756  0.33295510  0.27633374  1  0.069067  0.000834  0.104564  0.118547  0.000405  1.033449  0.0
H  H21  1  0.23225355  0.83308419  0.22354448  1  0.079022  -0.000818  0.104535  0.118593  -0.000404  1.034017  0.0
H  H22  1  0.76508127  0.66710788  0.72374795  1  0.071644  -0.00081  0.104678  0.1189  -0.000405  1.03325  0.0
H  H23  1  0.76749285  0.16709618  0.77640085  1  0.076274  0.000954  0.104568  0.118295  0.000485  1.033637  0.0
H  H24  1  0.65042215  0.78225979  0.29781173  1  0.046024  0.001022  0.109703  0.121487  0.000506  0.989883  0.0
H  H25  1  0.65089985  0.28112564  0.20211626  1  0.04329  -0.001009  0.11001  0.122249  -0.00051  0.989218  0.0
H  H26  1  0.34914869  0.21798282  0.70216082  1  0.045966  -0.000985  0.109863  0.121616  -0.000497  0.989654  0.0
H  H27  1  0.34912996  0.71890347  0.79779010  1  0.046438  0.001009  0.110212  0.122447  0.000501  0.989  0.0
H  H28  1  0.61072178  0.73612648  0.38742529  1  0.165553  0.001459  0.119953  0.09603  0.000606  1.029877  0.001
H  H29  1  0.61076709  0.23501949  0.11249774  1  0.115842  -0.001517  0.120057  0.096298  -0.000641  1.030167  -0.001
H  H30  1  0.38958557  0.26401679  0.61254760  1  0.166249  -0.00151  0.120153  0.096407  -0.000629  1.030394  -0.001
H  H31  1  0.38937660  0.76485574  0.88742808  1  0.117422  0.001518  0.119968  0.09624  0.000631  1.03008  0.001
H  H32  1  0.03658277  0.23598130  0.13217777  1  0.139063  -0.002414  0.120144  0.098021  -0.001145  1.002755  -0.002
H  H33  1  0.03695046  0.73587937  0.36792585  1  0.134638  0.002547  0.120468  0.098239  0.001199  1.003031  0.002
H  H34  1  0.96331380  0.76394299  0.86778665  1  0.14004  0.002415  0.120262  0.098193  0.001128  1.002571  0.002
H  H35  1  0.96317418  0.26372109  0.63190181  1  0.141194  0.002583  0.120714  0.099163  0.0012  1.002043  0.002
H  H36  1  0.13207575  0.35482419  0.21353902  1  0.075717  -0.001016  0.105047  0.1184  -0.000509  1.027674  0.0
H  H37  1  0.13160906  0.85444384  0.28652161  1  0.078701  0.001058  0.105227  0.11859  0.000522  1.027566  0.001
H  H38  1  0.86779538  0.64503952  0.78643385  1  0.075345  0.001017  0.105184  0.11856  0.000503  1.027582  0.0
H  H39  1  0.86813478  0.14593013  0.71338662  1  0.070118  0.001146  0.105502  0.118754  0.000577  1.027744  0.001
H  H40  1  0.57804248  0.69611214  0.22193918  1  0.436228  3.8e-05  0.326761  0.275381  2e-05  0.918448  0.0
H  H41  1  0.57783356  0.19557236  0.27791551  1  0.439728  -5e-06  0.326706  0.275468  -1e-06  0.917254  0.0
H  H42  1  0.42174645  0.30383171  0.77805759  1  0.435511  -3.3e-05  0.326822  0.275038  -1.8e-05  0.918665  0.0
H  H43  1  0.42189401  0.80463404  0.72202689  1  0.439038  0.000169  0.32694  0.275908  0.000115  0.916982  0.0
H  H44  1  0.63206995  0.66437764  0.14311536  1  0.126839  -0.000915  0.113336  0.137496  -0.00043  1.005357  -0.001
H  H45  1  0.63230207  0.16423220  0.35665526  1  0.125215  0.001124  0.113591  0.137503  0.000609  1.004826  0.001
H  H46  1  0.36782450  0.33551135  0.85687075  1  0.125358  0.000916  0.113502  0.13776  0.000422  1.005324  0.001
H  H47  1  0.36802092  0.83523344  0.64329258  1  0.123649  0.001128  0.113514  0.138019  0.00059  1.005763  0.001
H  H48  1  0.51651874  0.52896613  0.06536715  1  0.195885  -0.00218  0.125169  0.108643  -0.00111  1.020257  -0.002
H  H49  1  0.51755236  0.02901185  0.43445053  1  0.193242  0.002208  0.124845  0.108393  0.001095  1.020208  0.002
H  H50  1  0.48341958  0.47096312  0.93462227  1  0.152491  0.002242  0.125002  0.108488  0.001092  1.02055  0.002
H  H51  1  0.48291093  0.96986267  0.56542447  1  0.155556  0.002049  0.125346  0.108754  0.000863  1.020644  0.002
C  C52  1  0.30358780  0.41402857  0.34961916  1  0.454945  -0.000869  0.055966  0.123409  9.6e-05  3.942294  0.0
C  C53  1  0.30179126  0.91384167  0.15029207  1  0.529141  0.000976  0.055658  0.122033  -0.000159  3.942325  0.0
C  C54  1  0.69656292  0.58611792  0.65045627  1  0.457137  0.000899  0.056207  0.123486  -9.3e-05  3.941083  0.0
C  C55  1  0.69807026  0.08622126  0.84965398  1  0.53571  -0.0008  0.056068  0.122447  0.000224  3.942289  0.0
C  C56  1  0.31769103  0.42830736  0.29874287  1  0.048535  0.005343  -0.104789  -0.254715  0.003513  3.955286  0.004
C  C57  1  0.31596338  0.92818507  0.20116650  1  -0.045702  -0.00541  -0.105103  -0.255738  -0.003524  3.95624  -0.004
C  C58  1  0.68216482  0.57176813  0.70131787  1  0.044547  -0.005147  -0.104928  -0.255419  -0.003457  3.955828  -0.004
C  C59  1  0.68382266  0.07196490  0.79877700  1  -0.046175  0.004939  -0.1053  -0.255566  0.003201  3.955106  0.004
C  C60  1  0.44097991  0.56424144  0.27823190  1  0.353493  -0.002904  0.113131  0.272983  -0.001905  4.075479  -0.002
C  C61  1  0.44016394  0.06377635  0.22168060  1  0.355844  0.002871  0.114141  0.274901  0.001853  4.075405  0.002
C  C62  1  0.55879377  0.43582418  0.72178694  1  0.355294  0.002815  0.11315  0.272733  0.001812  4.07614  0.002
C  C63  1  0.55969074  0.93635943  0.77826142  1  0.355404  -0.00278  0.114455  0.275487  -0.001891  4.074444  -0.002
C  C64  1  0.54912818  0.67587903  0.31136300  1  -0.007731  0.005406  -0.098442  -0.248282  0.003522  3.974311  0.004
C  C65  1  0.54889932  0.17507653  0.18856444  1  0.000276  -0.005367  -0.098358  -0.249511  -0.003561  3.975259  -0.004
C  C66  1  0.45066545  0.32427674  0.68863269  1  -0.00804  -0.005193  -0.097804  -0.247386  -0.003456  3.973621  -0.004
C  C67  1  0.45103396  0.82497337  0.81136691  1  -0.003584  0.004786  -0.098982  -0.25033  0.003126  3.974781  0.004
C  C68  1  0.52810337  0.65160591  0.36130439  1  0.507793  -0.000845  0.050538  0.135017  -3.7e-05  3.940444  -0.001
C  C69  1  0.52768058  0.15082668  0.13862963  1  0.557423  0.000858  0.050974  0.135594  -5.7e-05  3.940054  0.001
C  C70  1  0.47203869  0.34851539  0.63870158  1  0.508474  0.000821  0.050716  0.13491  -2.9e-05  3.939784  0.001
C  C71  1  0.47229770  0.84914959  0.86130135  1  0.557749  -0.000843  0.051224  0.136078  1.5e-05  3.939779  -0.001
C  C72  1  0.16890329  0.32992749  0.13657938  1  0.452129  0.000594  0.056841  0.134874  -0.000379  3.926925  0.0
C  C73  1  0.16913487  0.82986382  0.36344745  1  0.455687  -0.000621  0.056979  0.134746  0.000315  3.928316  0.0
C  C74  1  0.83101372  0.66995485  0.86339386  1  0.452409  -0.000603  0.05675  0.134833  0.000307  3.926727  0.0
C  C75  1  0.83096045  0.16977970  0.63642726  1  0.448312  -0.000334  0.057559  0.133996  0.000494  3.927041  0.0
C  C76  1  0.22501383  0.39635300  0.18239958  1  0.032089  -0.005905  -0.103216  -0.255636  -0.004001  3.962451  -0.005
C  C77  1  0.22481359  0.89613043  0.31760398  1  0.029158  0.006118  -0.103543  -0.255766  0.004077  3.962473  0.005
C  C78  1  0.77486036  0.60355173  0.81757514  1  0.032236  0.005898  -0.10351  -0.256326  0.003929  3.962385  0.005
C  C79  1  0.77508972  0.10389413  0.68230311  1  0.03849  0.005643  -0.103736  -0.255827  0.003819  3.962042  0.005
C  C80  1  0.39596893  0.51805122  0.18620680  1  0.347456  0.002815  0.110556  0.265824  0.001829  4.076565  0.002
C  C81  1  0.39571747  0.01781633  0.31371059  1  0.337823  -0.002933  0.110595  0.265575  -0.00195  4.0764  -0.002
C  C82  1  0.60388198  0.48187838  0.81378409  1  0.344248  -0.002818  0.111151  0.266846  -0.001864  4.075659  -0.002
C  C83  1  0.60426444  0.98212237  0.68621928  1  0.338692  -0.002827  0.110284  0.265734  -0.001938  4.076832  -0.002
C  C84  1  0.50090794  0.56751269  0.14291127  1  0.002568  -0.006226  -0.089347  -0.234732  -0.004118  3.930544  -0.005
C  C85  1  0.50112616  0.06740619  0.35693083  1  0.004515  0.006491  -0.089203  -0.234341  0.004266  3.928912  0.005
C  C86  1  0.49896803  0.43239321  0.85707998  1  0.004622  0.006216  -0.089663  -0.235518  0.004045  3.930894  0.005
C  C87  1  0.49910097  0.93214856  0.64298871  1  -0.016063  0.005977  -0.089236  -0.234942  0.003929  3.929509  0.005
C  C88  1  0.43605434  0.49404017  0.09909576  1  0.432176  0.000122  0.05494  0.125555  -0.000633  3.924447  0.0
C  C89  1  0.43671404  0.99405094  0.40077680  1  0.447048  -0.000214  0.05545  0.126431  0.000565  3.923454  0.0
C  C90  1  0.56384213  0.50587389  0.90089219  1  0.476931  -0.000195  0.055076  0.125685  0.000566  3.924098  0.0
C  C91  1  0.56360172  0.00512298  0.59910632  1  0.506544  -0.000583  0.054684  0.124844  0.000259  3.925066  0.0
N  N92  1  0.40376920  0.52380041  0.38059100  1  -1.193319  0.081134  -0.349695  -0.250365  0.053245  3.576856  0.07
N  N93  1  0.40263308  0.02332327  0.11934485  1  -1.204612  -0.080381  -0.349919  -0.249091  -0.053664  3.576524  -0.069
N  N94  1  0.59658492  0.47631713  0.61946164  1  -1.200148  -0.079037  -0.350115  -0.248912  -0.052725  3.577932  -0.068
N  N95  1  0.59730627  0.97666518  0.88058944  1  -1.207529  0.079651  -0.350141  -0.249624  0.052315  3.577495  0.068
N  N96  1  0.47032381  0.59765313  0.22880408  1  -1.248742  -0.000303  -0.395056  -0.328286  -0.000211  3.607739  0.0
N  N97  1  0.46981425  0.09725961  0.27108809  1  -1.241697  0.000297  -0.395773  -0.329142  0.000193  3.607529  0.0
N  N98  1  0.52941693  0.40230966  0.77119270  1  -1.247823  0.000289  -0.395246  -0.327742  0.000193  3.607928  0.0
N  N99  1  0.52993222  0.90292760  0.72885394  1  -1.24092  -0.00144  -0.395373  -0.328904  -0.000836  3.607856  -0.001
N  N100  1  0.27194050  0.37699528  0.09586760  1  -1.200085  -0.092462  -0.34646  -0.229913  -0.061355  3.559516  -0.079
N  N101  1  0.27259906  0.87705039  0.40408809  1  -1.21076  0.09586  -0.346547  -0.230411  0.062574  3.560951  0.082
N  N102  1  0.72796062  0.62294045  0.90410050  1  -1.199996  0.092418  -0.346458  -0.229676  0.060353  3.559446  0.079
N  N103  1  0.72765679  0.12216969  0.59578695  1  -1.211196  0.095485  -0.347179  -0.228981  0.062266  3.563842  0.081
O  O104  1  0.48896036  0.72551646  0.46200442  1  -0.986331  0.068516  -0.578266  -0.873659  0.043964  2.167341  0.06
O  O105  1  0.48964295  0.22537139  0.03814969  1  -0.984101  -0.05962  -0.578402  -0.871935  -0.039184  2.163086  -0.053
O  O106  1  0.51101908  0.27472312  0.53817211  1  -0.986738  -0.057722  -0.57884  -0.874089  -0.038199  2.164254  -0.049
O  O107  1  0.51022635  0.77457770  0.96178055  1  -0.984558  0.059616  -0.578332  -0.871995  0.038494  2.162786  0.053
O  O108  1  0.71466012  0.99638744  0.50538244  1  -0.946768  0.067269  -0.5736  -0.806277  0.044071  2.114793  0.062
O  O109  1  0.71534280  0.49611908  0.99426397  1  -0.948969  0.061129  -0.574694  -0.808991  0.040273  2.116544  0.056
O  O110  1  0.28585542  0.00417204  0.49418947  1  -0.94724  0.064321  -0.574246  -0.80718  0.042286  2.116289  0.059
O  O111  1  0.28456858  0.50382242  0.00567730  1  -0.949039  -0.061107  -0.574705  -0.808935  -0.040949  2.116367  -0.056
O  O112  1  0.89766111  0.82441037  0.45074256  1  -0.94921  0.010304  -0.56858  -0.826518  0.00638  1.831052  0.01
O  O113  1  0.89751091  0.32453767  0.04961167  1  -0.951003  0.006542  -0.569313  -0.828725  0.00388  1.832391  0.004
O  O114  1  0.10255081  0.17485966  0.54944894  1  -0.948369  0.007071  -0.568948  -0.826642  0.004111  1.827279  0.007
O  O115  1  0.10236725  0.67541037  0.95033585  1  -0.952124  -0.00655  -0.569561  -0.829137  -0.003965  1.83335  -0.004
O  O116  1  0.73522432  0.71668117  0.54901367  1  -0.96838  -0.06029  -0.578943  -0.831698  -0.03949  1.941459  -0.05
O  O117  1  0.73677950  0.21641368  0.95125848  1  -0.968951  0.072275  -0.579269  -0.832763  0.046212  1.942071  0.06
O  O118  1  0.26417698  0.28369907  0.45121618  1  -0.96755  0.07268  -0.579198  -0.832626  0.046426  1.941594  0.061
O  O119  1  0.26306772  0.78354660  0.04867323  1  -0.968146  -0.072208  -0.579339  -0.832898  -0.046953  1.942696  -0.06
O  O120  1  0.67877438  0.51331023  0.47458380  1  -1.021598  -0.041297  -0.58246  -0.933955  -0.028162  2.253539  -0.034
O  O121  1  0.67814093  0.01291073  0.02575150  1  -1.022121  0.059042  -0.582918  -0.934729  0.038439  2.2514  0.049
O  O122  1  0.32081216  0.48654560  0.52593489  1  -1.022603  0.089112  -0.582723  -0.933124  0.056872  2.247306  0.076
O  O123  1  0.32173558  0.98704981  0.97417801  1  -1.022161  -0.058979  -0.583054  -0.934594  -0.039036  2.250429  -0.049
O  O124  1  0.83231105  0.26393638  0.45874859  1  -0.936798  0.060522  -0.565873  -0.787475  0.038913  1.934342  0.051
O  O125  1  0.83147802  0.76404836  0.04121219  1  -0.935203  0.069363  -0.565936  -0.78729  0.044526  1.938573  0.06
O  O126  1  0.16854352  0.73681902  0.54137282  1  -0.940393  0.078636  -0.566619  -0.790428  0.049985  1.936077  0.067
O  O127  1  0.16834238  0.23589118  0.95872321  1  -0.935867  -0.069332  -0.565854  -0.787062  -0.045253  1.937966  -0.06
O  O128  1  0.08766387  0.58079275  0.45161514  1  -1.02666  0.060459  -0.590419  -0.947411  0.039125  2.216577  0.053
O  O129  1  0.08809282  0.08079961  0.04833038  1  -1.02609  -0.054004  -0.589857  -0.947571  -0.035991  2.216954  -0.047
O  O130  1  0.91314810  0.41918561  0.54880172  1  -1.028266  0.068155  -0.591538  -0.949967  0.044104  2.214369  0.058
O  O131  1  0.91180268  0.91915199  0.95160832  1  -1.025748  0.054014  -0.589737  -0.947645  0.035388  2.217105  0.047
O  O132  1  0.80210807  0.44960775  0.37835070  1  -0.917437  0.003797  -0.581834  -0.756237  0.002113  1.582782  0.003
O  O133  1  0.80300335  0.95008581  0.12180192  1  -0.917246  0.017035  -0.581712  -0.75607  0.01058  1.582396  0.013
O  O134  1  0.19853103  0.55177013  0.62204790  1  -0.916966  0.019785  -0.582773  -0.757809  0.011841  1.582418  0.015
O  O135  1  0.19686469  0.04987010  0.87812207  1  -0.916833  -0.017014  -0.581912  -0.756448  -0.010735  1.582344  -0.013
