# generated using pymatgen
data_HgH11C6SI
_symmetry_space_group_name_H-M   'P 1'
_cell_length_a   4.77935846
_cell_length_b   7.21624413
_cell_length_c   26.35197463
_cell_angle_alpha   90.00024896
_cell_angle_beta   90.00022838
_cell_angle_gamma   89.99998395
_symmetry_Int_Tables_number   1
_chemical_formula_structural   HgH11C6SI
_chemical_formula_sum   'Hg4 H44 C24 S4 I4'
_cell_volume   908.85371083
_cell_formula_units_Z   4
loop_
 _symmetry_equiv_pos_site_id
 _symmetry_equiv_pos_as_xyz
  1  'x, y, z'
loop_
 _atom_site_type_symbol
 _atom_site_label
 _atom_site_symmetry_multiplicity
 _atom_site_fract_x
 _atom_site_fract_y
 _atom_site_fract_z
 _atom_site_occupancy
 _atom_site_hle17_bader_spin_density
 _atom_site_hle17_ddec_charge
 _atom_site_hle17_ddec_spin_density
 _atom_site_hle17_ddec_sum_bond_order
 _atom_site_hle17_magmom
 _atom_site_hse06_10hf_bader_spin_density
 _atom_site_hse06_10hf_ddec_charge
 _atom_site_hse06_10hf_ddec_spin_density
 _atom_site_hse06_10hf_ddec_sum_bond_order
 _atom_site_hse06_10hf_magmom
 _atom_site_hse06_bader_spin_density
 _atom_site_hse06_ddec_charge
 _atom_site_hse06_ddec_spin_density
 _atom_site_hse06_ddec_sum_bond_order
 _atom_site_hse06_magmom
 _atom_site_pbe_bader_spin_density
 _atom_site_pbe_cm5_charge
 _atom_site_pbe_ddec_charge
 _atom_site_pbe_ddec_spin_density
 _atom_site_pbe_ddec_sum_bond_order
 _atom_site_pbe_magmom
Hg  Hg0  1  0.26748905  0.00000806  0.50000058  1  0  0.464022  0  2.182787  0  0  0.36037  0  2.63793  0  0  0.400586  0  2.616833  0  0  0.365552  0.332349  0  2.653104  0
Hg  Hg1  1  0.76748411  0.50000057  0.99999889  1  0  0.464028  0  2.182787  0  0  0.360364  0  2.637949  0  0  0.400579  0  2.616854  0  0  0.365554  0.332339  0  2.653137  0
Hg  Hg2  1  0.49908489  0.50000637  0.50000058  1  0  0.456167  0  2.25623  0  0  0.33602  0  2.757135  0  0  0.375413  0  2.738267  0  0  0.321547  0.309768  0  2.770037  0
Hg  Hg3  1  0.99909225  0.99999990  0.99999998  1  0  0.456172  0  2.256211  0  0  0.336011  0  2.757135  0  0  0.375405  0  2.738271  0  0  0.321564  0.309766  0  2.770029  0
H  H4  1  0.62067336  0.20583035  0.39661693  1  0  0.056465  0  0.939866  0  0  0.066078  0  1.012002  0  0  0.066587  0  1.01229  0  0  0.082936  0.065677  0  1.011786  0
H  H5  1  0.62067132  0.79417959  0.60338471  1  0  0.056482  0  0.939822  0  0  0.066073  0  1.01197  0  0  0.06658  0  1.012259  0  0  0.08292  0.065671  0  1.011756  0
H  H6  1  0.12066399  0.29416976  0.89661349  1  0  0.056524  0  0.939812  0  0  0.066087  0  1.012001  0  0  0.066594  0  1.012291  0  0  0.082943  0.065684  0  1.011784  0
H  H7  1  0.12067618  0.70582365  0.10338475  1  0  0.056455  0  0.939911  0  0  0.066073  0  1.012027  0  0  0.06658  0  1.012317  0  0  0.082939  0.065674  0  1.011806  0
H  H8  1  0.14441639  0.42698799  0.34687868  1  0  0.066967  0  0.940683  0  0  0.084534  0  1.004445  0  0  0.085859  0  1.003924  0  0  0.081948  0.083527  0  1.004897  0
H  H9  1  0.14442179  0.57301650  0.65312147  1  0  0.066985  0  0.940708  0  0  0.084552  0  1.004469  0  0  0.085877  0  1.003946  0  0  0.081957  0.083523  0  1.004939  0
H  H10  1  0.64440743  0.07300994  0.84687685  1  0  0.066888  0  0.940711  0  0  0.084457  0  1.004466  0  0  0.085781  0  1.003946  0  0  0.081912  0.083451  0  1.004913  0
H  H11  1  0.64442480  0.92698475  0.15312290  1  0  0.067006  0  0.940703  0  0  0.084555  0  1.004473  0  0  0.085879  0  1.003953  0  0  0.081964  0.083539  0  1.004922  0
H  H12  1  0.45660708  0.52137936  0.37181778  1  0  0.066894  0  0.987312  0  0  0.081566  0  1.057018  0  0  0.08316  0  1.056424  0  0  0.068002  0.080239  0  1.057711  0
H  H13  1  0.45661198  0.47862229  0.62818108  1  0  0.06685  0  0.987226  0  0  0.081569  0  1.056901  0  0  0.083168  0  1.056302  0  0  0.06798  0.080232  0  1.057599  0
H  H14  1  0.95660005  0.97861833  0.87181568  1  0  0.066912  0  0.987259  0  0  0.081544  0  1.057014  0  0  0.083138  0  1.056419  0  0  0.067992  0.08022  0  1.057705  0
H  H15  1  0.95661514  0.02137768  0.12818279  1  0  0.066931  0  0.987179  0  0  0.081596  0  1.056899  0  0  0.083192  0  1.056301  0  0  0.067988  0.080251  0  1.057599  0
H  H16  1  0.74088515  0.35634422  0.30754366  1  0  0.055242  0  0.94563  0  0  0.075491  0  1.008713  0  0  0.076045  0  1.009213  0  0  0.084452  0.075078  0  1.00834  0
H  H17  1  0.74088720  0.64365737  0.69245730  1  0  0.055236  0  0.945741  0  0  0.07546  0  1.008844  0  0  0.076011  0  1.00935  0  0  0.084442  0.075048  0  1.008465  0
H  H18  1  0.24087374  0.14365446  0.80754156  1  0  0.055206  0  0.945526  0  0  0.075442  0  1.00864  0  0  0.075994  0  1.00914  0  0  0.084413  0.07503  0  1.008261  0
H  H19  1  0.24089200  0.85634031  0.19245791  1  0  0.055201  0  0.945712  0  0  0.075457  0  1.008778  0  0  0.076009  0  1.009281  0  0  0.08444  0.075046  0  1.008398  0
H  H20  1  0.48230825  0.49199076  0.27759409  1  0  0.061317  0  0.952714  0  0  0.081143  0  1.012436  0  0  0.0814  0  1.013673  0  0  0.088615  0.080884  0  1.011703  0
H  H21  1  0.48231310  0.50801505  0.72240707  1  0  0.061351  0  0.952633  0  0  0.081174  0  1.012346  0  0  0.081429  0  1.013585  0  0  0.088663  0.080916  0  1.011609  0
H  H22  1  0.98229931  0.00800879  0.77759219  1  0  0.061269  0  0.952857  0  0  0.08111  0  1.012536  0  0  0.081365  0  1.013777  0  0  0.08865  0.08085  0  1.011803  0
H  H23  1  0.98231817  0.99198444  0.22240744  1  0  0.061311  0  0.952692  0  0  0.081122  0  1.012398  0  0  0.081379  0  1.013634  0  0  0.088637  0.08086  0  1.01167  0
H  H24  1  0.51680415  0.17352700  0.23852853  1  0  0.059192  0  0.941709  0  0  0.07933  0  1.001775  0  0  0.08021  0  1.001865  0  0  0.086733  0.078557  0  1.001881  0
H  H25  1  0.51681182  0.82647465  0.76147227  1  0  0.059224  0  0.941601  0  0  0.079342  0  1.001701  0  0  0.080225  0  1.001783  0  0  0.086749  0.078571  0  1.001805  0
H  H26  1  0.01679267  0.32646788  0.73852626  1  0  0.059143  0  0.941634  0  0  0.079326  0  1.001693  0  0  0.080223  0  1.001754  0  0  0.086733  0.078544  0  1.001812  0
H  H27  1  0.01681669  0.67352140  0.26147266  1  0  0.059208  0  0.94155  0  0  0.079341  0  1.00163  0  0  0.080225  0  1.001709  0  0  0.086741  0.078565  0  1.001743  0
H  H28  1  0.18328267  0.21754182  0.26438152  1  0  0.0537  0  0.951897  0  0  0.073073  0  1.016825  0  0  0.0735  0  1.017529  0  0  0.084749  0.072635  0  1.016505  0
H  H29  1  0.18328979  0.78246128  0.73561828  1  0  0.0537  0  0.952032  0  0  0.073085  0  1.01691  0  0  0.073508  0  1.017617  0  0  0.084742  0.072647  0  1.016588  0
H  H30  1  0.68327572  0.28245620  0.76437995  1  0  0.053594  0  0.952067  0  0  0.073011  0  1.016969  0  0  0.073436  0  1.017678  0  0  0.084744  0.072573  0  1.016643  0
H  H31  1  0.68329288  0.71753848  0.23561946  1  0  0.053683  0  0.952058  0  0  0.073064  0  1.016935  0  0  0.073485  0  1.017643  0  0  0.084738  0.072622  0  1.016615  0
H  H32  1  0.33793537  0.90241767  0.28991974  1  0  0.061202  0  0.949863  0  0  0.081197  0  1.010018  0  0  0.081642  0  1.010778  0  0  0.087983  0.080796  0  1.009616  0
H  H33  1  0.33794430  0.09758678  0.71008245  1  0  0.061188  0  0.949774  0  0  0.081211  0  1.009922  0  0  0.081658  0  1.010678  0  0  0.08795  0.080811  0  1.009518  0
H  H34  1  0.83792849  0.59757876  0.78991718  1  0  0.061227  0  0.949975  0  0  0.08122  0  1.010127  0  0  0.081666  0  1.010886  0  0  0.087975  0.080819  0  1.009723  0
H  H35  1  0.83794313  0.40241312  0.21008120  1  0  0.061205  0  0.949796  0  0  0.081231  0  1.009933  0  0  0.081679  0  1.010688  0  0  0.087974  0.080829  0  1.009534  0
H  H36  1  0.65124546  0.99207667  0.31529447  1  0  0.059481  0  0.93962  0  0  0.080412  0  0.998816  0  0  0.080971  0  0.999482  0  0  0.083941  0.079931  0  0.998409  0
H  H37  1  0.65124759  0.00792772  0.68470605  1  0  0.059452  0  0.939713  0  0  0.080388  0  0.998901  0  0  0.080947  0  0.999568  0  0  0.083927  0.079907  0  0.998494  0
H  H38  1  0.15123830  0.50791881  0.81529258  1  0  0.059496  0  0.939686  0  0  0.080444  0  0.998844  0  0  0.081004  0  0.999508  0  0  0.08396  0.079963  0  0.998435  0
H  H39  1  0.15124607  0.49207320  0.18470529  1  0  0.059447  0  0.939661  0  0  0.080395  0  0.998833  0  0  0.080953  0  0.999498  0  0  0.083935  0.079914  0  0.998423  0
H  H40  1  0.30774196  0.93295369  0.38379203  1  0  0.059526  0  0.994713  0  0  0.075026  0  1.065479  0  0  0.076155  0  1.065158  0  0  0.062937  0.073962  0  1.066156  0
H  H41  1  0.30774257  0.06705631  0.61620976  1  0  0.059572  0  0.994619  0  0  0.075086  0  1.06536  0  0  0.076213  0  1.065042  0  0  0.062966  0.074023  0  1.066036  0
H  H42  1  0.80773300  0.56704838  0.88378943  1  0  0.059524  0  0.99478  0  0  0.075026  0  1.065521  0  0  0.07615  0  1.065201  0  0  0.062932  0.073957  0  1.0662  0
H  H43  1  0.80773930  0.43294627  0.11620854  1  0  0.059542  0  0.994674  0  0  0.075055  0  1.065436  0  0  0.076181  0  1.065118  0  0  0.062952  0.073987  0  1.066116  0
H  H44  1  0.05694454  0.07548664  0.35352234  1  0  0.064245  0  0.946721  0  0  0.082644  0  1.011627  0  0  0.083704  0  1.011307  0  0  0.080194  0.081882  0  1.01182  0
H  H45  1  0.05694548  0.92452480  0.64647964  1  0  0.064342  0  0.946754  0  0  0.082702  0  1.011694  0  0  0.083764  0  1.011375  0  0  0.080238  0.081944  0  1.011882  0
H  H46  1  0.55693544  0.42451557  0.85352018  1  0  0.06432  0  0.946718  0  0  0.082675  0  1.011673  0  0  0.083735  0  1.011353  0  0  0.080249  0.081912  0  1.011859  0
H  H47  1  0.55694234  0.57548329  0.14647838  1  0  0.064256  0  0.946832  0  0  0.082664  0  1.011735  0  0  0.083725  0  1.011415  0  0  0.08022  0.081902  0  1.011921  0
C  C48  1  0.39942807  0.22716133  0.38636905  1  0  0.047226  0  3.581932  0  0  0.045552  0  3.826116  0  0  0.049208  0  3.842721  0  0  -0.083327  0.043128  0  3.814624  0
C  C49  1  0.39943044  0.77284588  0.61363242  1  0  0.047217  0  3.581948  0  0  0.045539  0  3.826198  0  0  0.049194  0  3.842807  0  0  -0.083294  0.043118  0  3.814695  0
C  C50  1  0.89942112  0.27283856  0.88636671  1  0  0.047277  0  3.581898  0  0  0.045673  0  3.825984  0  0  0.049327  0  3.842589  0  0  -0.083241  0.043256  0  3.814472  0
C  C51  1  0.89943144  0.72715608  0.11363172  1  0  0.047124  0  3.582109  0  0  0.045421  0  3.826387  0  0  0.049076  0  3.842995  0  0  -0.083334  0.042999  0  3.814875  0
C  C52  1  0.36897379  0.39913696  0.35276179  1  0  -0.139169  0  3.668353  0  0  -0.177757  0  3.916653  0  0  -0.179713  0  3.930053  0  0  -0.176781  -0.176179  0  3.907372  0
C  C53  1  0.36896860  0.60087026  0.64724004  1  0  -0.139135  0  3.668272  0  0  -0.177743  0  3.916488  0  0  -0.179701  0  3.929886  0  0  -0.176758  -0.176151  0  3.907229  0
C  C54  1  0.86896064  0.10086379  0.85275924  1  0  -0.139079  0  3.668405  0  0  -0.177647  0  3.91673  0  0  -0.179601  0  3.930128  0  0  -0.176756  -0.176081  0  3.907462  0
C  C55  1  0.86897371  0.89912947  0.14724068  1  0  -0.139224  0  3.668362  0  0  -0.17779  0  3.916599  0  0  -0.179745  0  3.929992  0  0  -0.176794  -0.176216  0  3.90737  0
C  C56  1  0.51321017  0.36881329  0.30150609  1  0  -0.098269  0  3.679746  0  0  -0.136484  0  3.938721  0  0  -0.137775  0  3.954127  0  0  -0.166412  -0.135475  0  3.927987  0
C  C57  1  0.51321864  0.63119251  0.69849395  1  0  -0.098307  0  3.679857  0  0  -0.136493  0  3.938823  0  0  -0.137783  0  3.95423  0  0  -0.166457  -0.135487  0  3.928081  0
C  C58  1  0.01319668  0.13118257  0.80150359  1  0  -0.098225  0  3.67973  0  0  -0.136427  0  3.938745  0  0  -0.137718  0  3.954155  0  0  -0.166403  -0.135421  0  3.928009  0
C  C59  1  0.01322134  0.86880947  0.19849533  1  0  -0.098187  0  3.679859  0  0  -0.136359  0  3.938768  0  0  -0.137648  0  3.954174  0  0  -0.166395  -0.135349  0  3.928021  0
C  C60  1  0.40470790  0.19560248  0.27453415  1  0  -0.112127  0  3.704954  0  0  -0.15564  0  3.973392  0  0  -0.156605  0  3.988381  0  0  -0.169614  -0.154768  0  3.962937  0
C  C61  1  0.40470224  0.80439918  0.72546581  1  0  -0.112178  0  3.705026  0  0  -0.155687  0  3.973456  0  0  -0.156649  0  3.98844  0  0  -0.169619  -0.154818  0  3.963001  0
C  C62  1  0.90469048  0.30439426  0.77453184  1  0  -0.111962  0  3.70487  0  0  -0.155577  0  3.973397  0  0  -0.15655  0  3.988395  0  0  -0.16965  -0.154702  0  3.962937  0
C  C63  1  0.90470325  0.69559899  0.22546544  1  0  -0.112181  0  3.704991  0  0  -0.155683  0  3.973405  0  0  -0.156644  0  3.988389  0  0  -0.169621  -0.154808  0  3.962947  0
C  C64  1  0.42884753  0.02481862  0.30857211  1  0  -0.097068  0  3.678556  0  0  -0.13357  0  3.93479  0  0  -0.134775  0  3.949871  0  0  -0.166699  -0.132588  0  3.924259  0
C  C65  1  0.42885152  0.97518720  0.69142900  1  0  -0.097033  0  3.678514  0  0  -0.133547  0  3.934726  0  0  -0.134754  0  3.949811  0  0  -0.166697  -0.132567  0  3.9242  0
C  C66  1  0.92884260  0.47518143  0.80857001  1  0  -0.097204  0  3.678739  0  0  -0.133696  0  3.934958  0  0  -0.134909  0  3.950048  0  0  -0.166718  -0.132706  0  3.92441  0
C  C67  1  0.92884841  0.52481459  0.19142805  1  0  -0.097012  0  3.678477  0  0  -0.133535  0  3.934714  0  0  -0.134742  0  3.949796  0  0  -0.166706  -0.132549  0  3.924178  0
C  C68  1  0.28326787  0.05580329  0.35961228  1  0  -0.144132  0  3.689413  0  0  -0.184671  0  3.937044  0  0  -0.186399  0  3.950946  0  0  -0.181232  -0.18307  0  3.926864  0
C  C69  1  0.28325821  0.94420117  0.64039025  1  0  -0.144299  0  3.689482  0  0  -0.184818  0  3.937085  0  0  -0.186542  0  3.950974  0  0  -0.181312  -0.183211  0  3.926892  0
C  C70  1  0.78325249  0.44419620  0.85960976  1  0  -0.144213  0  3.689627  0  0  -0.184709  0  3.937204  0  0  -0.186422  0  3.951081  0  0  -0.181324  -0.183121  0  3.927067  0
C  C71  1  0.78326136  0.55580124  0.14038896  1  0  -0.144146  0  3.689455  0  0  -0.184736  0  3.937157  0  0  -0.18646  0  3.951053  0  0  -0.181291  -0.183137  0  3.92699  0
S  S72  1  0.20351957  0.26839933  0.44538659  1  0  -0.241622  0  2.436178  0  0  -0.173134  0  2.844559  0  0  -0.197505  0  2.845853  0  0  -0.13367  -0.157551  0  2.844225  0
S  S73  1  0.20352067  0.73161069  0.55461398  1  0  -0.241484  0  2.43611  0  0  -0.172985  0  2.844466  0  0  -0.197356  0  2.845758  0  0  -0.1336  -0.1574  0  2.844124  0
S  S74  1  0.70351682  0.23160429  0.94538610  1  0  -0.241615  0  2.436082  0  0  -0.173111  0  2.844414  0  0  -0.197484  0  2.845709  0  0  -0.133652  -0.157527  0  2.844084  0
S  S75  1  0.70352583  0.76839454  0.05461332  1  0  -0.241494  0  2.436089  0  0  -0.173005  0  2.844486  0  0  -0.19737  0  2.845767  0  0  -0.133628  -0.157416  0  2.844148  0
I  I76  1  0.78984493  0.74984494  0.43600753  1  0  -0.339215  0  1.297737  0  0  -0.293057  0  1.668348  0  0  -0.313745  0  1.648487  0  0  -0.158336  -0.277788  0  1.682469  0
I  I77  1  0.78984851  0.25015803  0.56399271  1  0  -0.33919  0  1.29774  0  0  -0.293037  0  1.668357  0  0  -0.313723  0  1.648487  0  0  -0.158307  -0.277766  0  1.682468  0
I  I78  1  0.28983976  0.75015379  0.93600669  1  0  -0.339208  0  1.297743  0  0  -0.293042  0  1.668359  0  0  -0.313728  0  1.648491  0  0  -0.15832  -0.277766  0  1.682484  0
I  I79  1  0.28983871  0.24984374  0.06399394  1  0  -0.339212  0  1.297748  0  0  -0.293039  0  1.668362  0  0  -0.313727  0  1.648499  0  0  -0.158322  -0.277756  0  1.682471  0
