# generated using pymatgen
data_ZnH12C10NO4
_symmetry_space_group_name_H-M   'P 1'
_cell_length_a   9.80119918
_cell_length_b   10.90694641
_cell_length_c   11.30446063
_cell_angle_alpha   89.80827774
_cell_angle_beta   86.34305245
_cell_angle_gamma   76.55823618
_symmetry_Int_Tables_number   1
_chemical_formula_structural   ZnH12C10NO4
_chemical_formula_sum   'Zn2 H24 C20 N2 O8'
_cell_volume   1172.88089827
_cell_formula_units_Z   2
loop_
 _symmetry_equiv_pos_site_id
 _symmetry_equiv_pos_as_xyz
  1  'x, y, z'
loop_
 _atom_site_type_symbol
 _atom_site_label
 _atom_site_symmetry_multiplicity
 _atom_site_fract_x
 _atom_site_fract_y
 _atom_site_fract_z
 _atom_site_occupancy
 _atom_site_pbe_bader_charge
 _atom_site_pbe_bader_spin_density
 _atom_site_pbe_cm5_charge
 _atom_site_pbe_ddec_charge
 _atom_site_pbe_ddec_spin_density
 _atom_site_pbe_ddec_sum_bond_order
 _atom_site_pbe_magmom
Zn  Zn0  1  0.35893918  0.52663429  0.48167613  1  1.27924  0  0.658684  0.827912  0  2.444032  0
Zn  Zn1  1  0.63820313  0.46362538  0.51520213  1  1.282738  0  0.659151  0.836849  0  2.455912  0
H  H2  1  0.69949669  0.07219630  0.57981695  1  0.018642  0  0.087166  0.088901  0  1.002868  0
H  H3  1  0.39468682  0.89493245  0.67464627  1  0.026134  0  0.09155  0.09293  0  0.97744  0
H  H4  1  0.47502998  0.08031658  0.68758705  1  0.032295  0  0.093825  0.062236  0  0.951915  0
H  H5  1  0.61784668  0.47836910  0.89817991  1  0.077339  0  0.105616  0.105467  0  0.984803  0
H  H6  1  0.37489696  0.51627675  0.09837147  1  0.102849  0  0.106084  0.10559  0  0.983939  0
H  H7  1  0.29705010  0.51702554  0.88873790  1  0.07824  0  0.103034  0.119366  0  0.991735  0
H  H8  1  0.69739437  0.45461182  0.10706803  1  0.081509  0  0.104088  0.120797  0  0.991193  0
H  H9  1  0.12280371  0.42169352  0.57236917  1  0.139275  0  0.139404  0.104898  0  0.981861  0
H  H10  1  0.86990613  0.58009969  0.43370522  1  0.160835  0  0.140811  0.109144  0  0.963795  0
H  H11  1  0.09575315  0.62634419  0.40081546  1  0.429353  0  0.324759  0.292547  0  0.89494  0
H  H12  1  0.57238263  0.90071356  0.31865821  1  -0.00055  0  0.09098  0.057453  0  0.958354  0
H  H13  1  0.90193775  0.36831042  0.59735977  1  0.437808  0  0.32452  0.293827  0  0.896166  0
H  H14  1  0.48137248  0.11852695  0.30955135  1  0.035172  0  0.091658  0.092806  0  0.9785  0
H  H15  1  0.32400479  0.11419617  0.39171478  1  0.017252  0  0.08788  0.088155  0  1.000326  0
H  H16  1  0.28559256  0.95020785  0.55887220  1  0.036051  0  0.088916  0.090139  0  0.999048  0
H  H17  1  0.66465857  0.86960328  0.62186425  1  0.030903  0  0.086697  0.085625  0  0.978572  0
H  H18  1  0.73048775  0.83303447  0.47433930  1  -0.00555  0  0.080806  0.073511  0  1.019638  0
H  H19  1  0.71040206  0.04608263  0.42569921  1  0.015584  0  0.086184  0.08576  0  0.979928  0
H  H20  1  0.25881699  0.90765499  0.36416838  1  0.013013  0  0.080599  0.109638  0  1.019826  0
H  H21  1  0.34047742  0.94075651  0.22667587  1  0.010491  0  0.083044  0.114236  0  1.002861  0
H  H22  1  0.38743732  0.78736417  0.28805091  1  0.079301  0  0.082922  0.125099  0  1.023567  0
H  H23  1  0.20178952  0.18306273  0.56595723  1  -0.000722  0  0.077641  0.099949  0  1.037044  0
H  H24  1  0.21262235  0.13304864  0.71556400  1  0.010556  0  0.083212  0.115712  0  1.002744  0
H  H25  1  0.27983353  0.26519200  0.66927955  1  0.021183  0  0.081375  0.118443  0  1.034579  0
C  C26  1  0.55642675  0.48419589  0.26865644  1  1.537269  0  0.202484  0.62967  0  4.190265  0
C  C27  1  0.49826527  0.11532189  0.50109551  1  0.039059  0  -0.015228  -0.007194  0  3.762911  0
C  C28  1  0.41014412  0.08107947  0.61123726  1  -0.000208  0  -0.08066  0.055231  0  3.78321  0
C  C29  1  0.64913302  0.03514416  0.50849007  1  0.005775  0  -0.168499  -0.188596  0  3.922001  0
C  C30  1  0.58665169  0.47779290  0.13840547  1  -0.039406  0  -0.092957  -0.227735  0  3.887882  0
C  C31  1  0.48382000  0.49613842  0.06160107  1  -0.066547  0  -0.078631  -0.033909  0  4.028478  0
C  C32  1  0.40719263  0.50509178  0.85777244  1  -0.089797  0  -0.09373  -0.227866  0  3.888051  0
C  C33  1  0.50934137  0.49177544  0.93487619  1  0.024373  0  -0.077413  -0.032139  0  4.027214  0
C  C34  1  0.92249088  0.50612025  0.49255577  1  0.67575  0  0.119025  0.164802  0  3.876561  0
C  C35  1  0.07192214  0.49341970  0.51076354  1  0.705387  0  0.119824  0.168098  0  3.874906  0
C  C36  1  0.50301632  0.73355791  0.49888560  1  1.545423  0  0.220457  0.596257  0  4.088141  0
C  C37  1  0.43785928  0.50335520  0.72763255  1  1.550635  0  0.202805  0.631294  0  4.189011  0
C  C38  1  0.49626795  0.25577712  0.49976738  1  1.540681  0  0.219658  0.595903  0  4.08454  0
C  C39  1  0.47304295  0.93091965  0.37362038  1  0.034355  0  -0.081625  0.050662  0  3.793612  0
C  C40  1  0.43853291  0.07630921  0.38779028  1  -0.031333  0  -0.160286  -0.211675  0  3.86272  0
C  C41  1  0.39042364  0.94613483  0.59044526  1  -0.037928  0  -0.16064  -0.212532  0  3.861504  0
C  C42  1  0.64656744  0.89581354  0.52908283  1  -0.01869  0  -0.167563  -0.182285  0  3.929524  0
C  C43  1  0.50336721  0.87338760  0.49894308  1  0.033314  0  -0.0155  -0.007268  0  3.768367  0
C  C44  1  0.35878635  0.88853556  0.30981174  1  -0.097749  0  -0.251073  -0.397313  0  3.96486  0
C  C45  1  0.26817365  0.17175838  0.64208080  1  -0.040413  0  -0.25186  -0.40302  0  3.979018  0
N  N46  1  0.84878967  0.43534410  0.54223008  1  -1.162104  0  -0.421175  -0.357404  0  3.220113  0
N  N47  1  0.14739754  0.56075106  0.45790813  1  -1.165034  0  -0.422378  -0.357085  0  3.223154  0
O  O48  1  0.43012954  0.53241146  0.30778805  1  -1.17001  0  -0.324363  -0.561519  0  2.311736  0
O  O49  1  0.66018246  0.44095372  0.33176641  1  -1.163725  0  -0.329778  -0.561504  0  2.252412  0
O  O50  1  0.38406331  0.70510288  0.51231557  1  -1.165267  0  -0.316  -0.542414  0  2.322486  0
O  O51  1  0.62079955  0.65376137  0.48437135  1  -1.177712  0  -0.320883  -0.564253  0  2.345563  0
O  O52  1  0.33513189  0.50126153  0.66368002  1  -1.165786  0  -0.326861  -0.567497  0  2.278106  0
O  O53  1  0.56263492  0.50456186  0.68879349  1  -1.169385  0  -0.328093  -0.563147  0  2.292306  0
O  O54  1  0.38825126  0.33136102  0.46275161  1  -1.175648  0  -0.318949  -0.555505  0  2.31456  0
O  O55  1  0.60319649  0.28865038  0.53619973  1  -1.164222  0  -0.320715  -0.547047  0  2.333579  0
