# generated using pymatgen
data_NiH20C16(SN3)2
_symmetry_space_group_name_H-M   'P 1'
_cell_length_a   8.57538689
_cell_length_b   10.85209321
_cell_length_c   16.42720000
_cell_angle_alpha   71.89154337
_cell_angle_beta   75.84429569
_cell_angle_gamma   71.35862809
_symmetry_Int_Tables_number   1
_chemical_formula_structural   NiH20C16(SN3)2
_chemical_formula_sum   'Ni3 H60 C48 S6 N18'
_cell_volume   1358.77037399
_cell_formula_units_Z   3
loop_
 _symmetry_equiv_pos_site_id
 _symmetry_equiv_pos_as_xyz
  1  'x, y, z'
loop_
 _atom_site_type_symbol
 _atom_site_label
 _atom_site_symmetry_multiplicity
 _atom_site_fract_x
 _atom_site_fract_y
 _atom_site_fract_z
 _atom_site_occupancy
 _atom_site_hle17_ddec_charge
 _atom_site_hle17_ddec_spin_density
 _atom_site_hle17_ddec_sum_bond_order
 _atom_site_hle17_magmom
 _atom_site_hse06_10hf_ddec_charge
 _atom_site_hse06_10hf_ddec_spin_density
 _atom_site_hse06_10hf_ddec_sum_bond_order
 _atom_site_hse06_10hf_magmom
 _atom_site_hse06_ddec_charge
 _atom_site_hse06_ddec_spin_density
 _atom_site_hse06_ddec_sum_bond_order
 _atom_site_hse06_magmom
 _atom_site_pbe_bader_charge
 _atom_site_pbe_bader_spin_density
 _atom_site_pbe_cm5_charge
 _atom_site_pbe_ddec_charge
 _atom_site_pbe_ddec_spin_density
 _atom_site_pbe_ddec_sum_bond_order
 _atom_site_pbe_magmom
Ni  Ni0  1  0.99980264  0.50004657  0.49999774  1  0.625718  -1.71165  2.430292  -1.377  0.653592  -1.765104  2.821536  -1.506  0.752918  -1.859331  2.741836  -1.628  1.024802  -1.410834  0.600905  0.589536  -1.675593  2.873679  -1.399
Ni  Ni1  1  0.67537291  0.49851757  0.83521459  1  0.621789  1.773114  2.439776  1.363  0.648673  1.801981  2.834033  1.494  0.747981  1.919222  2.754553  1.622  1.028275  1.382179  0.59744  0.584149  1.678582  2.886542  1.371
Ni  Ni2  1  0.32469388  0.50156653  0.16474379  1  0.622037  -1.70264  2.439895  -1.37  0.649514  -1.75803  2.833701  -1.5  0.748787  -1.854919  2.754317  -1.624  1.029472  -1.39951  0.598977  0.585756  -1.661844  2.885925  -1.387
H  H3  1  0.76927888  0.71326871  0.59163043  1  0.076073  -0.000648  0.960644  -0.001  0.084611  -0.000619  1.025005  -0.001  0.085476  -0.000448  1.024007  -0.001  0.098665  -0.002058  0.110505  0.083911  -0.000784  1.025854  -0.001
H  H4  1  0.23079267  0.28691088  0.40848671  1  0.077012  -0.000379  0.959698  -0.001  0.085889  -0.000442  1.023699  -0.001  0.086836  -0.000292  1.022624  -0.001  0.100625  -0.001932  0.11105  0.085152  -0.000589  1.024577  -0.001
H  H5  1  0.68025044  0.95794551  0.56749550  1  0.104833  -0.000336  0.986885  0.0  0.111932  -0.000334  1.0555  0.0  0.114984  -0.000239  1.055552  0.0  0.078733  -0.00095  0.099284  0.109871  -0.000432  1.055401  0.0
H  H6  1  0.31991914  0.04219186  0.43254231  1  0.104666  -0.000346  0.987166  0.0  0.112093  -0.000327  1.055444  0.0  0.115138  -0.000237  1.055539  0.0  0.052992  -0.000954  0.099404  0.110036  -0.000419  1.055324  0.0
H  H7  1  0.03823805  0.97964510  0.32774991  1  0.102665  -0.000365  0.979835  0.0  0.110443  -0.000351  1.048745  0.0  0.113741  -0.000254  1.048168  0.0  0.072432  -0.000995  0.099038  0.108161  -0.000449  1.0492  0.0
H  H8  1  0.96200863  0.02027915  0.67229990  1  0.10208  -0.000335  0.980285  0.0  0.110085  -0.000337  1.048894  0.0  0.113404  -0.000239  1.048312  0.0  0.07052  -0.000959  0.098772  0.107795  -0.000436  1.049371  0.0
H  H9  1  0.10487185  0.73287836  0.36256255  1  0.066263  -0.000512  0.978357  -0.001  0.072678  -0.000551  1.050726  -0.001  0.073932  -0.000383  1.048666  -0.001  0.086035  -0.002068  0.10686  0.071663  -0.000717  1.05241  -0.001
H  H10  1  0.89525514  0.26696346  0.63757485  1  0.065711  -0.000581  0.978567  -0.001  0.071967  -0.000551  1.051196  -0.001  0.073285  -0.000387  1.049035  -0.001  0.074908  -0.002035  0.106431  0.070881  -0.000706  1.052984  -0.001
H  H11  1  0.54913976  0.17553687  0.48511178  1  0.081745  0.00016  0.954193  0.0  0.098763  0.000102  1.026234  0.0  0.098864  8.2e-05  1.026835  0.0  0.051472  0.000188  0.092022  0.098662  0.00011  1.02576  0.0
H  H12  1  0.45105265  0.82441352  0.51491889  1  0.081465  0.000152  0.954143  0.0  0.098439  9.8e-05  1.026272  0.0  0.09856  8.1e-05  1.026838  0.0  0.05007  0.00019  0.091874  0.098333  0.000108  1.025812  0.0
H  H13  1  0.64677608  0.30753685  0.45993413  1  0.100883  -0.000576  0.969562  0.0  0.120163  -0.000587  1.033927  0.0  0.12151  -0.000407  1.033278  0.0  0.088856  -0.000973  0.097779  0.119073  -0.000745  1.034516  0.0
H  H14  1  0.35326107  0.69247989  0.54000716  1  0.101109  -0.000482  0.968673  0.0  0.120515  -0.000535  1.032721  0.0  0.121853  -0.000367  1.03208  0.0  0.088664  -0.00084  0.098064  0.119452  -0.000674  1.033277  0.0
H  H15  1  0.69226004  0.16953546  0.55041409  1  0.090821  9.2e-05  0.946404  0.0  0.109918  4.1e-05  1.012551  0.0  0.110218  4e-05  1.013202  0.0  0.044769  7.3e-05  0.096299  0.109725  4.6e-05  1.011815  0.0
H  H16  1  0.30793326  0.83054059  0.44957606  1  0.090709  0.00011  0.94669  0.0  0.109865  6.2e-05  1.012802  0.0  0.110173  5.7e-05  1.01345  0.0  0.04456  9.2e-05  0.096341  0.109649  6.9e-05  1.012085  0.0
H  H17  1  0.01721085  0.18227213  0.34339204  1  0.091131  0.000123  0.955375  0.0  0.107859  8.8e-05  1.026782  0.0  0.107858  7.3e-05  1.028022  0.0  0.021505  0.000112  0.096616  0.10774  0.0001  1.025975  0.0
H  H18  1  0.98289176  0.81783106  0.65658037  1  0.091147  8e-06  0.95528  0.0  0.10777  -2.2e-05  1.026911  0.0  0.107764  -1.4e-05  1.028132  0.0  0.021349  4.7e-05  0.096521  0.107641  -2.9e-05  1.026138  0.0
H  H19  1  0.83788762  0.31773925  0.35153600  1  0.107354  -0.000151  0.955359  0.0  0.131207  -0.000314  1.009994  0.0  0.131903  -0.000223  1.009941  0.0  0.092012  -0.000601  0.105608  0.130556  -0.000384  1.010318  0.0
H  H20  1  0.16206032  0.68227447  0.64835582  1  0.107757  0.000356  0.954786  0.0  0.131537  0.000414  1.009374  0.0  0.132219  0.000323  1.009347  0.0  0.091952  0.000629  0.105868  0.130934  0.000482  1.009625  0.0
H  H21  1  0.84821208  0.20607775  0.28969061  1  0.077716  0.000107  0.958811  0.0  0.097091  4.1e-05  1.030683  0.0  0.097461  4.8e-05  1.030403  0.0  0.029248  0.000113  0.092092  0.096817  2.2e-05  1.030749  0.0
H  H22  1  0.15195470  0.79377112  0.71030209  1  0.077672  0.000147  0.958788  0.0  0.097045  0.000107  1.030621  0.0  0.097421  8e-05  1.030317  0.0  0.029131  0.000226  0.092037  0.096768  0.000121  1.030703  0.0
H  H23  1  0.93260984  0.26607079  0.77225037  1  0.064317  0.000598  0.982503  0.001  0.070623  0.000557  1.055548  0.001  0.072012  0.000397  1.053218  0.001  0.096366  0.001991  0.106567  0.06956  0.000717  1.057418  0.001
H  H24  1  0.06736102  0.73377405  0.22763729  1  0.065531  -0.000471  0.981775  -0.001  0.071713  -0.000515  1.055012  -0.001  0.073098  -0.000356  1.052717  -0.001  0.086406  -0.001994  0.10694  0.070645  -0.000673  1.056842  -0.001
H  H25  1  0.03114718  0.01960663  0.81850987  1  0.103354  0.000331  0.977288  0.0  0.111417  0.000322  1.045873  0.0  0.114818  0.000231  1.045224  0.0  0.067535  0.000943  0.09997  0.109083  0.000425  1.046384  0.0
H  H26  1  0.96875512  0.98031159  0.18147252  1  0.103362  -0.000341  0.977135  0.0  0.111366  -0.00033  1.045826  0.0  0.114772  -0.000238  1.045173  0.0  0.064422  -0.000984  0.099877  0.109025  -0.000439  1.046345  0.0
H  H27  1  0.65092552  0.03852969  0.04839487  1  0.105296  0.000342  0.980673  0.0  0.113057  0.000339  1.047901  0.0  0.116203  0.000243  1.047866  0.0  0.079257  0.000937  0.099867  0.110897  0.000435  1.04803  0.0
H  H28  1  0.34897096  0.96160064  0.95156784  1  0.105249  -0.000329  0.980858  0.0  0.112877  -0.000331  1.0482  0.0  0.116023  -0.000236  1.048159  0.0  0.079154  -0.000945  0.099884  0.110714  -0.000429  1.048331  0.0
H  H29  1  0.57671737  0.28322458  0.99245770  1  0.077097  0.000661  0.960259  0.001  0.085747  0.000629  1.02438  0.001  0.086788  0.00046  1.023179  0.001  0.087932  0.001999  0.111406  0.08495  0.000794  1.025367  0.001
H  H30  1  0.42300761  0.71687861  0.00735716  1  0.076818  -0.000625  0.960036  -0.001  0.085722  -0.000608  1.023844  -0.001  0.08668  -0.000442  1.022732  -0.001  0.085852  -0.002018  0.111516  0.084924  -0.000775  1.024828  -0.001
H  H31  1  0.00145392  0.80439674  0.84882701  1  0.078445  -7.1e-05  0.959075  0.0  0.097457  -2.5e-05  1.031432  0.0  0.097763  -3.1e-05  1.031283  0.0  0.018207  -7.3e-05  0.093203  0.097265  -2.3e-05  1.031341  0.0
H  H32  1  0.99843900  0.19557577  0.15121483  1  0.078399  0.000101  0.959242  0.0  0.097462  4.7e-05  1.03153  0.0  0.097759  5.2e-05  1.031392  0.0  0.01776  0.0001  0.09319  0.097263  4.4e-05  1.031449  0.0
H  H33  1  0.04339220  0.67995835  0.94655944  1  0.109101  0.0003  0.949627  0.0  0.131749  0.000387  1.005667  0.0  0.132496  0.000298  1.005503  0.0  0.085487  0.000611  0.1069  0.131091  0.000456  1.006012  0.0
H  H34  1  0.95648974  0.32004030  0.05349244  1  0.108911  -0.000279  0.949228  0.0  0.13155  -0.00037  1.005292  0.0  0.132309  -0.000283  1.005101  0.0  0.085018  -0.00061  0.106752  0.130888  -0.000443  1.005645  0.0
H  H35  1  0.14763668  0.80907322  0.90808756  1  0.090348  -0.000127  0.950558  0.0  0.107962  -7.9e-05  1.020421  0.0  0.10791  -6.9e-05  1.021605  0.0  0.064053  -0.000128  0.095677  0.10797  -8.3e-05  1.019563  0.0
H  H36  1  0.85227220  0.19089829  0.09194088  1  0.089947  0.00013  0.950488  0.0  0.107505  8.2e-05  1.020428  0.0  0.107452  7.2e-05  1.021607  0.0  0.06377  0.000127  0.095399  0.107503  8.6e-05  1.019597  0.0
H  H37  1  0.81271180  0.82696487  0.10174870  1  0.090581  -4.6e-05  0.944574  0.0  0.110393  -1.4e-05  1.009725  0.0  0.110722  -1.4e-05  1.010246  0.0  0.051733  -0.000113  0.095948  0.110116  -1.2e-05  1.009398  0.0
H  H38  1  0.18717968  0.17315139  0.89826685  1  0.090781  5.8e-05  0.944031  0.0  0.110515  2.9e-05  1.009261  0.0  0.110853  2.7e-05  1.009765  0.0  0.051553  0.000124  0.095897  0.110201  2.7e-05  1.008981  0.0
H  H39  1  0.85758896  0.68896549  0.05652968  1  0.104003  -0.00034  0.963  0.0  0.124626  -0.000415  1.024426  0.0  0.125856  -0.000291  1.023857  0.0  0.069292  -0.000649  0.100394  0.123638  -0.000511  1.025009  0.0
H  H40  1  0.14238462  0.31108743  0.94356022  1  0.103801  0.000456  0.96289  0.0  0.12434  0.000501  1.024519  0.0  0.125563  0.000364  1.023947  0.0  0.067924  0.000754  0.100401  0.123367  0.000602  1.025075  0.0
H  H41  1  0.67108949  0.81916002  0.04048464  1  0.081502  -3.8e-05  0.955147  0.0  0.098423  -2e-06  1.027827  0.0  0.098556  -8e-06  1.028237  0.0  0.040975  -5.9e-05  0.092056  0.098145  3e-06  1.027741  0.0
H  H42  1  0.32884360  0.18084767  0.95955641  1  0.081389  3.6e-05  0.955096  0.0  0.098373  7e-06  1.027734  0.0  0.098503  1.2e-05  1.028151  0.0  0.041567  6.7e-05  0.092051  0.098101  2e-06  1.027639  0.0
H  H43  1  0.43481860  0.71700025  0.72286315  1  0.075633  0.000655  0.956574  0.001  0.085272  0.000661  1.019494  0.001  0.087373  0.000479  1.016784  0.001  0.119283  0.002117  0.109397  0.083823  0.000834  1.021462  0.001
H  H44  1  0.56505135  0.28290290  0.27727622  1  0.075559  -0.000621  0.955891  -0.001  0.085339  -0.000639  1.018752  -0.001  0.087449  -0.000454  1.015993  -0.001  0.117936  -0.002157  0.109266  0.083871  -0.000819  1.020721  -0.001
H  H45  1  0.33772431  0.96414798  0.67827623  1  0.101785  0.000371  1.000926  0.0  0.107964  0.000355  1.07132  0.0  0.111035  0.000259  1.07162  0.0  0.077807  0.000967  0.09788  0.105822  0.000447  1.071385  0.0
H  H46  1  0.66221710  0.03579035  0.32180600  1  0.102126  -0.000325  1.000408  0.0  0.108229  -0.000317  1.070888  0.0  0.111327  -0.000227  1.071126  0.0  0.078174  -0.000921  0.097839  0.106075  -0.000401  1.070981  0.0
H  H47  1  0.68771215  0.97362961  0.82697665  1  0.100697  0.000345  1.005865  0.0  0.10659  0.000329  1.077314  0.0  0.109557  0.000238  1.07779  0.0  0.065948  0.000948  0.097485  0.104719  0.00042  1.07659  0.001
H  H48  1  0.31234994  0.02631475  0.17301832  1  0.100608  -0.000331  1.005866  0.0  0.106494  -0.000325  1.077305  0.0  0.109468  -0.000233  1.077768  0.0  0.06596  -0.000963  0.097427  0.104606  -0.000418  1.076601  -0.001
H  H49  1  0.76206550  0.72588073  0.86653469  1  0.076388  0.000628  0.959936  0.001  0.085691  0.000657  1.023687  0.001  0.087801  0.000473  1.020912  0.001  0.095063  0.00215  0.109102  0.084173  0.000841  1.025816  0.001
H  H50  1  0.23803047  0.27407770  0.13346464  1  0.076392  -0.000595  0.960302  -0.001  0.085734  -0.000647  1.024  -0.001  0.087826  -0.000453  1.021274  -0.001  0.081952  -0.002181  0.109038  0.084212  -0.00084  1.026113  -0.001
H  H51  1  0.34888508  0.16849401  0.61311505  1  0.087592  1e-05  0.963852  0.0  0.106246  2.7e-05  1.033533  0.0  0.106128  2e-05  1.035099  0.0  0.036197  -2.2e-05  0.097887  0.106182  3.3e-05  1.032603  0.0
H  H52  1  0.65121126  0.83136792  0.38687908  1  0.08784  0.000109  0.963819  0.0  0.106362  6.6e-05  1.033555  0.0  0.106251  5.9e-05  1.035112  0.0  0.035958  9.9e-05  0.098015  0.106294  7.2e-05  1.032639  0.0
H  H53  1  0.32130453  0.31078385  0.65128382  1  0.110118  8.7e-05  0.947272  0.0  0.133127  5.7e-05  1.002743  0.0  0.134082  5.5e-05  1.002247  0.0  0.058935  6.1e-05  0.106973  0.13237  5.7e-05  1.003211  0.0
H  H54  1  0.67866505  0.68910523  0.34869536  1  0.109457  -5.1e-05  0.947358  0.0  0.132501  -0.000146  1.00305  0.0  0.133474  -9.3e-05  1.002536  0.0  0.057329  -0.000305  0.106831  0.131716  -0.000202  1.003529  0.0
H  H55  1  0.20441902  0.19261628  0.70877629  1  0.08196  -8.8e-05  0.954617  0.0  0.10271  -3.5e-05  1.022629  0.0  0.102109  -3.1e-05  1.023688  0.0  0.050519  -0.000112  0.09356  0.103002  -3.9e-05  1.021984  0.0
H  H56  1  0.79568197  0.80720946  0.29121738  1  0.082275  0.000151  0.954359  0.0  0.102952  7.6e-05  1.022382  0.0  0.102345  6.9e-05  1.023458  0.0  0.049869  0.00016  0.093593  0.103272  8.4e-05  1.021705  0.0
H  H57  1  0.51471022  0.18386246  0.82599717  1  0.087291  -0.000125  0.955781  0.0  0.106545  -7.4e-05  1.025164  0.0  0.106517  -6.5e-05  1.026356  0.0  0.021244  -0.000155  0.095877  0.106451  -8.7e-05  1.024494  0.0
H  H58  1  0.48533230  0.81608291  0.17398305  1  0.087439  0.000134  0.955737  0.0  0.106578  7.5e-05  1.025194  0.0  0.106566  6.6e-05  1.026367  0.0  0.021335  0.000132  0.095879  0.106479  8.9e-05  1.024536  0.0
H  H59  1  0.47690909  0.31530551  0.73115975  1  0.110704  -4.6e-05  0.945498  0.0  0.1341  -4.5e-05  1.000509  0.0  0.135066  -4.3e-05  0.999944  0.0  0.080513  -3.1e-05  0.108373  0.133326  -3.7e-05  1.001148  0.0
H  H60  1  0.52310019  0.68464588  0.26883443  1  0.110259  -5.7e-05  0.946083  0.0  0.13364  -0.000177  1.001269  0.0  0.134601  -0.000116  1.000687  0.0  0.079474  -0.000369  0.108178  0.132842  -0.000243  1.001929  0.0
H  H61  1  0.66854822  0.18876512  0.73096562  1  0.084152  -0.000106  0.955116  0.0  0.104132  -6.9e-05  1.024044  0.0  0.103546  -6.2e-05  1.025273  0.0  0.012666  -0.000164  0.094843  0.104471  -7.3e-05  1.023242  0.0
H  H62  1  0.33147709  0.81120337  0.26901449  1  0.084408  0.000134  0.95501  0.0  0.104342  6.6e-05  1.023887  0.0  0.103754  6.2e-05  1.025118  0.0  0.01291  0.000115  0.094977  0.104685  6.6e-05  1.023077  0.0
C  C63  1  0.00748961  0.49303286  0.69086681  1  0.266384  -0.003138  3.982605  -0.013  0.268872  0.000663  4.292271  -0.008  0.298571  0.000917  4.305209  -0.007  0.543041  0.006872  0.150496  0.247973  0.000477  4.284334  -0.01
C  C64  1  0.99217007  0.50695775  0.30906169  1  0.265325  0.028477  3.982973  0.033  0.268481  0.002902  4.293515  0.005  0.29827  0.004327  4.306364  0.007  0.542871  -0.000951  0.150347  0.247638  0.00182  4.285555  0.004
C  C65  1  0.82441011  0.77612273  0.53320980  1  0.133192  0.005477  3.754824  0.007  0.106167  0.000909  4.010669  0.002  0.119252  0.001507  4.028193  0.003  0.463254  0.0016  0.03605  0.097449  0.000477  3.998744  0.001
C  C66  1  0.17578860  0.22398448  0.46690353  1  0.132489  0.005562  3.752149  0.007  0.105195  0.000975  4.007931  0.002  0.118187  0.00156  4.02547  0.003  0.482056  0.001696  0.035539  0.096531  0.000554  3.996007  0.001
C  C67  1  0.77517684  0.91439755  0.51938141  1  -0.251357  -0.006027  3.730873  -0.007  -0.267107  -0.002522  3.989234  -0.003  -0.277863  -0.002278  4.005844  -0.003  -0.050191  -0.004783  -0.112963  -0.259988  -0.002897  3.977845  -0.004
C  C68  1  0.22499850  0.08569659  0.48067671  1  -0.250656  -0.006068  3.730081  -0.007  -0.266497  -0.002545  3.988325  -0.003  -0.277294  -0.002309  4.004998  -0.003  -0.042991  -0.004806  -0.112697  -0.259367  -0.002907  3.976897  -0.004
C  C69  1  0.84966689  0.99600373  0.44397857  1  0.247526  0.004503  3.81668  0.005  0.229207  0.001422  4.060132  0.002  0.246645  0.00145  4.075683  0.002  0.473316  0.002671  0.11545  0.217674  0.001602  4.049035  0.002
C  C70  1  0.15054141  0.00398989  0.55604667  1  0.247321  0.004538  3.816243  0.005  0.228762  0.001462  4.060257  0.002  0.246238  0.001479  4.075816  0.002  0.473261  0.002751  0.11534  0.217228  0.001643  4.049117  0.002
C  C71  1  0.97332100  0.92613801  0.38695505  1  -0.257169  -0.005866  3.736751  -0.007  -0.271964  -0.002443  3.994128  -0.003  -0.283152  -0.002215  4.011269  -0.003  -0.029562  -0.004693  -0.113908  -0.26477  -0.002838  3.982642  -0.004
C  C72  1  0.02694019  0.07380434  0.61311049  1  -0.256373  -0.00585  3.737328  -0.007  -0.271246  -0.002406  3.994685  -0.003  -0.282453  -0.002184  4.011852  -0.003  -0.029692  -0.004611  -0.113311  -0.26406  -0.002795  3.983188  -0.004
C  C73  1  0.01158628  0.78737966  0.40629508  1  0.131653  0.005596  3.768067  0.007  0.104707  0.000942  4.024251  0.002  0.11768  0.001536  4.042297  0.003  0.423537  0.00162  0.034928  0.096152  0.000525  4.012057  0.001
C  C74  1  0.98858405  0.21256470  0.59379565  1  0.131286  0.005667  3.76881  0.007  0.104207  0.000999  4.025179  0.002  0.117158  0.001583  4.043224  0.003  0.434629  0.001703  0.034698  0.095683  0.000581  4.012997  0.002
C  C75  1  0.66599903  0.19879060  0.48371228  1  -0.168801  -0.000317  3.683443  -0.001  -0.268387  -0.000313  3.928382  -0.001  -0.264471  -0.000205  3.938454  0.0  0.270136  -0.000752  -0.139905  -0.270613  -0.000421  3.920958  -0.001
C  C76  1  0.33417043  0.80121508  0.51628257  1  -0.168264  -0.000278  3.683072  -0.001  -0.267771  -0.00027  3.927953  0.0  -0.263831  -0.000171  3.938034  0.0  0.271918  -0.000621  -0.139703  -0.270009  -0.000366  3.920532  -0.001
C  C77  1  0.88075481  0.21271851  0.34885667  1  -0.172937  -0.000189  3.691184  0.0  -0.275533  -0.000241  3.937525  0.0  -0.271328  -0.000165  3.948065  0.0  0.299464  -0.000448  -0.141555  -0.278021  -0.000307  3.930092  0.0
C  C78  1  0.11934616  0.78725400  0.65112208  1  -0.172952  9.9e-05  3.690001  0.0  -0.27542  0.000295  3.936473  0.0  -0.271159  0.000214  3.946991  0.0  0.300588  0.00029  -0.141494  -0.277945  0.000353  3.929041  0.0
C  C79  1  0.66947105  0.49701168  0.64509007  1  0.260197  0.003138  3.977992  0.012  0.262795  -0.000708  4.286619  0.008  0.292455  -0.000948  4.299029  0.006  0.50672  -0.007521  0.14912  0.241959  -0.000651  4.279175  0.009
C  C80  1  0.33159435  0.50321415  0.35467823  1  0.256696  0.029148  3.981857  0.034  0.260124  0.003153  4.291621  0.006  0.289915  0.004564  4.303916  0.007  0.513167  -0.000554  0.148444  0.239334  0.002086  4.284183  0.005
C  C81  1  0.66598949  0.50510907  0.02517121  1  0.26523  0.00645  3.978043  0.016  0.267968  0.001256  4.289007  0.011  0.29803  0.000835  4.301951  0.009  0.508295  -0.004682  0.149463  0.246661  0.001541  4.28089  0.012
C  C82  1  0.33311670  0.49484936  0.97498917  1  0.265262  -0.006228  3.979173  -0.016  0.268111  -0.001151  4.290409  -0.011  0.298246  -0.000712  4.303313  -0.009  0.510589  0.004038  0.148717  0.246738  -0.001606  4.282315  -0.012
C  C83  1  0.87372715  0.21115432  0.83322371  1  0.129771  -0.005246  3.767483  -0.007  0.102369  -0.000907  4.025558  -0.002  0.115259  -0.00147  4.043719  -0.003  0.472007  -0.001731  0.033905  0.093747  -0.000484  4.013127  -0.001
C  C84  1  0.12609922  0.78879004  0.16666013  1  0.128475  0.005671  3.767485  0.007  0.101294  0.001014  4.025215  0.002  0.114167  0.001594  4.043343  0.003  0.483835  0.001764  0.033714  0.092729  0.000577  4.012848  0.001
C  C85  1  0.92822417  0.07242914  0.85941209  1  -0.255725  0.006131  3.734053  0.007  -0.270868  0.002531  3.990691  0.003  -0.282157  0.002295  4.007815  0.003  -0.025649  0.004622  -0.112875  -0.263235  0.002835  3.978963  0.003
C  C86  1  0.07162001  0.92752326  0.14053174  1  -0.255495  -0.00587  3.733816  -0.007  -0.270585  -0.00247  3.990344  -0.003  -0.28188  -0.002228  4.007463  -0.003  -0.021585  -0.004649  -0.112854  -0.262958  -0.002794  3.978607  -0.003
C  C87  1  0.84903618  0.00167979  0.93848398  1  0.242369  -0.004364  3.819236  -0.005  0.225325  -0.001437  4.06068  -0.002  0.2428  -0.001424  4.076558  -0.002  0.451381  -0.002627  0.114239  0.213693  -0.001538  4.049734  -0.002
C  C88  1  0.15083404  0.99832890  0.06149976  1  0.242332  0.004591  3.818624  0.005  0.225312  0.001498  4.060076  0.002  0.242837  0.001491  4.075937  0.002  0.450193  0.002659  0.114118  0.213689  0.001591  4.049114  0.002
C  C89  1  0.71832250  0.08263959  0.98654278  1  -0.247741  0.006244  3.728162  0.007  -0.263337  0.002545  3.984909  0.003  -0.274297  0.002335  4.001729  0.003  -0.062887  0.004762  -0.111421  -0.256429  0.002909  3.973853  0.004
C  C90  1  0.28154158  0.91744651  0.01338872  1  -0.247547  -0.005957  3.728083  -0.007  -0.26307  -0.002459  3.984868  -0.003  -0.274018  -0.002242  4.001627  -0.003  -0.062105  -0.004735  -0.111097  -0.25616  -0.002828  3.973798  -0.004
C  C91  1  0.67535002  0.22096266  0.95511293  1  0.131838  -0.005084  3.751942  -0.007  0.10502  -0.000794  4.007775  -0.002  0.118154  -0.001355  4.025039  -0.003  0.518475  -0.001671  0.035414  0.096254  -0.000384  3.996298  -0.001
C  C92  1  0.32441250  0.77912143  0.04473759  1  0.132082  0.0055  3.751383  0.007  0.105068  0.000918  4.007463  0.002  0.118282  0.001496  4.024691  0.003  0.51911  0.001706  0.034959  0.096326  0.000488  3.996048  0.001
C  C93  1  0.02825137  0.78657645  0.91441573  1  -0.16942  0.000301  3.684354  0.0  -0.271903  0.000315  3.931866  0.0  -0.2676  0.000239  3.942376  0.0  0.274061  0.000449  -0.137369  -0.274551  0.000358  3.924387  0.0
C  C94  1  0.97163933  0.21341013  0.08562472  1  -0.168646  -0.000255  3.683531  0.0  -0.271105  -0.000283  3.931175  0.0  -0.266762  -0.000209  3.941684  0.0  0.275032  -0.000438  -0.136962  -0.273739  -0.00033  3.923679  0.0
C  C95  1  0.80371436  0.79751672  0.04505969  1  -0.17058  2.2e-05  3.685595  0.0  -0.270776  -0.000156  3.93029  0.0  -0.266711  -8.4e-05  3.940439  0.0  0.281084  -0.000254  -0.138632  -0.273294  -0.000218  3.923373  0.0
C  C96  1  0.19620171  0.20253922  0.95498459  1  -0.170321  7.2e-05  3.684657  0.0  -0.270602  0.000228  3.929654  0.0  -0.266499  0.000147  3.939803  0.0  0.282373  0.000331  -0.138583  -0.273107  0.000293  3.92276  0.0
C  C97  1  0.48698020  0.77831119  0.74458720  1  0.132163  -0.005232  3.758421  -0.007  0.105848  -0.000901  4.011972  -0.002  0.118694  -0.001446  4.029253  -0.003  0.426868  -0.001728  0.033467  0.097263  -0.00051  4.000285  -0.002
C  C98  1  0.51292644  0.22162312  0.25549908  1  0.132181  0.005675  3.758326  0.007  0.10586  0.001039  4.011895  0.002  0.118753  0.001594  4.029166  0.003  0.429865  0.001758  0.033551  0.097285  0.000634  4.000269  0.002
C  C99  1  0.43346888  0.91712583  0.71950680  1  -0.253446  0.006106  3.732682  0.007  -0.26525  0.002418  3.983675  0.003  -0.276471  0.00225  4.000843  0.003  -0.063576  0.004396  -0.115566  -0.25838  0.002699  3.972677  0.003
C  C100  1  0.56648905  0.08280244  0.28056199  1  -0.253717  -0.005901  3.732061  -0.007  -0.265465  -0.00244  3.983108  -0.003  -0.276671  -0.002214  4.000245  -0.003  -0.064843  -0.004565  -0.115361  -0.258612  -0.002735  3.972115  -0.003
C  C101  1  0.50464510  0.99567501  0.74737178  1  0.239086  -0.004432  3.830147  -0.005  0.222358  -0.001518  4.069625  -0.002  0.239942  -0.001493  4.084962  -0.002  0.444597  -0.002764  0.111877  0.210526  -0.001619  4.059156  -0.002
C  C102  1  0.49537940  0.00425930  0.25265137  1  0.23918  0.004645  3.829847  0.005  0.222343  0.001549  4.069391  0.002  0.239926  0.001538  4.08472  0.002  0.44578  0.002747  0.112022  0.210517  0.001648  4.058919  0.002
C  C103  1  0.62710569  0.92239642  0.80182280  1  -0.253866  0.006089  3.736951  0.007  -0.266717  0.002385  3.989102  0.003  -0.277932  0.002222  4.006373  0.003  0.052156  0.004186  -0.115355  -0.258834  0.002648  3.976763  0.003
C  C104  1  0.37292493  0.07754492  0.19819446  1  -0.253835  -0.005825  3.73652  -0.007  -0.26661  -0.002336  3.988717  -0.003  -0.277806  -0.002154  4.00596  -0.003  0.052644  -0.004281  -0.115429  -0.258735  -0.002637  3.976386  -0.003
C  C105  1  0.66989816  0.78337168  0.82401092  1  0.134735  -0.005219  3.755325  -0.007  0.108328  -0.000902  4.00863  -0.002  0.121168  -0.001457  4.02591  -0.003  0.376074  -0.00167  0.033529  0.099611  -0.000506  3.996793  -0.001
C  C106  1  0.33013443  0.21656364  0.17601585  1  0.13508  0.005639  3.755046  0.007  0.108613  0.001009  4.008526  0.002  0.121441  0.001591  4.025788  0.003  0.38831  0.001644  0.033841  0.099949  0.000563  3.996712  0.001
C  C107  1  0.32693412  0.20386717  0.67178001  1  -0.162031  0.000251  3.674054  0.0  -0.264022  0.000127  3.919577  0.0  -0.25962  0.00012  3.930324  0.0  0.303474  0.00022  -0.137409  -0.266604  0.00014  3.911982  0.0
C  C108  1  0.67314219  0.79601184  0.32821135  1  -0.16204  -3.6e-05  3.673812  0.0  -0.264054  -4.7e-05  3.919365  0.0  -0.259659  -2.3e-05  3.930104  0.0  0.30652  -0.000157  -0.137352  -0.266645  -7.7e-05  3.911763  0.0
C  C109  1  0.53362667  0.20806012  0.75468373  1  -0.164776  4.3e-05  3.671933  0.0  -0.266789  -2.2e-05  3.917154  0.0  -0.262323  -1.9e-05  3.927828  0.0  0.345163  7.7e-05  -0.138615  -0.269748  -1.1e-05  3.909877  0.0
C  C110  1  0.46639244  0.79189429  0.24529580  1  -0.165056  -4.8e-05  3.672148  0.0  -0.267034  -5.4e-05  3.917355  0.0  -0.26256  -2.7e-05  3.928016  0.0  0.345813  -0.000143  -0.138651  -0.269982  -8.8e-05  3.910071  0.0
S  S111  1  0.97498401  0.50285829  0.79079380  1  -0.253761  0.080932  2.239032  0.088  -0.279835  0.050048  2.583885  0.055  -0.310372  0.036453  2.576525  0.04  0.111162  0.091404  -0.1108  -0.259091  0.059729  2.589572  0.064
S  S112  1  0.02286222  0.49684581  0.20932094  1  -0.253076  -0.080062  2.228055  -0.097  -0.280781  -0.048883  2.571809  -0.058  -0.311012  -0.033286  2.564526  -0.041  0.107928  -0.09735  -0.111505  -0.260313  -0.061473  2.577447  -0.071
S  S113  1  0.69795981  0.50468988  0.54208928  1  -0.248864  -0.077449  2.252772  -0.089  -0.274339  -0.049149  2.599226  -0.055  -0.304371  -0.035082  2.591445  -0.04  0.123414  -0.09395  -0.104513  -0.253915  -0.059904  2.604894  -0.065
S  S114  1  0.30495980  0.49530575  0.45759854  1  -0.247519  -0.077974  2.238292  -0.095  -0.275712  -0.047298  2.583633  -0.056  -0.305228  -0.032026  2.575823  -0.04  0.120638  -0.094246  -0.105598  -0.255578  -0.059818  2.589357  -0.069
S  S115  1  0.62305679  0.50262808  0.12768935  1  -0.252158  -0.076812  2.267617  -0.088  -0.279705  -0.049041  2.618101  -0.056  -0.311931  -0.03491  2.611385  -0.041  0.135032  -0.092668  -0.107858  -0.257166  -0.059481  2.623058  -0.065
S  S116  1  0.37636063  0.49748516  0.87245978  1  -0.251139  0.08082  2.265722  0.088  -0.280195  0.049605  2.616575  0.055  -0.312256  0.03585  2.609741  0.04  0.135732  0.0906  -0.108167  -0.25757  0.059605  2.621668  0.064
N  N117  1  0.03190012  0.48370905  0.61862845  1  -0.478427  -0.012278  3.076157  -0.018  -0.466103  -0.01395  3.377209  -0.019  -0.500359  -0.014022  3.383501  -0.019  -1.27223  -0.01691  -0.391434  -0.443933  -0.013898  3.373418  -0.018
N  N118  1  0.97180644  0.51662636  0.38097436  1  -0.476918  -0.084546  3.08275  -0.115  -0.466069  -0.053254  3.385789  -0.073  -0.5007  -0.044524  3.392069  -0.062  -1.270485  -0.098624  -0.391885  -0.443538  -0.0605  3.381936  -0.08
N  N119  1  0.93974724  0.71084704  0.47781711  1  -0.314629  -0.05957  3.334938  -0.087  -0.27033  -0.041628  3.61141  -0.063  -0.305405  -0.033643  3.637315  -0.053  -1.215494  -0.077905  -0.342279  -0.246738  -0.048078  3.593369  -0.07
N  N120  1  0.06038477  0.28919584  0.52231247  1  -0.314614  -0.059556  3.333622  -0.087  -0.269986  -0.041559  3.609948  -0.062  -0.305057  -0.033616  3.635856  -0.052  -1.215758  -0.077634  -0.342187  -0.24638  -0.047931  3.591883  -0.07
N  N121  1  0.80386156  0.13203013  0.42727732  1  -0.103321  0.002617  3.460916  0.003  0.005289  0.00129  3.679103  0.002  -0.015158  0.001223  3.705604  0.002  -1.196436  0.002222  -0.288004  0.019249  0.001341  3.660293  0.002
N  N122  1  0.19631155  0.86795343  0.57272648  1  -0.102804  0.002633  3.459949  0.003  0.005642  0.001326  3.678451  0.002  -0.014901  0.001247  3.705054  0.002  -1.196799  0.002409  -0.287402  0.019666  0.001394  3.659556  0.002
N  N123  1  0.65200695  0.49045938  0.71994862  1  -0.474414  0.013162  3.079695  0.017  -0.459299  0.014103  3.379673  0.018  -0.493247  0.014749  3.385424  0.019  -1.247821  0.014259  -0.389036  -0.437419  0.013013  3.376754  0.016
N  N124  1  0.34459510  0.51016353  0.28006082  1  -0.471613  -0.08468  3.088679  -0.116  -0.458567  -0.053286  3.391271  -0.073  -0.492898  -0.044647  3.397101  -0.063  -1.255706  -0.098425  -0.39036  -0.43652  -0.060337  3.388189  -0.08
N  N125  1  0.69750283  0.50872399  0.95026360  1  -0.475967  0.010541  3.06661  0.014  -0.46413  0.01254  3.365602  0.015  -0.498228  0.012943  3.370978  0.016  -1.255699  0.012648  -0.390245  -0.441695  0.011863  3.362416  0.014
N  N126  1  0.30162271  0.49116809  0.04991341  1  -0.477126  -0.008252  3.067218  -0.013  -0.465608  -0.011603  3.36662  -0.015  -0.499699  -0.011803  3.371985  -0.016  -1.25987  -0.013012  -0.390475  -0.443352  -0.011362  3.363425  -0.014
N  N127  1  0.74904278  0.28707373  0.87900195  1  -0.312785  0.061532  3.328563  0.085  -0.268937  0.042029  3.606104  0.061  -0.304039  0.034378  3.632183  0.051  -1.251832  0.075393  -0.341397  -0.245118  0.047836  3.588077  0.068
N  N128  1  0.25071808  0.71295306  0.12081002  1  -0.312306  -0.05863  3.328528  -0.085  -0.268695  -0.040853  3.60625  -0.061  -0.303714  -0.033088  3.632168  -0.052  -1.252007  -0.075911  -0.341619  -0.245169  -0.04699  3.588536  -0.068
N  N129  1  0.89391980  0.86560715  0.96575970  1  -0.100713  -0.002428  3.458342  -0.003  0.007174  -0.001221  3.676942  -0.002  -0.01336  -0.001149  3.70345  -0.002  -1.211879  -0.002355  -0.287886  0.021205  -0.00133  3.658392  -0.002
N  N130  1  0.10598266  0.13440959  0.03426514  1  -0.100949  0.002559  3.457618  0.003  0.006884  0.001261  3.676225  0.002  -0.013738  0.001196  3.702801  0.002  -1.212908  0.002377  -0.287769  0.020919  0.00137  3.657678  0.002
N  N131  1  0.60321633  0.70974024  0.79632412  1  -0.319296  0.062209  3.350524  0.086  -0.27699  0.042351  3.631184  0.061  -0.312624  0.034662  3.657744  0.052  -1.201768  0.075794  -0.34407  -0.252501  0.048056  3.612862  0.068
N  N132  1  0.39671095  0.29020814  0.20374568  1  -0.319562  -0.059046  3.349435  -0.086  -0.277333  -0.041005  3.630171  -0.061  -0.312887  -0.03325  3.65664  -0.052  -1.20222  -0.075965  -0.344142  -0.253093  -0.046996  3.612063  -0.068
N  N133  1  0.45906036  0.13199696  0.72353179  1  -0.108164  -0.002501  3.475402  -0.003  -0.000885  -0.001298  3.696331  -0.002  -0.020586  -0.00122  3.720601  -0.002  -1.197982  -0.002467  -0.290684  0.012568  -0.0014  3.679253  -0.002
N  N134  1  0.54098657  0.86793132  0.27646295  1  -0.108243  0.002582  3.475115  0.003  -0.000791  0.001314  3.69583  0.002  -0.020482  0.001255  3.720087  0.002  -1.199967  0.002446  -0.290947  0.012655  0.001416  3.678755  0.002
