# generated using pymatgen
data_Zn4H12C27N12O13
_symmetry_space_group_name_H-M   'P 1'
_cell_length_a   17.38197824
_cell_length_b   18.19581016
_cell_length_c   18.60367904
_cell_angle_alpha   62.72539694
_cell_angle_beta   61.64289320
_cell_angle_gamma   61.08103609
_symmetry_Int_Tables_number   1
_chemical_formula_structural   Zn4H12C27N12O13
_chemical_formula_sum   'Zn8 H24 C54 N24 O26'
_cell_volume   4328.09645982
_cell_formula_units_Z   2
loop_
 _symmetry_equiv_pos_site_id
 _symmetry_equiv_pos_as_xyz
  1  'x, y, z'
loop_
 _atom_site_type_symbol
 _atom_site_label
 _atom_site_symmetry_multiplicity
 _atom_site_fract_x
 _atom_site_fract_y
 _atom_site_fract_z
 _atom_site_occupancy
 _atom_site_pbe_bader_charge
 _atom_site_pbe_bader_spin_density
 _atom_site_pbe_cm5_charge
 _atom_site_pbe_ddec_charge
 _atom_site_pbe_ddec_spin_density
 _atom_site_pbe_ddec_sum_bond_order
 _atom_site_pbe_magmom
Zn  Zn0  1  0.88556174  0.03161329  0.09201489  1  1.314824  0  0.676032  0.973787  0  2.338739  0
Zn  Zn1  1  0.07549205  0.03639140  0.08292731  1  1.323941  0  0.674471  0.971831  0  2.326567  0
Zn  Zn2  1  0.06018388  0.02717726  0.92287597  1  1.313056  0  0.677112  0.960594  0  2.411576  0
Zn  Zn3  1  0.07247547  0.86141618  0.08324204  1  1.321526  0  0.677802  0.967201  0  2.387785  0
Zn  Zn4  1  0.65939704  0.44013740  0.50931113  1  1.307787  0  0.680329  0.982311  0  2.294802  0
Zn  Zn5  1  0.47428055  0.44684226  0.49866581  1  1.320385  0  0.681897  0.980394  0  2.335686  0
Zn  Zn6  1  0.47646573  0.61552740  0.51056699  1  1.300837  0  0.681453  0.965863  0  2.389261  0
Zn  Zn7  1  0.46965007  0.45215826  0.67045547  1  1.313782  0  0.680455  0.970539  0  2.388433  0
H  H8  1  0.93951432  0.22916673  0.21210339  1  0.1156  0  0.114842  0.120578  0  0.983625  0
H  H9  1  0.84267382  0.31775128  0.31576911  1  0.106926  0  0.11687  0.123163  0  0.976645  0
H  H10  1  0.71425840  0.14062635  0.29291285  1  0.118182  0  0.119051  0.133868  0  0.98556  0
H  H11  1  0.52124051  0.27045609  0.32549913  1  0.173267  0  0.153323  0.128281  0  0.949333  0
H  H12  1  0.92021125  0.13189254  0.75466254  1  0.127885  0  0.116702  0.123422  0  0.980253  0
H  H13  1  0.82983081  0.23874449  0.65367124  1  0.107654  0  0.118378  0.124933  0  0.974156  0
H  H14  1  0.69344786  0.23369070  0.95823947  1  0.09668  0  0.118659  0.133504  0  0.981578  0
H  H15  1  0.49438214  0.27572357  0.93464005  1  0.148962  0  0.143598  0.118336  0  0.986539  0
H  H16  1  0.94246988  0.68133495  0.28496438  1  0.088888  0  0.116025  0.121978  0  0.981629  0
H  H17  1  0.84699719  0.58249368  0.37998209  1  0.115127  0  0.116761  0.12222  0  0.977952  0
H  H18  1  0.70878157  0.88335664  0.20581459  1  0.113956  0  0.120051  0.135835  0  0.981702  0
H  H19  1  0.51101531  0.89236944  0.35779458  1  0.217419  0  0.14413  0.123549  0  1.018314  0
H  H20  1  0.13485526  0.25594503  0.76348212  1  0.094491  0  0.116195  0.121743  0  0.980712  0
H  H21  1  0.23359148  0.35028143  0.65878470  1  0.118885  0  0.120843  0.127727  0  0.962727  0
H  H22  1  0.32719204  0.10598256  0.90447538  1  0.108394  0  0.117538  0.12876  0  0.991059  0
H  H23  1  0.42165917  0.15355301  0.93589965  1  0.157322  0  0.155709  0.130422  0  0.950292  0
H  H24  1  0.28667932  0.69256151  0.18705314  1  0.103005  0  0.116055  0.121904  0  0.980567  0
H  H25  1  0.36927607  0.59161320  0.29540278  1  0.099093  0  0.11649  0.122868  0  0.976454  0
H  H26  1  0.16123766  0.89562954  0.30664884  1  0.132318  0  0.119427  0.133509  0  0.981542  0
H  H27  1  0.28981579  0.90351795  0.37560249  1  0.190284  0  0.143686  0.120415  0  1.011547  0
H  H28  1  0.19009635  0.68021895  0.94580266  1  0.106323  0  0.11655  0.122591  0  0.979039  0
H  H29  1  0.28818859  0.58658781  0.84682755  1  0.137531  0  0.118332  0.129081  0  0.981493  0
H  H30  1  0.28163631  0.89333249  0.74644065  1  0.107044  0  0.120342  0.136078  0  0.979331  0
H  H31  1  0.30404611  0.89877977  0.55615955  1  0.204894  0  0.142319  0.119027  0  1.015844  0
C  C32  1  0.88778500  0.12928389  0.18191498  1  1.582094  0  0.230533  0.606052  0  4.154554  0
C  C33  1  0.83171043  0.18190489  0.24411681  1  0.008269  0  -0.008671  -0.012975  0  3.962635  0
C  C34  1  0.86877628  0.23016240  0.25198989  1  -0.052223  0  -0.070253  -0.082149  0  3.945996  0
C  C35  1  0.81502974  0.27909138  0.30977310  1  0.032699  0  -0.070596  -0.075508  0  3.949305  0
C  C36  1  0.72364178  0.28132270  0.36057280  1  0.022721  0  0.004517  -0.075147  0  3.902431  0
C  C37  1  0.66532273  0.34278025  0.41470587  1  1.575411  0  0.234421  0.617955  0  4.16526  0
C  C38  1  0.68845004  0.22978992  0.35440732  1  0.339613  0  0.108691  0.129382  0  3.993489  0
C  C39  1  0.74170888  0.18098545  0.29655306  1  -0.030902  0  -0.07085  -0.163956  0  3.932461  0
C  C40  1  0.52389007  0.24368918  0.39004177  1  0.953542  0  0.16232  0.059801  0  3.955202  0
C  C41  1  0.86841736  0.11467915  0.92124372  1  1.584245  0  0.232169  0.608469  0  4.154344  0
C  C42  1  0.81221293  0.17568216  0.86256798  1  -0.04426  0  -0.00724  -0.014356  0  3.962814  0
C  C43  1  0.85077837  0.17747046  0.77659212  1  -0.013307  0  -0.066897  -0.075082  0  3.931724  0
C  C44  1  0.80083340  0.23701521  0.72051018  1  0.049996  0  -0.065768  -0.067074  0  3.944094  0
C  C45  1  0.71145828  0.29549400  0.74870989  1  0.006716  0  0.007204  -0.073935  0  3.902947  0
C  C46  1  0.65819382  0.35474545  0.68704289  1  1.574198  0  0.23649  0.619681  0  4.158689  0
C  C47  1  0.67344896  0.29307135  0.83530377  1  0.350114  0  0.10958  0.132415  0  3.974723  0
C  C48  1  0.72309297  0.23379724  0.89181646  1  -0.00469  0  -0.068262  -0.157255  0  3.927715  0
C  C49  1  0.50172374  0.33891811  0.91367400  1  0.992888  0  0.160471  0.06948  0  3.952157  0
C  C50  1  0.88647616  0.84880943  0.18481625  1  1.591763  0  0.232846  0.609236  0  4.157443  0
C  C51  1  0.83065673  0.78895930  0.24144471  1  -0.031485  0  -0.005227  -0.007986  0  3.962783  0
C  C52  1  0.87039370  0.70352772  0.28913372  1  -0.002423  0  -0.069234  -0.082188  0  3.943386  0
C  C53  1  0.81762623  0.64857831  0.34134137  1  -0.008942  0  -0.067532  -0.06851  0  3.94988  0
C  C54  1  0.72505847  0.67689113  0.34643984  1  -0.003414  0  0.004591  -0.079933  0  3.907647  0
C  C55  1  0.66842679  0.61832452  0.40886288  1  1.615094  0  0.235681  0.619452  0  4.163761  0
C  C56  1  0.68687208  0.76205987  0.29597448  1  0.342675  0  0.112664  0.139017  0  3.971422  0
C  C57  1  0.73877920  0.81780501  0.24479155  1  0.031517  0  -0.068262  -0.161231  0  3.928503  0
C  C58  1  0.51813980  0.85674355  0.32008201  1  0.955266  0  0.166582  0.07806  0  3.904528  0
C  C59  1  0.16136493  0.12570709  0.90604831  1  1.566314  0  0.23102  0.608888  0  4.152022  0
C  C60  1  0.22308487  0.17849791  0.84210672  1  -0.025342  0  -0.009177  -0.015365  0  3.978406  0
C  C61  1  0.19828595  0.24487727  0.77120089  1  -0.022286  0  -0.067645  -0.077493  0  3.942261  0
C  C62  1  0.25333309  0.29680672  0.71295872  1  0.049593  0  -0.065357  -0.069771  0  3.939102  0
C  C63  1  0.33379064  0.28308126  0.72416767  1  0.012175  0  0.00939  -0.065139  0  3.90981  0
C  C64  1  0.38168566  0.34979112  0.66954736  1  1.565568  0  0.235737  0.614219  0  4.197163  0
C  C65  1  0.36150044  0.21230073  0.79221385  1  0.341225  0  0.110314  0.137355  0  3.989011  0
C  C66  1  0.30608507  0.16081714  0.85161341  1  0.01498  0  -0.073213  -0.169658  0  3.939604  0
C  C67  1  0.46958148  0.16542299  0.87111947  1  0.96042  0  0.166581  0.065281  0  3.953436  0
C  C68  1  0.17193325  0.86029396  0.17466814  1  1.566262  0  0.23119  0.60747  0  4.156985  0
C  C69  1  0.22152905  0.80073049  0.23881036  1  -0.069393  0  -0.00726  -0.012978  0  3.967344  0
C  C70  1  0.27829164  0.71445174  0.23668074  1  0.066847  0  -0.069394  -0.079367  0  3.943021  0
C  C71  1  0.32334280  0.65835708  0.29710694  1  -0.046937  0  -0.067804  -0.070324  0  3.950184  0
C  C72  1  0.31200401  0.68667736  0.36104960  1  0.049666  0  0.004942  -0.077984  0  3.91572  0
C  C73  1  0.36993072  0.62685809  0.41850756  1  1.59106  0  0.235247  0.616374  0  4.165311  0
C  C74  1  0.25173849  0.77232647  0.36468135  1  0.35348  0  0.113162  0.14604  0  3.978055  0
C  C75  1  0.20785872  0.82946231  0.30339034  1  -0.005821  0  -0.067346  -0.156138  0  3.918975  0
C  C76  1  0.25015382  0.86514427  0.43264299  1  0.970376  0  0.166499  0.087238  0  3.91852  0
C  C77  1  0.16720490  0.85037393  0.90854213  1  1.568359  0  0.233677  0.609345  0  4.150557  0
C  C78  1  0.22763106  0.79310998  0.85123116  1  -0.073731  0  -0.006418  -0.013617  0  3.968876  0
C  C79  1  0.23087424  0.70612143  0.88033163  1  -0.021756  0  -0.065379  -0.073808  0  3.930884  0
C  C80  1  0.28522111  0.65421293  0.82552363  1  0.063357  0  -0.062349  -0.059953  0  3.931581  0
C  C81  1  0.33748745  0.68762309  0.74113694  1  -0.020097  0  0.007482  -0.077517  0  3.896484  0
C  C82  1  0.38760062  0.63096145  0.68335856  1  1.573394  0  0.237873  0.617685  0  4.154225  0
C  C83  1  0.33713513  0.77393840  0.71390604  1  0.357805  0  0.113236  0.148856  0  3.968715  0
C  C84  1  0.28190360  0.82655343  0.76812352  1  0.066427  0  -0.066961  -0.157455  0  3.920424  0
C  C85  1  0.37323275  0.87014300  0.56121934  1  0.981952  0  0.167068  0.091033  0  3.911967  0
N  N86  1  0.59914488  0.22349369  0.40912681  1  -0.859381  0  -0.118497  0.096309  0  3.783395  0
N  N87  1  0.45591867  0.22724917  0.46194769  1  -0.665354  0  -0.234337  -0.24011  0  3.173422  0
N  N88  1  0.49143598  0.19580888  0.52618388  1  -0.065261  0  -0.078813  -0.043513  0  3.230433  0
N  N89  1  0.57672001  0.19328971  0.49621309  1  -0.051229  0  -0.079959  -0.124603  0  3.098485  0
N  N90  1  0.58381782  0.35264320  0.86740334  1  -0.846344  0  -0.120059  0.096807  0  3.774831  0
N  N91  1  0.43551929  0.41401251  0.92533422  1  -0.682198  0  -0.238733  -0.249537  0  3.184935  0
N  N92  1  0.47925696  0.47464000  0.88467412  1  -0.065935  0  -0.084275  -0.051887  0  3.248168  0
N  N93  1  0.56794342  0.43953127  0.84915913  1  -0.073355  0  -0.088141  -0.133104  0  3.097572  0
N  N94  1  0.59597810  0.79279996  0.29196172  1  -0.837498  0  -0.11724  0.10243  0  3.763549  0
N  N95  1  0.45087688  0.86255952  0.30057797  1  -0.690763  0  -0.224217  -0.241844  0  3.231425  0
N  N96  1  0.48929682  0.80057403  0.25994426  1  -0.083181  0  -0.09179  -0.06513  0  3.261261  0
N  N97  1  0.57615349  0.75773815  0.25421074  1  -0.08415  0  -0.090653  -0.139297  0  3.109482  0
N  N98  1  0.44730804  0.19218609  0.80041099  1  -0.845325  0  -0.109205  0.084179  0  3.784179  0
N  N99  1  0.55722648  0.15751559  0.84788115  1  -0.679509  0  -0.230201  -0.247153  0  3.194424  0
N  N100  1  0.58914519  0.17955829  0.76038467  1  -0.050617  0  -0.076624  -0.046812  0  3.215206  0
N  N101  1  0.52473989  0.20032729  0.73096075  1  -0.068032  0  -0.064141  -0.090147  0  3.108222  0
N  N102  1  0.23122638  0.80113606  0.43320109  1  -0.862383  0  -0.11743  0.075269  0  3.795365  0
N  N103  1  0.22016938  0.86603949  0.51244603  1  -0.683801  0  -0.224259  -0.239049  0  3.222454  0
N  N104  1  0.18229165  0.80080028  0.56217918  1  -0.078962  0  -0.093106  -0.065185  0  3.240008  0
N  N105  1  0.18842200  0.76086444  0.51616229  1  -0.06858  0  -0.088593  -0.125586  0  3.121148  0
N  N106  1  0.39512956  0.80963561  0.63165728  1  -0.863062  0  -0.116035  0.071409  0  3.799361  0
N  N107  1  0.45058414  0.88206656  0.49976837  1  -0.709969  0  -0.226287  -0.242639  0  3.227804  0
N  N108  1  0.52051003  0.82720021  0.53428452  1  -0.078601  0  -0.094452  -0.071043  0  3.244848  0
N  N109  1  0.48899558  0.78301203  0.61317995  1  -0.062247  0  -0.086054  -0.117087  0  3.107786  0
O  O110  1  0.02164810  0.99010061  0.04789091  1  -1.227176  0  -0.575422  -1.036577  0  2.549522  0
O  O111  1  0.97347160  0.12201692  0.14445984  1  -1.178154  0  -0.311674  -0.544485  0  2.31181  0
O  O112  1  0.84445099  0.09636072  0.17196084  1  -1.168514  0  -0.31209  -0.544265  0  2.324101  0
O  O113  1  0.57920223  0.37778944  0.42271452  1  -1.161235  0  -0.308987  -0.545685  0  2.355885  0
O  O114  1  0.70790123  0.35697721  0.44429956  1  -1.163635  0  -0.305474  -0.534848  0  2.303361  0
O  O115  1  0.95296098  0.07239021  0.88642312  1  -1.174614  0  -0.31487  -0.548547  0  2.345764  0
O  O116  1  0.82885856  0.11010117  0.00053305  1  -1.169064  0  -0.311487  -0.541793  0  2.299722  0
O  O117  1  0.57027251  0.37835170  0.71937533  1  -1.151884  0  -0.303894  -0.54103  0  2.415232  0
O  O118  1  0.70564713  0.37469676  0.60777974  1  -1.165164  0  -0.307789  -0.539649  0  2.300982  0
O  O119  1  0.97396149  0.81342228  0.17133471  1  -1.168003  0  -0.311602  -0.54394  0  2.332062  0
O  O120  1  0.84222479  0.92965440  0.15454513  1  -1.179543  0  -0.312519  -0.545536  0  2.316068  0
O  O121  1  0.58147893  0.65730710  0.43646933  1  -1.171118  0  -0.303891  -0.533962  0  2.399344  0
O  O122  1  0.71209147  0.53573596  0.43051057  1  -1.173072  0  -0.309546  -0.54409  0  2.297927  0
O  O123  1  0.10710243  0.12352227  0.87959947  1  -1.173941  0  -0.314959  -0.546889  0  2.327653  0
O  O124  1  0.16676750  0.08793076  0.98169319  1  -1.165344  0  -0.314317  -0.546808  0  2.287966  0
O  O125  1  0.39473119  0.37983005  0.71114739  1  -1.162617  0  -0.31367  -0.547878  0  2.356953  0
O  O126  1  0.39942287  0.37339655  0.58937838  1  -1.135845  0  -0.299489  -0.524749  0  2.343302  0
O  O127  1  0.16810401  0.82355950  0.13272875  1  -1.170101  0  -0.31584  -0.550569  0  2.334521  0
O  O128  1  0.13701225  0.94234973  0.16737524  1  -1.173246  0  -0.311198  -0.540488  0  2.303649  0
O  O129  1  0.39192880  0.66350965  0.44648084  1  -1.162718  0  -0.302456  -0.533867  0  2.394484  0
O  O130  1  0.39511859  0.54466769  0.43120606  1  -1.153363  0  -0.308814  -0.537668  0  2.318155  0
O  O131  1  0.12940485  0.81363053  0.98707593  1  -1.173901  0  -0.311397  -0.544454  0  2.324382  0
O  O132  1  0.15768373  0.93203399  0.87437160  1  -1.170699  0  -0.313735  -0.543026  0  2.323301  0
O  O133  1  0.41342996  0.66841436  0.60311392  1  -1.154022  0  -0.303243  -0.532135  0  2.380068  0
O  O134  1  0.39761746  0.54964918  0.71961177  1  -1.158691  0  -0.304152  -0.53093  0  2.357813  0
O  O135  1  0.52278382  0.48668089  0.54537930  1  -1.195936  0  -0.570888  -1.030049  0  2.524203  0
