# generated using pymatgen
data_Zn4H30C30ClO13
_symmetry_space_group_name_H-M   'P 1'
_cell_length_a   18.41946167
_cell_length_b   18.52741564
_cell_length_c   18.57356189
_cell_angle_alpha   90.85954778
_cell_angle_beta   119.49675621
_cell_angle_gamma   119.35449299
_symmetry_Int_Tables_number   1
_chemical_formula_structural   Zn4H30C30ClO13
_chemical_formula_sum   'Zn8 H60 C60 Cl2 O26'
_cell_volume   4525.68237069
_cell_formula_units_Z   2
loop_
 _symmetry_equiv_pos_site_id
 _symmetry_equiv_pos_as_xyz
  1  'x, y, z'
loop_
 _atom_site_type_symbol
 _atom_site_label
 _atom_site_symmetry_multiplicity
 _atom_site_fract_x
 _atom_site_fract_y
 _atom_site_fract_z
 _atom_site_occupancy
 _atom_site_pbe_bader_charge
 _atom_site_pbe_bader_spin_density
 _atom_site_pbe_cm5_charge
 _atom_site_pbe_ddec_charge
 _atom_site_pbe_ddec_spin_density
 _atom_site_pbe_ddec_sum_bond_order
 _atom_site_pbe_magmom
Zn  Zn0  1  0.08516450  0.95471917  0.54484229  1  1.300572  0  0.669315  0.9503  0  2.405237  0
Zn  Zn1  1  0.08855716  0.12853559  0.54051373  1  1.31603  0  0.667049  0.964202  0  2.366723  0
Zn  Zn2  1  0.91518916  0.95300922  0.54508484  1  1.312512  0  0.669405  0.962123  0  2.391139  0
Zn  Zn3  1  0.91160887  0.95643392  0.37175958  1  1.309876  0  0.673013  0.959704  0  2.37786  0
Zn  Zn4  1  0.90666566  0.53979036  0.95672665  1  1.314513  0  0.669995  0.968741  0  2.338611  0
Zn  Zn5  1  0.08470355  0.54228527  0.95901213  1  1.302702  0  0.663512  0.956775  0  2.403106  0
Zn  Zn6  1  0.91912847  0.37393891  0.96035663  1  1.294577  0  0.663763  0.94393  0  2.437794  0
Zn  Zn7  1  0.08537991  0.54474804  0.13289033  1  1.298743  0  0.66778  0.972629  0  2.346778  0
H  H8  1  0.07062921  0.79945964  0.72382204  1  0.061767  0  0.112708  0.129829  0  0.9901  0
H  H9  1  0.07496778  0.34338292  0.80895937  1  0.08641  0  0.112976  0.131617  0  0.984454  0
H  H10  1  0.88936911  0.09370379  0.70144917  1  0.134674  0  0.112719  0.111062  0  0.97596  0
H  H11  1  0.03736477  0.26278780  0.68988106  1  0.087785  0  0.113065  0.131247  0  0.985156  0
H  H12  1  0.57439297  0.31909600  0.83397867  1  0.081273  0  0.10743  0.132758  0  1.007312  0
H  H13  1  0.41983024  0.25404387  0.67141273  1  0.065253  0  0.105768  0.133316  0  0.998267  0
H  H14  1  0.27616771  0.05627034  0.33728227  1  0.051925  0  0.1086  0.122534  0  0.98341  0
H  H15  1  0.89976007  0.71324558  0.80724754  1  0.106491  0  0.113699  0.112452  0  0.973177  0
H  H16  1  0.03306521  0.68519431  0.77265099  1  0.093078  0  0.112275  0.129718  0  0.983772  0
H  H17  1  0.89364859  0.79737664  0.70510737  1  0.093321  0  0.113104  0.111506  0  0.975798  0
H  H18  1  0.69610287  0.59120582  0.31326084  1  0.024619  0  0.08307  0.106999  0  1.005026  0
H  H19  1  0.41111480  0.67508268  0.31113764  1  0.093484  0  0.113473  0.110899  0  0.96825  0
H  H20  1  0.75448635  0.70603740  0.35192139  1  0.020923  0  0.080761  0.107221  0  1.014853  0
H  H21  1  0.63231714  0.63806838  0.25128386  1  0.037974  0  0.08546  0.112491  0  1.005373  0
H  H22  1  0.76866764  0.72315953  0.22473320  1  0.055867  0  0.08825  0.085528  0  0.990456  0
H  H23  1  0.70619882  0.60863876  0.18178000  1  0.007099  0  0.087028  0.075425  0  1.000596  0
H  H24  1  0.84709455  0.61294407  0.30645190  1  0.005703  0  0.094317  0.090059  0  0.993089  0
H  H25  1  0.90080884  0.71921020  0.36713373  1  0.034778  0  0.093303  0.091197  0  0.995017  0
H  H26  1  0.60812993  0.04919495  0.27967732  1  0.012571  0  0.084024  0.111007  0  1.015962  0
H  H27  1  0.47648944  0.96206213  0.21150291  1  0.029128  0  0.082465  0.110263  0  1.004395  0
H  H28  1  0.52924981  0.02876428  0.31628761  1  0.021745  0  0.07963  0.109943  0  1.021189  0
H  H29  1  0.50573776  0.88598667  0.32621848  1  0.004889  0  0.087101  0.076223  0  0.985019  0
H  H30  1  0.41456559  0.70449289  0.14979629  1  0.090516  0  0.110851  0.131433  0  0.988944  0
H  H31  1  0.63665196  0.97086605  0.38916850  1  0.034218  0  0.087099  0.076388  0  0.973757  0
H  H32  1  0.64075396  0.93002831  0.25973876  1  0.065919  0  0.095837  0.101724  0  1.004479  0
H  H33  1  0.51145165  0.84283931  0.20312866  1  0.028379  0  0.094651  0.095669  0  1.00075  0
H  H34  1  0.66875646  0.10564410  0.11160108  1  -0.00534  0  0.084033  0.109067  0  1.003979  0
H  H35  1  0.65437573  0.00319364  0.10318555  1  0.021015  0  0.085423  0.111641  0  0.999619  0
H  H36  1  0.61216993  0.03378721  0.15785795  1  0.026429  0  0.084238  0.10865  0  1.032437  0
H  H37  1  0.77859870  0.05518730  0.26780694  1  0.043618  0  0.085988  0.078807  0  1.008575  0
H  H38  1  0.79296631  0.15722265  0.27684802  1  0.013433  0  0.085188  0.072354  0  0.977514  0
H  H39  1  0.85632247  0.18381755  0.18050661  1  0.031153  0  0.092424  0.090663  0  1.010332  0
H  H40  1  0.84655510  0.08377200  0.17568651  1  0.045517  0  0.100052  0.105461  0  0.96456  0
H  H41  1  0.59456530  0.73042545  0.37459267  1  0.099595  0  0.108999  0.115441  0  0.987525  0
H  H42  1  0.64610205  0.16939146  0.60487486  1  0.028624  0  0.084548  0.109545  0  1.003891  0
H  H43  1  0.57963418  0.06321500  0.61063474  1  0.020134  0  0.084234  0.10853  0  1.003218  0
H  H44  1  0.52099806  0.08593291  0.51341133  1  0.039163  0  0.085545  0.112398  0  1.006644  0
H  H45  1  0.44999918  0.08703905  0.59803933  1  0.033296  0  0.087961  0.077547  0  0.98792  0
H  H46  1  0.51734279  0.19274244  0.59408275  1  0.000962  0  0.087364  0.076211  0  0.97215  0
H  H47  1  0.67276594  0.23406551  0.74588161  1  0.064597  0  0.097987  0.111988  0  0.991046  0
H  H48  1  0.59897010  0.13068530  0.74964235  1  0.045595  0  0.099135  0.101246  0  0.97527  0
H  H49  1  0.27856814  0.93048555  0.75736271  1  0.036386  0  0.084265  0.114514  0  1.01042  0
H  H50  1  0.40476902  0.96192239  0.83486085  1  0.005755  0  0.083114  0.106443  0  1.005882  0
H  H51  1  0.34147079  0.98250918  0.87098395  1  0.026963  0  0.085824  0.110677  0  1.001978  0
H  H52  1  0.09282563  0.39944034  0.31296237  1  0.112636  0  0.112669  0.110055  0  0.970098  0
H  H53  1  0.46585896  0.12249896  0.86719082  1  0.034018  0  0.085416  0.071846  0  0.979871  0
H  H54  1  0.33972935  0.08910858  0.78946267  1  0.026061  0  0.087574  0.080983  0  0.990644  0
H  H55  1  0.33773458  0.01855526  0.67102362  1  0.08319  0  0.099495  0.112323  0  0.993236  0
H  H56  1  0.46661051  0.05754901  0.74974925  1  0.019788  0  0.092937  0.08959  0  0.99755  0
H  H57  1  0.69999756  0.41022474  0.02231208  1  0.013444  0  0.081255  0.108551  0  1.012443  0
H  H58  1  0.64473948  0.41993991  0.07456389  1  0.006993  0  0.080986  0.102291  0  1.010023  0
H  H59  1  0.60525730  0.43120642  0.96925103  1  0.011406  0  0.086455  0.11366  0  1.001137  0
H  H60  1  0.72345643  0.58029512  0.08497306  1  0.020503  0  0.085642  0.071758  0  1.005434  0
H  H61  1  0.77800673  0.56987061  0.03337408  1  0.051964  0  0.08914  0.091523  0  0.99573  0
H  H62  1  0.87835048  0.53283876  0.15667130  1  0.034125  0  0.094323  0.096508  0  0.990188  0
H  H63  1  0.96842148  0.23678077  0.15190252  1  0.073272  0  0.111969  0.133802  0  0.987767  0
H  H64  1  0.82303354  0.54028911  0.20834291  1  0.005065  0  0.092816  0.087854  0  1.001859  0
H  H65  1  0.11325569  0.29662015  0.39463824  1  0.108059  0  0.109398  0.117485  0  0.989483  0
H  H66  1  0.87746003  0.19142586  0.78160856  1  0.111108  0  0.112561  0.110425  0  0.979599  0
H  H67  1  0.14410561  0.98110318  0.36591056  1  0.065847  0  0.106287  0.112094  0  0.996958  0
C  C68  1  0.98514473  0.13418954  0.36073188  1  1.554224  0  0.224493  0.594203  0  4.171908  0
C  C69  1  0.98936893  0.68025458  0.79831558  1  -0.052385  0  -0.083315  -0.217864  0  3.873372  0
C  C70  1  0.94763000  0.77939835  0.72728617  1  0.018898  0  -0.06457  -0.016351  0  3.967913  0
C  C71  1  0.00820839  0.86558261  0.64503065  1  1.510698  0  0.219064  0.638853  0  4.192286  0
C  C72  1  0.01254405  0.81208310  0.70308625  1  -0.028388  0  -0.087339  -0.229248  0  3.87848  0
C  C73  1  0.44610479  0.70267169  0.27610304  1  -0.115779  0  -0.062024  0.006073  0  3.979751  0
C  C74  1  0.38431677  0.68409189  0.18906759  1  0.043885  0  -0.096769  -0.250336  0  3.913045  0
C  C75  1  0.55630598  0.75411405  0.32572424  1  0.002402  0  -0.080513  -0.123781  0  3.961277  0
C  C76  1  0.61589135  0.83008313  0.31862258  1  -0.033851  0  -0.003192  -0.00802  0  3.87639  0
C  C77  1  0.04942792  0.32935055  0.27730412  1  -0.108343  0  -0.064455  0.00354  0  3.9834  0
C  C78  1  0.00693346  0.30450457  0.19015307  1  0.034047  0  -0.095783  -0.249674  0  3.910953  0
C  C79  1  0.15585943  0.84512266  0.21468078  1  0.091578  0  0.008209  0.033998  0  3.979003  0
C  C80  1  0.04553169  0.27025771  0.32769670  1  -0.011048  0  -0.080297  -0.119862  0  3.96309  0
C  C81  1  0.96638792  0.18590986  0.30106853  1  -0.066756  0  -0.003903  -0.008436  0  3.876829  0
C  C82  1  0.93805087  0.22147532  0.77135988  1  -0.022264  0  -0.066693  -0.019969  0  3.97552  0
C  C83  1  0.27432856  0.13686536  0.62951873  1  1.541035  0  0.217323  0.654863  0  4.173088  0
C  C84  1  0.00986468  0.30883739  0.81292381  1  -0.05244  0  -0.085974  -0.22494  0  3.877305  0
C  C85  1  0.93697313  0.16461156  0.71588095  1  -0.049222  0  -0.066579  -0.021494  0  3.979631  0
C  C86  1  0.99031341  0.19324502  0.68035232  1  -0.041715  0  -0.086626  -0.225791  0  3.883375  0
C  C87  1  0.55530374  0.21765560  0.75691510  1  0.030437  0  0.015817  0.130321  0  3.902266  0
C  C88  1  0.61184455  0.29703645  0.81853821  1  -0.06924  0  -0.103568  -0.320152  0  3.881275  0
C  C89  1  0.44480406  0.15923764  0.71739111  1  -0.090941  0  0.02558  0.153626  0  3.889036  0
C  C90  1  0.07837129  0.79844700  0.23015421  1  0.050888  0  -0.002398  0.015245  0  3.944804  0
C  C91  1  0.38524923  0.18802124  0.67523873  1  0.002655  0  -0.108527  -0.334852  0  3.884731  0
C  C92  1  0.27279812  0.63425958  0.13880210  1  1.484634  0  0.215097  0.642125  0  4.193123  0
C  C93  1  0.72390539  0.35838004  0.87035438  1  1.514545  0  0.220903  0.657012  0  4.171619  0
C  C94  1  0.98708319  0.62574638  0.85546857  1  1.52933  0  0.218147  0.63817  0  4.191019  0
C  C95  1  0.72734778  0.86945394  0.37039952  1  1.554179  0  0.226641  0.598195  0  4.165276  0
C  C96  1  0.00761944  0.36460915  0.13908467  1  1.546439  0  0.215575  0.64093  0  4.193684  0
C  C97  1  0.00541917  0.36388669  0.86661319  1  1.543966  0  0.215774  0.635937  0  4.200064  0
C  C98  1  0.00096665  0.64408447  0.13730101  1  1.580218  0  0.22146  0.611185  0  4.216587  0
C  C99  1  0.99262386  0.13393217  0.62900379  1  1.549625  0  0.217765  0.641413  0  4.18958  0
C  C100  1  0.00094568  0.86238088  0.36399417  1  1.577661  0  0.234485  0.624627  0  4.170655  0
C  C101  1  0.07561204  0.85010212  0.28621647  1  -0.020621  0  -0.004081  0.064863  0  3.999465  0
C  C102  1  0.14716148  0.94283366  0.32365716  1  -0.013483  0  -0.089844  -0.113862  0  3.997603  0
C  C103  1  0.22081773  0.98517242  0.30834328  1  0.046666  0  -0.099756  -0.142708  0  4.047509  0
C  C104  1  0.22522549  0.93606302  0.25369219  1  0.060422  0  0.001103  0.080866  0  4.075638  0
C  C105  1  0.86020040  0.67644643  0.29995714  1  0.005665  0  -0.158559  -0.1888  0  3.946094  0
C  C106  1  0.75696987  0.66427866  0.24328863  1  -0.014068  0  -0.166464  -0.094646  0  3.947056  0
C  C107  1  0.70704212  0.64891027  0.29242150  1  -0.090147  0  -0.24583  -0.351224  0  3.982758  0
C  C108  1  0.58227203  0.88351170  0.26887326  1  -0.01537  0  -0.162599  -0.18933  0  3.943401  0
C  C109  1  0.56769091  0.93420877  0.32129805  1  0.005452  0  -0.161635  -0.081968  0  3.950158  0
C  C110  1  0.54417620  0.99706622  0.27988032  1  -0.057633  0  -0.247431  -0.357048  0  3.978601  0
C  C111  1  0.86132177  0.13888373  0.21752238  1  -0.016764  0  -0.161021  -0.183176  0  3.965342  0
C  C112  1  0.00154214  0.80689019  0.30459810  1  -0.026906  0  -0.012367  -0.126216  0  3.938585  0
C  C113  1  0.77712124  0.10268842  0.23323936  1  -0.017576  0  -0.16698  -0.09495  0  3.953267  0
C  C114  1  0.67230971  0.05896102  0.14683150  1  -0.036514  0  -0.245102  -0.354722  0  3.984737  0
C  C115  1  0.59449570  0.18194552  0.72221063  1  -0.038899  0  -0.159022  -0.208338  0  3.938502  0
C  C116  1  0.52687829  0.14309492  0.62119107  1  0.01829  0  -0.164557  -0.088187  0  3.961818  0
C  C117  1  0.57081365  0.11384755  0.58556863  1  -0.089801  0  -0.24374  -0.352447  0  3.983851  0
C  C118  1  0.40939455  0.07142567  0.73155876  1  -0.018429  0  -0.160682  -0.21098  0  3.932204  0
C  C119  1  0.39331905  0.07115330  0.80562518  1  -0.004092  0  -0.161882  -0.079835  0  3.946597  0
C  C120  1  0.35238656  0.98155214  0.81796222  1  -0.066786  0  -0.244314  -0.351278  0  3.97741  0
C  C121  1  0.84768284  0.56743952  0.16618891  1  -0.005827  0  -0.159926  -0.189068  0  3.939223  0
C  C122  1  0.75384249  0.54498351  0.07634208  1  -0.015519  0  -0.167521  -0.09731  0  3.945101  0
C  C123  1  0.93018472  0.71646294  0.27018637  1  0.046733  0  0.000114  0.05625  0  3.908307  0
C  C124  1  0.67137962  0.44620308  0.03331984  1  -0.034544  0  -0.245941  -0.350097  0  3.988522  0
C  C125  1  0.92949103  0.66513646  0.21140980  1  0.029287  0  0.003561  0.064844  0  3.880691  0
C  C126  1  0.00344486  0.70560376  0.19413493  1  0.000144  0  -0.012062  -0.11335  0  3.892319  0
C  C127  1  0.94383889  0.72288045  0.78051486  1  -0.054275  0  -0.065654  -0.021752  0  3.972294  0
Cl  Cl128  1  0.31954062  0.99312276  0.23682426  1  -0.211136  0  -0.014619  -0.091469  0  1.533615  0
Cl  Cl129  1  0.16607424  0.79200250  0.14668578  1  -0.184216  0  0.00927  -0.041438  0  1.631123  0
O  O130  1  0.99989372  0.99887126  0.50026594  1  -1.218102  0  -0.574643  -1.030425  0  2.546741  0
O  O131  1  0.95601373  0.32701365  0.05592800  1  -1.174714  0  -0.326422  -0.555342  0  2.305711  0
O  O132  1  0.07433738  0.44663888  0.89729561  1  -1.169145  0  -0.319062  -0.547753  0  2.286616  0
O  O133  1  0.93480981  0.05159846  0.32207797  1  -1.166834  0  -0.316109  -0.543567  0  2.337569  0
O  O134  1  0.05607708  0.61661294  0.17795505  1  -1.170741  0  -0.316864  -0.55279  0  2.34441  0
O  O135  1  0.93417510  0.32556688  0.87789621  1  -1.181428  0  -0.320397  -0.553926  0  2.333105  0
O  O136  1  0.93924171  0.62100657  0.05457554  1  -1.165288  0  -0.30934  -0.545665  0  2.368385  0
O  O137  1  0.92750608  0.60713843  0.87932279  1  -1.158712  0  -0.31791  -0.554473  0  2.30918  0
O  O138  1  0.05623877  0.44640439  0.17916884  1  -1.168298  0  -0.320228  -0.555058  0  2.30624  0
O  O139  1  0.22793003  0.62207350  0.05627117  1  -1.163638  0  -0.325989  -0.555788  0  2.3042  0
O  O140  1  0.77390603  0.32415120  0.89025768  1  -1.160906  0  -0.31566  -0.550306  0  2.355976  0
O  O141  1  0.22635204  0.05596894  0.62356036  1  -1.193328  0  -0.316634  -0.556611  0  2.385182  0
O  O142  1  0.06378135  0.88117545  0.61691314  1  -1.160637  0  -0.318675  -0.547337  0  2.297371  0
O  O143  1  0.23279324  0.17785024  0.59744065  1  -1.15936  0  -0.325784  -0.554939  0  2.272434  0
O  O144  1  0.77140342  0.86560012  0.44753707  1  -1.183504  0  -0.320681  -0.55996  0  2.331847  0
O  O145  1  0.06224264  0.17247505  0.61569275  1  -1.169696  0  -0.320197  -0.549737  0  2.297486  0
O  O146  1  0.93430591  0.87900678  0.32573177  1  -1.159796  0  -0.305487  -0.538071  0  2.328925  0
O  O147  1  0.92712589  0.05098819  0.60344408  1  -1.174326  0  -0.322298  -0.557877  0  2.316861  0
O  O148  1  0.06648447  0.88778211  0.44639002  1  -1.173464  0  -0.310163  -0.543787  0  2.318975  0
O  O149  1  0.77002954  0.90407934  0.33132243  1  -1.171757  0  -0.313138  -0.542758  0  2.328657  0
O  O150  1  0.04948464  0.17491121  0.44330171  1  -1.177353  0  -0.315328  -0.549074  0  2.343471  0
O  O151  1  0.95024517  0.89139206  0.62692080  1  -1.155664  0  -0.31914  -0.554801  0  2.326445  0
O  O152  1  0.99940504  0.50260478  0.00348103  1  -1.19131  0  -0.572877  -1.028157  0  2.534254  0
O  O153  1  0.23027451  0.60845346  0.17942270  1  -1.170198  0  -0.321012  -0.56128  0  2.31266  0
O  O154  1  0.76204009  0.44085246  0.89346666  1  -1.152446  0  -0.319765  -0.552057  0  2.272111  0
O  O155  1  0.04755150  0.60217628  0.87603172  1  -1.14207  0  -0.321205  -0.549477  0  2.299192  0
