# generated using pymatgen
data_V6Zn2H22C30N6O17
_symmetry_space_group_name_H-M   'P 1'
_cell_length_a   9.70197881
_cell_length_b   10.16458448
_cell_length_c   11.11930986
_cell_angle_alpha   66.57165621
_cell_angle_beta   81.63757916
_cell_angle_gamma   74.41788486
_symmetry_Int_Tables_number   1
_chemical_formula_structural   V6Zn2H22C30N6O17
_chemical_formula_sum   'V6 Zn2 H22 C30 N6 O17'
_cell_volume   968.24112010
_cell_formula_units_Z   1
loop_
 _symmetry_equiv_pos_site_id
 _symmetry_equiv_pos_as_xyz
  1  'x, y, z'
loop_
 _atom_site_type_symbol
 _atom_site_label
 _atom_site_symmetry_multiplicity
 _atom_site_fract_x
 _atom_site_fract_y
 _atom_site_fract_z
 _atom_site_occupancy
 _atom_site_hle17_bader_spin_density
 _atom_site_hle17_ddec_charge
 _atom_site_hle17_ddec_spin_density
 _atom_site_hle17_ddec_sum_bond_order
 _atom_site_hle17_magmom
 _atom_site_hse06_10hf_bader_spin_density
 _atom_site_hse06_10hf_ddec_charge
 _atom_site_hse06_10hf_ddec_spin_density
 _atom_site_hse06_10hf_ddec_sum_bond_order
 _atom_site_hse06_10hf_magmom
 _atom_site_hse06_bader_spin_density
 _atom_site_hse06_ddec_charge
 _atom_site_hse06_ddec_spin_density
 _atom_site_hse06_ddec_sum_bond_order
 _atom_site_hse06_magmom
 _atom_site_pbe_bader_spin_density
 _atom_site_pbe_cm5_charge
 _atom_site_pbe_ddec_charge
 _atom_site_pbe_ddec_spin_density
 _atom_site_pbe_ddec_sum_bond_order
 _atom_site_pbe_magmom
V  V0  1  0.27673476  0.67710862  0.02846306  1  0  2.014156  0  3.020063  0  0  2.087463  0  3.402055  0  0  2.181067  0  3.380338  0  0  1.486403  2.009872  0  3.443907  0
V  V1  1  0.99537936  0.69058249  0.87524359  1  0  2.005352  0  3.015091  0  0  2.077082  0  3.399912  0  0  2.171123  0  3.376399  0  0  1.481469  1.998116  0  3.444774  0
V  V2  1  0.86883975  0.38681689  0.97436873  1  0  1.967002  0  3.033959  0  0  2.027511  0  3.430388  0  0  2.120983  0  3.405838  0  0  1.449136  1.947913  0  3.476478  0
V  V3  1  0.54490566  0.37523309  0.13996216  1  0  1.984931  0  3.01443  0  0  2.041808  0  3.420282  0  0  2.141105  0  3.384147  0  0  1.445496  1.961691  0  3.468698  0
V  V4  1  0.41384214  0.97180915  0.00281515  1  0  1.983343  0  3.029349  0  0  2.045521  0  3.419874  0  0  2.137712  0  3.397983  0  0  1.452726  1.966424  0  3.466072  0
V  V5  1  0.73155912  0.99969015  0.81712673  1  0  1.987262  0  3.013698  0  0  2.046153  0  3.415437  0  0  2.143778  0  3.382799  0  0  1.445675  1.966362  0  3.463552  0
Zn  Zn6  1  0.79108309  0.33651401  0.71675001  1  0  1.028627  0  1.967672  0  0  0.859856  0  2.454979  0  0  0.909084  0  2.397942  0  0  0.693956  0.826385  0  2.491169  0
Zn  Zn7  1  0.49632256  0.03356270  0.24699502  1  0  1.021077  0  1.9931  0  0  0.851426  0  2.485237  0  0  0.899636  0  2.428756  0  0  0.694185  0.818794  0  2.520609  0
H  H8  1  0.48893656  0.32529090  0.87666775  1  0  0.094772  0  0.940709  0  0  0.101789  0  1.00638  0  0  0.104874  0  1.003319  0  0  0.124209  0.099641  0  1.008565  0
H  H9  1  0.23137742  0.43838886  0.82754957  1  0  0.111628  0  0.942275  0  0  0.119829  0  1.003527  0  0  0.123163  0  1.001841  0  0  0.117733  0.117481  0  1.004424  0
H  H10  1  0.16737872  0.60397508  0.59611789  1  0  0.100987  0  0.952852  0  0  0.115052  0  1.008117  0  0  0.117522  0  1.006608  0  0  0.107919  0.113338  0  1.00891  0
H  H11  1  0.36367621  0.63911692  0.42025706  1  0  0.109978  0  0.941073  0  0  0.123147  0  0.996304  0  0  0.126234  0  0.99507  0  0  0.112926  0.121076  0  0.996934  0
H  H12  1  0.54211599  0.65570549  0.28265496  1  0  0.119152  0  0.957333  0  0  0.129297  0  1.017113  0  0  0.133106  0  1.014476  0  0  0.113998  0.126414  0  1.019758  0
H  H13  1  0.76630661  0.65829254  0.14342147  1  0  0.107872  0  0.929984  0  0  0.119709  0  0.98599  0  0  0.122663  0  0.983556  0  0  0.117609  0.117314  0  0.987637  0
H  H14  1  0.00112949  0.52283536  0.24527834  1  0  0.125788  0  0.968115  0  0  0.138791  0  1.02333  0  0  0.142555  0  1.020972  0  0  0.111932  0.135993  0  1.025847  0
H  H15  1  0.18995392  0.41289457  0.35266547  1  0  0.125553  0  0.965529  0  0  0.13772  0  1.022556  0  0  0.141384  0  1.020501  0  0  0.110681  0.135163  0  1.023949  0
H  H16  1  0.39720361  0.25343991  0.48733417  1  0  0.118644  0  0.934733  0  0  0.134175  0  0.98418  0  0  0.137639  0  0.981318  0  0  0.111523  0.131547  0  0.986397  0
H  H17  1  0.35506533  0.11696777  0.72969012  1  0  0.106039  0  0.977701  0  0  0.112547  0  1.044851  0  0  0.116068  0  1.043616  0  0  0.108939  0.110314  0  1.045102  0
H  H18  1  0.10267323  0.15268281  0.82598503  1  0  0.100364  0  0.937403  0  0  0.110465  0  0.996192  0  0  0.113735  0  0.992867  0  0  0.124401  0.108009  0  0.998816  0
H  H19  1  0.17956500  0.21128593  0.14979160  1  0  0.10078  0  0.933595  0  0  0.110689  0  0.992324  0  0  0.113957  0  0.988895  0  0  0.124821  0.108231  0  0.99482  0
H  H20  1  0.93016901  0.23048151  0.25352117  1  0  0.109934  0  0.967447  0  0  0.118495  0  1.030136  0  0  0.122054  0  1.028974  0  0  0.110007  0.116174  0  1.030578  0
H  H21  1  0.89875139  0.08440932  0.49572999  1  0  0.120993  0  0.950323  0  0  0.137076  0  1.000041  0  0  0.14072  0  0.996985  0  0  0.110671  0.134376  0  1.002213  0
H  H22  1  0.11389602  0.93040296  0.62189045  1  0  0.108177  0  0.961961  0  0  0.116283  0  1.026766  0  0  0.11939  0  1.025386  0  0  0.111086  0.114131  0  1.027591  0
H  H23  1  0.30794475  0.81872227  0.72205987  1  0  0.11768  0  0.974681  0  0  0.127197  0  1.036942  0  0  0.131001  0  1.034824  0  0  0.109142  0.124477  0  1.038854  0
H  H24  1  0.54849387  0.68729888  0.81360917  1  0  0.108084  0  0.942524  0  0  0.119236  0  1.000921  0  0  0.122529  0  0.997965  0  0  0.11495  0.116736  0  1.00277  0
H  H25  1  0.76692936  0.70692017  0.66698638  1  0  0.12426  0  0.968583  0  0  0.134445  0  1.028769  0  0  0.1383  0  1.026248  0  0  0.112716  0.131605  0  1.031161  0
H  H26  1  0.93762957  0.72817872  0.52271674  1  0  0.119964  0  0.965396  0  0  0.134155  0  1.020085  0  0  0.137701  0  1.018005  0  0  0.108527  0.131511  0  1.021657  0
H  H27  1  0.12448683  0.76128851  0.33842120  1  0  0.094585  0  0.933459  0  0  0.109678  0  0.986115  0  0  0.111966  0  0.984875  0  0  0.109699  0.108072  0  0.986805  0
H  H28  1  0.05004991  0.93011662  0.11043482  1  0  0.118086  0  0.94303  0  0  0.127994  0  1.000352  0  0  0.131466  0  0.998485  0  0  0.117076  0.125367  0  1.001801  0
H  H29  1  0.79076000  0.05001448  0.07375445  1  0  0.090859  0  0.951101  0  0  0.097178  0  1.019317  0  0  0.100295  0  1.01621  0  0  0.121941  0.094932  0  1.021712  0
C  C30  1  0.45683775  0.39674487  0.77705307  1  0  0.15781  0  3.658202  0  0  0.128427  0  3.906332  0  0  0.13552  0  3.923458  0  0  0.066889  0.122359  0  3.895522  0
C  C31  1  0.31312152  0.46120049  0.74890562  1  0  -0.092039  0  3.687574  0  0  -0.105056  0  3.938009  0  0  -0.111357  0  3.959331  0  0  -0.068652  -0.099773  0  3.922557  0
C  C32  1  0.27877886  0.55081035  0.61969759  1  0  -0.007471  0  3.72275  0  0  -0.027673  0  3.975554  0  0  -0.025183  0  3.996198  0  0  -0.064771  -0.028477  0  3.960072  0
C  C33  1  0.38784295  0.57156672  0.52227937  1  0  -0.133851  0  3.701483  0  0  -0.153986  0  3.953773  0  0  -0.160795  0  3.975768  0  0  -0.075178  -0.149922  0  3.937576  0
C  C34  1  0.52945034  0.50308890  0.55759695  1  0  0.175136  0  3.760868  0  0  0.172102  0  3.999174  0  0  0.177779  0  4.021308  0  0  0.122952  0.168878  0  3.983218  0
C  C35  1  0.65369825  0.51689794  0.46237559  1  0  0.197763  0  3.754292  0  0  0.19193  0  3.99465  0  0  0.19889  0  4.014478  0  0  0.129589  0.188182  0  3.980117  0
C  C36  1  0.64439215  0.59523057  0.32710721  1  0  -0.106329  0  3.647511  0  0  -0.128057  0  3.89971  0  0  -0.132919  0  3.917316  0  0  -0.065981  -0.128612  0  3.890736  0
C  C37  1  0.77058873  0.59709067  0.24900235  1  0  0.027043  0  3.663456  0  0  0.006929  0  3.917784  0  0  0.010728  0  3.934816  0  0  -0.050634  0.006483  0  3.907637  0
C  C38  1  0.90228524  0.52137757  0.30566157  1  0  -0.123126  0  3.649169  0  0  -0.142471  0  3.894567  0  0  -0.14884  0  3.915003  0  0  -0.068984  -0.142825  0  3.885293  0
C  C39  1  0.90433076  0.44664302  0.44203354  1  0  0.189771  0  3.772114  0  0  0.183341  0  4.016615  0  0  0.189912  0  4.037983  0  0  0.126787  0.179317  0  4.002107  0
C  C40  1  0.03550090  0.36118267  0.51644295  1  0  0.161097  0  3.773072  0  0  0.156929  0  4.016634  0  0  0.162116  0  4.039678  0  0  0.115893  0.15436  0  3.999381  0
C  C41  1  0.17311084  0.35135408  0.45694033  1  0  -0.134651  0  3.678254  0  0  -0.153662  0  3.925605  0  0  -0.160813  0  3.947706  0  0  -0.076641  -0.1495  0  3.909264  0
C  C42  1  0.28966311  0.26192616  0.53351904  1  0  0.003801  0  3.695606  0  0  -0.014714  0  3.943045  0  0  -0.011351  0  3.961356  0  0  -0.06334  -0.016639  0  3.930307  0
C  C43  1  0.26605388  0.18660969  0.66726627  1  0  -0.114044  0  3.719137  0  0  -0.127908  0  3.97392  0  0  -0.135469  0  3.996841  0  0  -0.077246  -0.122202  0  3.957736  0
C  C44  1  0.12622693  0.20465273  0.72104337  1  0  0.141978  0  3.673536  0  0  0.110853  0  3.9249  0  0  0.117672  0  3.942614  0  0  0.058214  0.106065  0  3.912615  0
C  C45  1  0.16034886  0.15377477  0.25468610  1  0  0.144692  0  3.668848  0  0  0.113264  0  3.92169  0  0  0.120207  0  3.939081  0  0  0.061462  0.109053  0  3.909092  0
C  C46  1  0.02225549  0.16286726  0.31270103  1  0  -0.11059  0  3.707741  0  0  -0.12462  0  3.96223  0  0  -0.132046  0  3.984899  0  0  -0.076503  -0.119245  0  3.946412  0
C  C47  1  0.00472919  0.08190640  0.44628577  1  0  0.000653  0  3.688926  0  0  -0.018039  0  3.934858  0  0  -0.014935  0  3.953187  0  0  -0.062671  -0.019642  0  3.921999  0
C  C48  1  0.12558595  0.99560250  0.51795149  1  0  -0.128531  0  3.695888  0  0  -0.14807  0  3.946532  0  0  -0.154981  0  3.969178  0  0  -0.075358  -0.14419  0  3.930257  0
C  C49  1  0.26085661  0.99369787  0.45437516  1  0  0.157435  0  3.783405  0  0  0.154995  0  4.023019  0  0  0.160052  0  4.04599  0  0  0.115552  0.152328  0  4.00621  0
C  C50  1  0.39573561  0.90990322  0.52338549  1  0  0.190239  0  3.780315  0  0  0.184476  0  4.02212  0  0  0.191344  0  4.043265  0  0  0.125804  0.180127  0  4.007893  0
C  C51  1  0.40409661  0.82748632  0.65824898  1  0  -0.132788  0  3.663093  0  0  -0.152783  0  3.913111  0  0  -0.159678  0  3.934129  0  0  -0.072007  -0.151484  0  3.902252  0
C  C52  1  0.53890550  0.75413698  0.70928694  1  0  0.024232  0  3.667136  0  0  0.00355  0  3.922176  0  0  0.007407  0  3.939013  0  0  -0.053492  0.002545  0  3.91173  0
C  C53  1  0.66187152  0.76403433  0.62708030  1  0  -0.110161  0  3.635047  0  0  -0.131004  0  3.884792  0  0  -0.136253  0  3.902402  0  0  -0.066203  -0.130386  0  3.875222  0
C  C54  1  0.64610813  0.84816388  0.49326502  1  0  0.202828  0  3.745258  0  0  0.196441  0  3.986271  0  0  0.203878  0  4.005585  0  0  0.130477  0.19226  0  3.972376  0
C  C55  1  0.76564531  0.86625194  0.39308152  1  0  0.175026  0  3.756284  0  0  0.171426  0  3.995918  0  0  0.176602  0  4.018539  0  0  0.121802  0.168238  0  3.980235  0
C  C56  1  0.90857853  0.79585913  0.42187852  1  0  -0.143039  0  3.696317  0  0  -0.16393  0  3.946057  0  0  -0.170932  0  3.968297  0  0  -0.079586  -0.15965  0  3.930701  0
C  C57  1  0.01242964  0.81669299  0.31955390  1  0  0.005112  0  3.7198  0  0  -0.014273  0  3.972348  0  0  -0.011647  0  3.992596  0  0  -0.062535  -0.015498  0  3.957944  0
C  C58  1  0.97201900  0.90849550  0.19245322  1  0  -0.090847  0  3.680936  0  0  -0.103033  0  3.928195  0  0  -0.109026  0  3.9487  0  0  -0.068346  -0.098628  0  3.914437  0
C  C59  1  0.82739466  0.97619834  0.17142567  1  0  0.155821  0  3.667579  0  0  0.125143  0  3.917208  0  0  0.13214  0  3.934284  0  0  0.064455  0.119347  0  3.906726  0
N  N60  1  0.56164052  0.41832951  0.68365987  1  0  -0.357119  0  3.254159  0  0  -0.285118  0  3.512147  0  0  -0.303488  0  3.528898  0  0  -0.312078  -0.272183  0  3.50119  0
N  N61  1  0.78172955  0.44673704  0.51548177  1  0  -0.394039  0  3.323979  0  0  -0.323634  0  3.588316  0  0  -0.342056  0  3.60203  0  0  -0.325367  -0.309372  0  3.576969  0
N  N62  1  0.01369000  0.28957566  0.64716889  1  0  -0.361347  0  3.244797  0  0  -0.288847  0  3.508982  0  0  -0.307223  0  3.524807  0  0  -0.312306  -0.275933  0  3.497558  0
N  N63  1  0.27657318  0.07132537  0.32409730  1  0  -0.359955  0  3.256445  0  0  -0.288515  0  3.520428  0  0  -0.306591  0  3.536148  0  0  -0.313868  -0.275932  0  3.50879  0
N  N64  1  0.51534278  0.91780911  0.44604122  1  0  -0.392109  0  3.323058  0  0  -0.321551  0  3.587281  0  0  -0.339725  0  3.600372  0  0  -0.327524  -0.307928  0  3.576651  0
N  N65  1  0.72724099  0.95444472  0.26916195  1  0  -0.357487  0  3.254358  0  0  -0.284758  0  3.512794  0  0  -0.302913  0  3.529448  0  0  -0.313521  -0.272328  0  3.502004  0
O  O66  1  0.50720523  0.36465897  0.28995850  1  0  -0.751246  0  1.235351  0  0  -0.767659  0  1.467859  0  0  -0.798237  0  1.459461  0  0  -0.595726  -0.743797  0  1.477307  0
O  O67  1  0.74633259  0.03014207  0.66172766  1  0  -0.746936  0  1.235775  0  0  -0.7633  0  1.464301  0  0  -0.793291  0  1.456469  0  0  -0.596064  -0.740026  0  1.473902  0
O  O68  1  0.43947205  0.54988803  0.02621455  1  0  -0.98315  0  1.551193  0  0  -1.010169  0  1.844477  0  0  -1.05603  0  1.835454  0  0  -0.6792  -0.971813  0  1.854018  0
O  O69  1  0.86075237  0.82846114  0.90729240  1  0  -0.983157  0  1.53821  0  0  -1.010509  0  1.827539  0  0  -1.055844  0  1.81852  0  0  -0.681738  -0.971914  0  1.838251  0
O  O70  1  0.96662326  0.51722006  0.97835356  1  0  -0.970454  0  1.544575  0  0  -0.996508  0  1.837086  0  0  -1.040405  0  1.828269  0  0  -0.68306  -0.958218  0  1.847334  0
O  O71  1  0.30682777  0.84881687  0.00203008  1  0  -0.984759  0  1.558494  0  0  -1.007702  0  1.846854  0  0  -1.051224  0  1.836703  0  0  -0.693401  -0.970223  0  1.858805  0
O  O72  1  0.55378601  0.97834130  0.87690838  1  0  -1.01263  0  1.579765  0  0  -1.036363  0  1.877202  0  0  -1.084167  0  1.868857  0  0  -0.697674  -0.995238  0  1.887652  0
O  O73  1  0.79768709  0.44661050  0.82706184  1  0  -0.888589  0  1.549083  0  0  -0.882493  0  1.875978  0  0  -0.922371  0  1.860676  0  0  -0.615453  -0.85103  0  1.888447  0
O  O74  1  0.97905517  0.22803039  0.00216867  1  0  -0.72631  0  1.285141  0  0  -0.73508  0  1.529842  0  0  -0.76508  0  1.523308  0  0  -0.578141  -0.710755  0  1.538329  0
O  O75  1  0.31247853  0.13553195  0.97150557  1  0  -0.725091  0  1.268306  0  0  -0.732745  0  1.508981  0  0  -0.762188  0  1.502257  0  0  -0.578834  -0.708737  0  1.517403  0
O  O76  1  0.50588729  0.23272924  0.12139316  1  0  -0.879333  0  1.541  0  0  -0.868376  0  1.865888  0  0  -0.908446  0  1.847459  0  0  -0.611654  -0.837899  0  1.879685  0
O  O77  1  0.48324288  0.90977178  0.15129856  1  0  -0.88877  0  1.537303  0  0  -0.880755  0  1.853281  0  0  -0.91926  0  1.837451  0  0  -0.619376  -0.850041  0  1.866349  0
O  O78  1  0.73197540  0.37236833  0.10335511  1  0  -1.000072  0  1.57956  0  0  -1.0217  0  1.877537  0  0  -1.069872  0  1.869356  0  0  -0.694585  -0.980737  0  1.88734  0
O  O79  1  0.76990071  0.13941413  0.84107605  1  0  -0.878447  0  1.535789  0  0  -0.86671  0  1.857106  0  0  -0.906602  0  1.839542  0  0  -0.610558  -0.836259  0  1.871125  0
O  O80  1  0.99144328  0.71099063  0.72397783  1  0  -0.73593  0  1.314894  0  0  -0.752713  0  1.567834  0  0  -0.779409  0  1.561047  0  0  -0.57281  -0.731125  0  1.575538  0
O  O81  1  0.16981421  0.70437552  0.89836551  1  0  -0.982942  0  1.579727  0  0  -1.005792  0  1.870683  0  0  -1.048191  0  1.861338  0  0  -0.686288  -0.969631  0  1.880809  0
O  O82  1  0.19277146  0.61598629  0.16857751  1  0  -0.749024  0  1.312682  0  0  -0.771294  0  1.561834  0  0  -0.798213  0  1.554947  0  0  -0.574077  -0.749212  0  1.569371  0
