# generated using pymatgen
data_MnH12C16(NO2)2
_symmetry_space_group_name_H-M   'P 1'
_cell_length_a   10.40478930
_cell_length_b   9.16204218
_cell_length_c   17.73941662
_cell_angle_alpha   89.99662738
_cell_angle_beta   89.99805640
_cell_angle_gamma   96.16860959
_symmetry_Int_Tables_number   1
_chemical_formula_structural   MnH12C16(NO2)2
_chemical_formula_sum   'Mn4 H48 C64 N8 O16'
_cell_volume   1681.29154682
_cell_formula_units_Z   4
loop_
 _symmetry_equiv_pos_site_id
 _symmetry_equiv_pos_as_xyz
  1  'x, y, z'
loop_
 _atom_site_type_symbol
 _atom_site_label
 _atom_site_symmetry_multiplicity
 _atom_site_fract_x
 _atom_site_fract_y
 _atom_site_fract_z
 _atom_site_occupancy
 _atom_site_pbe_bader_charge
 _atom_site_pbe_bader_spin_density
 _atom_site_pbe_cm5_charge
 _atom_site_pbe_ddec_charge
 _atom_site_pbe_ddec_spin_density
 _atom_site_pbe_ddec_sum_bond_order
 _atom_site_pbe_magmom
Mn  Mn0  1  0.25168784  0.49987439  0.00116361  1  1.563251  4.449541  0.630723  0.968992  4.594326  2.440894  4.39
Mn  Mn1  1  0.74830513  0.00013130  0.50116727  1  1.563348  4.449369  0.630758  0.96899  4.594126  2.441115  4.39
Mn  Mn2  1  0.74830493  0.50012875  0.99883340  1  1.563287  4.449477  0.630767  0.969041  4.594216  2.440889  4.39
Mn  Mn3  1  0.25168736  0.99985432  0.49882917  1  1.563271  4.449478  0.630724  0.968835  4.594222  2.441186  4.39
H  H4  1  0.34471628  0.47398597  0.16949003  1  0.103017  0.001301  0.112755  0.074652  0.000632  1.060402  0.001
H  H5  1  0.65526629  0.02605676  0.66947255  1  0.106159  0.001303  0.112815  0.07469  0.000632  1.060323  0.001
H  H6  1  0.65527680  0.52602156  0.83052107  1  0.106587  0.001302  0.112739  0.074663  0.000632  1.060286  0.001
H  H7  1  0.34475732  0.97397474  0.33052559  1  0.106055  0.001303  0.112764  0.074601  0.000632  1.060228  0.001
H  H8  1  0.45386917  0.32205997  0.92452250  1  0.165785  0.00124  0.12004  0.097723  0.000168  1.05145  0.0
H  H9  1  0.54612504  0.17794471  0.42453240  1  0.165554  0.00124  0.120094  0.09778  0.000168  1.051502  0.0
H  H10  1  0.54611704  0.67793201  0.07547113  1  0.165455  0.00124  0.120158  0.097874  0.000168  1.051324  0.0
H  H11  1  0.45389197  0.82208877  0.57545897  1  0.165108  0.00124  0.120163  0.097825  0.000167  1.051516  0.0
H  H12  1  0.50966792  0.22583602  0.79973645  1  0.076423  0.000747  0.104559  0.111732  0.000359  1.009553  0.0
H  H13  1  0.49034752  0.27419421  0.29974203  1  0.077446  0.000747  0.104565  0.111755  0.000359  1.009345  0.0
H  H14  1  0.49032245  0.77413311  0.20026394  1  0.076561  0.000747  0.104627  0.111785  0.000359  1.009506  0.0
H  H15  1  0.50968105  0.72583963  0.70024934  1  0.076698  0.000747  0.104617  0.111791  0.000359  1.009381  0.0
H  H16  1  0.28905957  0.54788656  0.29975006  1  0.062766  0.000733  0.10958  0.119881  0.000365  0.99007  0.0
H  H17  1  0.71093859  0.95218995  0.79974271  1  0.062929  0.000733  0.109534  0.119854  0.000365  0.990001  0.0
H  H18  1  0.71094025  0.45212118  0.70025878  1  0.062799  0.000733  0.109557  0.119844  0.000365  0.990073  0.0
H  H19  1  0.28907845  0.04785776  0.20025881  1  0.062865  0.000733  0.109533  0.119837  0.000365  0.990048  0.0
H  H20  1  0.18428696  0.70889223  0.38316016  1  0.139783  0.000195  0.111059  0.121369  -0.000432  1.004641  0.0
H  H21  1  0.81572860  0.79118789  0.88316053  1  0.139522  0.000195  0.111042  0.121434  -0.000432  1.004555  0.0
H  H22  1  0.81570758  0.29110878  0.61685376  1  0.139997  0.000195  0.110974  0.12126  -0.000432  1.004712  0.0
H  H23  1  0.18428093  0.20884863  0.11684662  1  0.139767  0.000194  0.111009  0.121396  -0.000432  1.004654  0.0
H  H24  1  0.95066334  0.83918424  0.31354639  1  0.032309  0.000848  0.100265  0.105434  0.000295  1.043107  0.0
H  H25  1  0.04931338  0.66082900  0.81353353  1  0.032026  0.000848  0.100263  0.105354  0.000295  1.043097  0.0
H  H26  1  0.04933741  0.16080930  0.68646132  1  0.032016  0.000848  0.100219  0.105295  0.000295  1.04319  0.0
H  H27  1  0.95067083  0.33916183  0.18647024  1  0.032137  0.000848  0.100213  0.105266  0.000295  1.043241  0.0
H  H28  1  0.56747662  0.21817081  0.68468572  1  0.030638  0.000598  0.095229  0.099652  0.00014  1.059854  0.0
H  H29  1  0.43253040  0.28183481  0.18469725  1  0.030595  0.000598  0.095228  0.099558  0.00014  1.059952  0.0
H  H30  1  0.43252286  0.78181831  0.31531016  1  0.030793  0.000598  0.095199  0.099601  0.00014  1.059919  0.0
H  H31  1  0.56748900  0.71815056  0.81530145  1  0.030385  0.000598  0.095206  0.09967  0.00014  1.059756  0.0
H  H32  1  0.16217064  0.38273056  0.71177473  1  0.087729  0.000775  0.105451  0.115931  0.000395  1.012421  0.0
H  H33  1  0.83783168  0.11726704  0.21178082  1  0.087878  0.000775  0.105421  0.115871  0.000395  1.012567  0.0
H  H34  1  0.83785142  0.61727899  0.28820818  1  0.087972  0.000774  0.105448  0.115775  0.000395  1.012611  0.0
H  H35  1  0.16216383  0.88267925  0.78821224  1  0.088066  0.000774  0.105442  0.115934  0.000395  1.012537  0.0
H  H36  1  0.11346958  0.45733590  0.84303423  1  0.083303  0.001612  0.112711  0.07353  0.000889  1.050359  0.001
H  H37  1  0.88651733  0.04266158  0.34304405  1  0.083008  0.001613  0.112744  0.073491  0.00089  1.050378  0.001
H  H38  1  0.88654164  0.54269740  0.15694868  1  0.083405  0.001612  0.112732  0.073453  0.000889  1.050353  0.001
H  H39  1  0.11347401  0.95730758  0.65695127  1  0.083581  0.001612  0.112696  0.073467  0.000889  1.050341  0.001
H  H40  1  0.03748182  0.83895494  0.19862313  1  0.065205  0.000902  0.107352  0.116337  0.000484  1.000802  0.0
H  H41  1  0.96249866  0.66108439  0.69863582  1  0.065888  0.000901  0.107425  0.116413  0.000483  1.000678  0.0
H  H42  1  0.96251279  0.16104716  0.80139079  1  0.06536  0.000902  0.107441  0.116429  0.000484  1.000786  0.0
H  H43  1  0.03748601  0.33891301  0.30137866  1  0.065726  0.000902  0.107353  0.116289  0.000484  1.000676  0.0
H  H44  1  0.10232981  0.74979618  0.07354628  1  0.138439  0.001286  0.122076  0.100928  0.000296  1.007242  0.0
H  H45  1  0.89762528  0.75019287  0.57354943  1  0.138026  0.001286  0.122109  0.10091  0.000296  1.007202  0.0
H  H46  1  0.89765270  0.25019788  0.92646651  1  0.138356  0.001286  0.122023  0.10081  0.000296  1.007221  0.0
H  H47  1  0.10236467  0.24978390  0.42646111  1  0.138275  0.001286  0.12209  0.100847  0.000296  1.00734  0.0
H  H48  1  0.29265147  0.24734021  0.62562920  1  0.121146  0.000318  0.108651  0.118439  -0.000396  1.035981  0.0
H  H49  1  0.70736263  0.25269503  0.12563208  1  0.121979  0.000316  0.108691  0.118423  -0.000395  1.03607  0.0
H  H50  1  0.70734993  0.75264897  0.37436612  1  0.121059  0.000319  0.108618  0.118474  -0.000396  1.035939  0.0
H  H51  1  0.29264594  0.74728671  0.87435704  1  0.122312  0.000316  0.108588  0.11826  -0.000395  1.036221  0.0
C  C52  1  0.27714902  0.55471764  0.17876422  1  0.530735  0.007385  0.045078  0.091059  0.005818  3.99045  0.004
C  C53  1  0.72283203  0.94532391  0.67875667  1  0.501211  0.007434  0.04498  0.090778  0.005828  3.990553  0.004
C  C54  1  0.72284717  0.44529328  0.82124519  1  0.501404  0.007427  0.04499  0.090857  0.005824  3.990293  0.004
C  C55  1  0.27718132  0.05469849  0.32124654  1  0.501986  0.007435  0.045085  0.090987  0.005831  3.990287  0.004
C  C56  1  0.38997730  0.33010974  0.87617553  1  0.405685  0.005656  0.047814  0.090795  0.004073  3.936172  0.003
C  C57  1  0.61001566  0.16989228  0.37618340  1  0.4057  0.005658  0.047822  0.090832  0.004074  3.936049  0.003
C  C58  1  0.61001477  0.66988353  0.12381641  1  0.405718  0.005659  0.047782  0.090821  0.004075  3.936  0.003
C  C59  1  0.38999603  0.83012022  0.62380854  1  0.40624  0.005659  0.047797  0.090901  0.004075  3.935937  0.003
C  C60  1  0.42187328  0.27965259  0.80564212  1  -0.02743  0.005375  -0.08394  -0.171249  0.003996  3.933123  0.003
C  C61  1  0.57813054  0.22035889  0.30564790  1  -0.028428  0.00537  -0.08398  -0.171222  0.003992  3.933016  0.003
C  C62  1  0.57812411  0.72033428  0.19435263  1  -0.027483  0.005372  -0.084027  -0.171403  0.003994  3.933024  0.003
C  C63  1  0.42188693  0.77965380  0.69434291  1  -0.028159  0.005372  -0.084205  -0.17152  0.003994  3.933218  0.003
C  C64  1  0.24551760  0.59626240  0.25113861  1  -0.07604  0.006028  -0.087544  -0.190152  0.004581  3.95983  0.003
C  C65  1  0.75446744  0.90379256  0.75113450  1  -0.076186  0.006019  -0.08746  -0.189864  0.004575  3.959243  0.003
C  C66  1  0.75447725  0.40374300  0.74887136  1  -0.076309  0.006022  -0.087445  -0.189883  0.004576  3.959719  0.003
C  C67  1  0.24554451  0.09623747  0.24887040  1  -0.076793  0.00602  -0.087523  -0.190056  0.004575  3.959587  0.003
C  C68  1  0.12088398  0.73883725  0.33784512  1  -0.103388  0.025618  -0.083239  -0.103668  0.019992  3.977432  0.015
C  C69  1  0.87912053  0.76122904  0.83784294  1  -0.10419  0.025595  -0.083165  -0.103811  0.019973  3.977615  0.015
C  C70  1  0.87911256  0.26116491  0.66216767  1  -0.103368  0.025602  -0.08318  -0.1035  0.01998  3.977587  0.015
C  C71  1  0.12088237  0.23879522  0.16216422  1  -0.103744  0.025596  -0.083133  -0.103728  0.019974  3.977583  0.015
C  C72  1  0.01859879  0.81015067  0.35647411  1  -0.028186  0.00426  -0.092426  -0.228775  0.001936  3.924901  0.0
C  C73  1  0.98139304  0.68988935  0.85646546  1  -0.026618  0.004271  -0.092371  -0.228611  0.001946  3.925082  0.0
C  C74  1  0.98139552  0.18984704  0.64353699  1  -0.027311  0.004264  -0.092298  -0.228598  0.00194  3.924858  0.0
C  C75  1  0.01860331  0.31012376  0.14354000  1  -0.027257  0.004271  -0.092303  -0.22858  0.001948  3.925134  0.0
C  C76  1  0.48622937  0.21180800  0.64548828  1  -0.042605  0.001232  -0.097073  -0.23472  -0.00063  3.923797  -0.001
C  C77  1  0.51377550  0.28819739  0.14549583  1  -0.042897  0.001233  -0.096972  -0.234352  -0.000628  3.923921  -0.001
C  C78  1  0.51377096  0.78816582  0.35450591  1  -0.043001  0.001235  -0.0969  -0.234412  -0.000628  3.923953  -0.001
C  C79  1  0.48623195  0.71178213  0.85449610  1  -0.043251  0.001234  -0.096966  -0.234684  -0.000629  3.92375  -0.001
C  C80  1  0.22866426  0.36505063  0.75754145  1  -0.075506  0.004495  -0.087209  -0.186195  0.00336  3.939938  0.002
C  C81  1  0.77133173  0.13494696  0.25754530  1  -0.075499  0.004489  -0.087293  -0.186166  0.003356  3.940018  0.002
C  C82  1  0.77134408  0.63495520  0.24244710  1  -0.075891  0.004492  -0.087514  -0.186407  0.003358  3.940236  0.002
C  C83  1  0.22866940  0.86502470  0.74244720  1  -0.075856  0.004492  -0.08745  -0.186568  0.003358  3.940056  0.002
C  C84  1  0.20178971  0.40857496  0.83039446  1  0.532153  0.006785  0.046949  0.093539  0.005319  3.980365  0.004
C  C85  1  0.79820068  0.09142352  0.33040114  1  0.532413  0.006787  0.046979  0.093533  0.005321  3.98019  0.004
C  C86  1  0.79821681  0.59144614  0.16959071  1  0.53185  0.006789  0.047172  0.09384  0.005322  3.980038  0.004
C  C87  1  0.20179594  0.90855237  0.66959249  1  0.531873  0.006787  0.047151  0.093758  0.005322  3.980307  0.004
C  C88  1  0.10525458  0.75648562  0.19560054  1  -0.039634  0.007476  -0.085655  -0.183902  0.005611  3.950696  0.004
C  C89  1  0.89472618  0.74355254  0.69560410  1  -0.039661  0.007468  -0.085848  -0.184145  0.005606  3.950594  0.004
C  C90  1  0.89474219  0.24351984  0.80441169  1  -0.039416  0.007469  -0.085791  -0.183955  0.005607  3.950522  0.004
C  C91  1  0.10526667  0.25645170  0.30440475  1  -0.039385  0.007468  -0.085674  -0.183757  0.005606  3.950433  0.004
C  C92  1  0.15542835  0.69833936  0.26161943  1  -0.019138  0.007182  0.003099  0.137894  0.005335  4.027156  0.003
C  C93  1  0.84456258  0.80172108  0.76161830  1  -0.018887  0.007194  0.003085  0.137903  0.005344  4.026806  0.003
C  C94  1  0.84457363  0.30167174  0.73839223  1  -0.018819  0.007189  0.003007  0.137453  0.00534  4.027475  0.003
C  C95  1  0.15543704  0.19829761  0.23838829  1  -0.018718  0.007198  0.002979  0.137753  0.005346  4.027145  0.003
C  C96  1  0.14233406  0.70914067  0.12525714  1  0.482477  0.005387  0.051486  0.095155  0.003897  3.943939  0.003
C  C97  1  0.85763090  0.79086990  0.62525741  1  0.483253  0.005399  0.051564  0.095229  0.003906  3.943594  0.003
C  C98  1  0.85765878  0.29086356  0.87475452  1  0.482493  0.005394  0.051591  0.095209  0.003903  3.943483  0.003
C  C99  1  0.14236333  0.20912672  0.37474974  1  0.482728  0.005402  0.05154  0.09515  0.003909  3.943504  0.003
C  C100  1  0.34176491  0.29827257  0.74324354  1  0.006666  0.005838  0.004561  0.142878  0.004324  4.021321  0.003
C  C101  1  0.65824045  0.20173880  0.24324869  1  0.006576  0.005839  0.004666  0.142915  0.004325  4.021399  0.003
C  C102  1  0.65824273  0.70172338  0.25674839  1  0.006793  0.005841  0.004643  0.143047  0.004327  4.021229  0.003
C  C103  1  0.34176627  0.79824398  0.75674155  1  0.006735  0.005842  0.004865  0.143247  0.004326  4.020964  0.003
C  C104  1  0.37063105  0.25094359  0.66722748  1  -0.028309  0.021489  -0.077517  -0.083299  0.016856  3.9461  0.012
C  C105  1  0.62937986  0.24907450  0.16723214  1  -0.028923  0.021478  -0.07767  -0.083552  0.016847  3.946212  0.012
C  C106  1  0.62937197  0.74904126  0.33276615  1  -0.028073  0.021483  -0.077608  -0.083583  0.016852  3.946106  0.012
C  C107  1  0.37063057  0.75090621  0.83275754  1  -0.028674  0.021488  -0.077638  -0.083358  0.016855  3.946036  0.012
C  C108  1  0.98512825  0.84393014  0.43567444  1  1.556797  0.034234  0.215453  0.626087  0.031531  4.186695  0.028
C  C109  1  0.01485956  0.65608902  0.93566549  1  1.557671  0.034209  0.215587  0.626494  0.031516  4.186522  0.028
C  C110  1  0.01485457  0.15606830  0.56433384  1  1.557534  0.034213  0.215704  0.626549  0.031521  4.186528  0.028
C  C111  1  0.98514130  0.34391985  0.06433772  1  1.557831  0.034211  0.215563  0.626549  0.031519  4.186656  0.028
C  C112  1  0.51515182  0.16407484  0.56795017  1  1.544933  0.032728  0.215574  0.626879  0.03032  4.180415  0.027
C  C113  1  0.48484500  0.33593296  0.06795894  1  1.545418  0.032714  0.215531  0.626728  0.030316  4.180683  0.027
C  C114  1  0.48484784  0.83590334  0.43204233  1  1.545416  0.032717  0.215481  0.626764  0.03032  4.180603  0.027
C  C115  1  0.51514804  0.66406034  0.93203694  1  1.545454  0.032726  0.215684  0.627117  0.030325  4.180469  0.027
N  N116  1  0.22652635  0.60825253  0.11605767  1  -1.252394  0.049206  -0.312074  -0.246016  0.034754  3.461339  0.019
N  N117  1  0.77343982  0.89176003  0.61605380  1  -1.227326  0.04917  -0.312134  -0.245915  0.034746  3.461201  0.019
N  N118  1  0.77346553  0.39175168  0.88395174  1  -1.227429  0.04917  -0.312013  -0.245707  0.034741  3.461105  0.019
N  N119  1  0.22656250  0.10824232  0.38395110  1  -1.22749  0.049169  -0.312143  -0.245854  0.034744  3.460997  0.019
N  N120  1  0.28092537  0.39365406  0.88909792  1  -1.260775  0.049074  -0.315092  -0.241548  0.03428  3.490796  0.019
N  N121  1  0.71906041  0.10633580  0.38910458  1  -1.260639  0.049054  -0.315164  -0.241605  0.034269  3.490673  0.019
N  N122  1  0.71907267  0.60635582  0.11089006  1  -1.260524  0.049073  -0.315172  -0.241626  0.034279  3.490822  0.019
N  N123  1  0.28093898  0.89365223  0.61088848  1  -1.260505  0.049053  -0.315188  -0.241601  0.034268  3.490808  0.019
O  O124  1  0.63444209  0.14952922  0.55492350  1  -1.195057  0.06983  -0.315253  -0.571723  0.050766  2.314229  0.034
O  O125  1  0.36555472  0.35048398  0.05494022  1  -1.194636  0.069821  -0.31517  -0.571564  0.050764  2.314136  0.034
O  O126  1  0.36555797  0.85045445  0.44506956  1  -1.194925  0.069853  -0.315169  -0.571695  0.05077  2.314016  0.034
O  O127  1  0.63443623  0.64950706  0.94506299  1  -1.194563  0.06984  -0.315282  -0.571781  0.050777  2.314234  0.034
O  O128  1  0.42483422  0.14354487  0.51944110  1  -1.198744  0.064396  -0.310191  -0.558849  0.04625  2.321045  0.031
O  O129  1  0.57515945  0.35646027  0.01944171  1  -1.199315  0.064402  -0.310253  -0.558971  0.046254  2.321179  0.031
O  O130  1  0.57516923  0.85643234  0.48055027  1  -1.199082  0.064391  -0.310186  -0.558805  0.046246  2.321161  0.031
O  O131  1  0.42482599  0.64354811  0.98055023  1  -1.199268  0.064405  -0.31028  -0.559032  0.046254  2.321144  0.031
O  O132  1  0.07314686  0.85945477  0.48560741  1  -1.189928  0.068025  -0.310672  -0.560456  0.04905  2.293865  0.034
O  O133  1  0.92684106  0.64055334  0.98560221  1  -1.190784  0.068038  -0.310715  -0.56066  0.049037  2.293731  0.034
O  O134  1  0.92683122  0.14054462  0.51440482  1  -1.190766  0.06805  -0.310753  -0.560662  0.049048  2.293865  0.034
O  O135  1  0.07316373  0.35945675  0.01440325  1  -1.191002  0.068044  -0.310668  -0.560638  0.049039  2.29388  0.034
O  O136  1  0.86443303  0.85030894  0.44814181  1  -1.192285  0.058304  -0.312586  -0.568267  0.041176  2.317047  0.024
O  O137  1  0.13555419  0.64969512  0.94812566  1  -1.19243  0.058287  -0.312692  -0.568493  0.04118  2.317059  0.024
O  O138  1  0.13554725  0.14968066  0.55186140  1  -1.192524  0.05829  -0.312764  -0.568527  0.041182  2.316923  0.024
O  O139  1  0.86444814  0.35030723  0.05187247  1  -1.192358  0.058277  -0.312669  -0.568478  0.041179  2.317111  0.024
