# generated using pymatgen
data_ZnH10C15N8O
_symmetry_space_group_name_H-M   'P 1'
_cell_length_a   9.00033031
_cell_length_b   12.49556500
_cell_length_c   13.83580000
_cell_angle_alpha   107.93008660
_cell_angle_beta   90.00000000
_cell_angle_gamma   90.00000000
_symmetry_Int_Tables_number   1
_chemical_formula_structural   ZnH10C15N8O
_chemical_formula_sum   'Zn4 H40 C60 N32 O4'
_cell_volume   1480.46033614
_cell_formula_units_Z   4
loop_
 _symmetry_equiv_pos_site_id
 _symmetry_equiv_pos_as_xyz
  1  'x, y, z'
loop_
 _atom_site_type_symbol
 _atom_site_label
 _atom_site_symmetry_multiplicity
 _atom_site_fract_x
 _atom_site_fract_y
 _atom_site_fract_z
 _atom_site_occupancy
 _atom_site_hle17_bader_spin_density
 _atom_site_hle17_ddec_charge
 _atom_site_hle17_ddec_spin_density
 _atom_site_hle17_ddec_sum_bond_order
 _atom_site_hle17_magmom
 _atom_site_hse06_10hf_bader_spin_density
 _atom_site_hse06_10hf_ddec_charge
 _atom_site_hse06_10hf_ddec_spin_density
 _atom_site_hse06_10hf_ddec_sum_bond_order
 _atom_site_hse06_10hf_magmom
 _atom_site_hse06_bader_spin_density
 _atom_site_hse06_ddec_charge
 _atom_site_hse06_ddec_spin_density
 _atom_site_hse06_ddec_sum_bond_order
 _atom_site_hse06_magmom
 _atom_site_pbe_bader_charge
 _atom_site_pbe_bader_spin_density
 _atom_site_pbe_cm5_charge
 _atom_site_pbe_ddec_charge
 _atom_site_pbe_ddec_spin_density
 _atom_site_pbe_ddec_sum_bond_order
 _atom_site_pbe_magmom
Zn  Zn0  1  0.56342710  0.43635753  0.88329816  1  0  0.909952  0  1.994669  0  0  0.713309  0  2.447318  0  0  0.756272  0  2.402585  0  1.287143  0  0.698255  0.682854  0  2.478332  0
Zn  Zn1  1  0.06342767  0.56364236  0.61670094  1  0  0.909939  0  1.994729  0  0  0.713292  0  2.447374  0  0  0.756255  0  2.402642  0  1.287142  0  0.698243  0.68284  0  2.478391  0
Zn  Zn2  1  0.43657287  0.56364151  0.11670143  1  0  0.909906  0  1.994764  0  0  0.713275  0  2.447397  0  0  0.756238  0  2.402666  0  1.287132  0  0.69823  0.682821  0  2.478413  0
Zn  Zn3  1  0.93657340  0.43635669  0.38329793  1  0  0.909916  0  1.994766  0  0  0.713275  0  2.447406  0  0  0.756235  0  2.402675  0  1.287136  0  0.698238  0.682821  0  2.478421  0
H  H4  1  0.75867327  0.75386346  0.09386740  1  0  0.095743  0  0.953069  0  0  0.109725  0  1.009151  0  0  0.11284  0  1.008332  0  0.040081  0  0.094401  0.107589  0  1.009699  0
H  H5  1  0.25867495  0.24613474  0.40613268  1  0  0.095717  0  0.953106  0  0  0.109687  0  1.009206  0  0  0.1128  0  1.008391  0  0.040095  0  0.094394  0.107552  0  1.009751  0
H  H6  1  0.24132781  0.24613558  0.90613146  1  0  0.095752  0  0.953079  0  0  0.109729  0  1.009168  0  0  0.112843  0  1.008351  0  0.040144  0  0.094409  0.107593  0  1.009714  0
H  H7  1  0.74132724  0.75386262  0.59386789  1  0  0.095753  0  0.953036  0  0  0.109746  0  1.009111  0  0  0.11286  0  1.008293  0  0.04013  0  0.094415  0.10761  0  1.009658  0
H  H8  1  0.76759405  0.94379690  0.07021305  1  0  0.077387  0  0.957309  0  0  0.090878  0  1.015226  0  0  0.093322  0  1.014137  0  0.056406  0  0.092649  0.089063  0  1.015903  0
H  H9  1  0.26759685  0.05620215  0.42978798  1  0  0.077381  0  0.957187  0  0  0.090881  0  1.015099  0  0  0.093327  0  1.014009  0  0.056411  0  0.092651  0.089068  0  1.015778  0
H  H10  1  0.23240480  0.05620215  0.92978726  1  0  0.077396  0  0.957231  0  0  0.09087  0  1.015171  0  0  0.093315  0  1.014081  0  0.056412  0  0.092644  0.089054  0  1.015849  0
H  H11  1  0.73240534  0.94379690  0.57021378  1  0  0.077394  0  0.957203  0  0  0.09087  0  1.015145  0  0  0.093314  0  1.014055  0  0.056616  0  0.092636  0.089055  0  1.015823  0
H  H12  1  0.61724068  0.98235791  0.93267767  1  0  0.09128  0  0.989574  0  0  0.096612  0  1.058653  0  0  0.099744  0  1.057708  0  0.064628  0  0.09281  0.094351  0  1.059554  0
H  H13  1  0.11724014  0.01764282  0.56732383  1  0  0.091265  0  0.989563  0  0  0.096616  0  1.058629  0  0  0.099749  0  1.057683  0  0.064452  0  0.092823  0.094362  0  1.059523  0
H  H14  1  0.38275929  0.01764282  0.06732383  1  0  0.091249  0  0.989598  0  0  0.096596  0  1.058667  0  0  0.099726  0  1.057725  0  0.064178  0  0.092815  0.094346  0  1.059558  0
H  H15  1  0.88275982  0.98235707  0.43267672  1  0  0.091283  0  0.98958  0  0  0.096613  0  1.058664  0  0  0.099745  0  1.057719  0  0.064644  0  0.092811  0.09436  0  1.059557  0
H  H16  1  0.45835096  0.83049427  0.82224930  1  0  0.090214  0  0.957109  0  0  0.099614  0  1.021616  0  0  0.103047  0  1.018862  0  0.063467  0  0.095883  0.097109  0  1.023454  0
H  H17  1  0.95834927  0.16950478  0.67774884  1  0  0.090203  0  0.957121  0  0  0.099602  0  1.021627  0  0  0.103034  0  1.018875  0  0.063473  0  0.095887  0.097096  0  1.023466  0
H  H18  1  0.54164901  0.16950646  0.17775076  1  0  0.090198  0  0.957122  0  0  0.099597  0  1.021631  0  0  0.103028  0  1.018879  0  0.063464  0  0.095877  0.097091  0  1.023469  0
H  H19  1  0.04164958  0.83049342  0.32224907  1  0  0.090202  0  0.957111  0  0  0.0996  0  1.021624  0  0  0.103033  0  1.018871  0  0.06347  0  0.095881  0.097094  0  1.023463  0
H  H20  1  0.35191375  0.26741631  0.71712711  1  0  0.089665  0  0.938671  0  0  0.091399  0  1.01266  0  0  0.094483  0  1.009529  0  0.145678  0  0.122738  0.089179  0  1.014864  0
H  H21  1  0.85191318  0.73258441  0.78287150  1  0  0.089686  0  0.938639  0  0  0.091423  0  1.012628  0  0  0.094507  0  1.009497  0  0.14557  0  0.122755  0.089201  0  1.014832  0
H  H22  1  0.64808621  0.73258694  0.28287437  1  0  0.089689  0  0.93865  0  0  0.091422  0  1.01265  0  0  0.094506  0  1.009521  0  0.145568  0  0.122757  0.089219  0  1.014837  0
H  H23  1  0.14808457  0.26741379  0.21712568  1  0  0.089658  0  0.938647  0  0  0.091405  0  1.012656  0  0  0.094489  0  1.009528  0  0.145702  0  0.12275  0.089213  0  1.014831  0
H  H24  1  0.33220003  0.05274676  0.64510533  1  0  0.119259  0  1.000556  0  0  0.117323  0  1.079727  0  0  0.121575  0  1.077882  0  0.192023  0  0.1091  0.114152  0  1.081405  0
H  H25  1  0.83220057  0.94725312  0.85489378  1  0  0.119236  0  1.000563  0  0  0.117275  0  1.079759  0  0  0.121525  0  1.077918  0  0.191765  0  0.109081  0.114114  0  1.081428  0
H  H26  1  0.66779549  0.94725480  0.35489497  1  0  0.119246  0  1.000573  0  0  0.117302  0  1.079746  0  0  0.121554  0  1.0779  0  0.192011  0  0.109095  0.114131  0  1.081423  0
H  H27  1  0.16779495  0.05274424  0.14510535  1  0  0.119267  0  1.00057  0  0  0.117316  0  1.079743  0  0  0.121568  0  1.077898  0  0.192025  0  0.109093  0.114144  0  1.081421  0
H  H28  1  0.52177641  0.93945411  0.70273911  1  0  0.07809  0  0.927309  0  0  0.086538  0  0.988294  0  0  0.08907  0  0.985957  0  0.082592  0  0.118759  0.084637  0  0.990206  0
H  H29  1  0.02177587  0.06054830  0.79726286  1  0  0.078136  0  0.927193  0  0  0.086578  0  0.988186  0  0  0.089113  0  0.985847  0  0.082568  0  0.118772  0.084675  0  0.990099  0
H  H30  1  0.47822134  0.06054745  0.29726118  1  0  0.078126  0  0.927228  0  0  0.086564  0  0.988224  0  0  0.089099  0  0.985885  0  0.082567  0  0.11877  0.084662  0  0.990137  0
H  H31  1  0.97822076  0.93944991  0.20273866  1  0  0.078125  0  0.927181  0  0  0.08657  0  0.988175  0  0  0.089105  0  0.985837  0  0.082544  0  0.118766  0.084667  0  0.990087  0
H  H32  1  0.02364024  0.18729648  0.03439839  1  0  0.066253  0  0.961105  0  0  0.07668  0  1.023142  0  0  0.078018  0  1.022778  0  0.092963  0  0.113128  0.075434  0  1.023768  0
H  H33  1  0.52364078  0.81270425  0.46560167  1  0  0.066231  0  0.961128  0  0  0.076663  0  1.023156  0  0  0.077999  0  1.022793  0  0.092951  0  0.113116  0.075417  0  1.023779  0
H  H34  1  0.97636083  0.81270341  0.96560071  1  0  0.066257  0  0.961087  0  0  0.076685  0  1.023121  0  0  0.07802  0  1.022759  0  0.092936  0  0.113137  0.075441  0  1.023739  0
H  H35  1  0.47636029  0.18729816  0.53439958  1  0  0.066252  0  0.961105  0  0  0.07668  0  1.023131  0  0  0.078014  0  1.022771  0  0.092965  0  0.11312  0.075438  0  1.023744  0
H  H36  1  0.02959225  0.39850812  0.10565823  1  0  0.126538  0  0.954605  0  0  0.130599  0  1.019571  0  0  0.133876  0  1.019701  0  0.123294  0  0.114669  0.128509  0  1.019204  0
H  H37  1  0.52959167  0.60149261  0.39434110  1  0  0.126552  0  0.954572  0  0  0.130614  0  1.019538  0  0  0.133893  0  1.019667  0  0.123321  0  0.114671  0.128524  0  1.019171  0
H  H38  1  0.97040994  0.60149177  0.89434015  1  0  0.126522  0  0.954613  0  0  0.130633  0  1.019518  0  0  0.133912  0  1.019646  0  0.123212  0  0.114681  0.128543  0  1.019152  0
H  H39  1  0.47040940  0.39850980  0.60565870  1  0  0.126525  0  0.954635  0  0  0.130624  0  1.019548  0  0  0.133901  0  1.019679  0  0.123192  0  0.114683  0.128534  0  1.019182  0
H  H40  1  0.82301979  0.50561663  0.04527713  1  0  0.095561  0  0.922767  0  0  0.102029  0  0.986996  0  0  0.105168  0  0.98397  0  0.149727  0  0.125601  0.099598  0  0.989234  0
H  H41  1  0.32301814  0.49438494  0.45472244  1  0  0.095542  0  0.922692  0  0  0.10201  0  0.986941  0  0  0.105146  0  0.983914  0  0.149764  0  0.12558  0.099578  0  0.989179  0
H  H42  1  0.17698239  0.49438326  0.95472125  1  0  0.095562  0  0.922745  0  0  0.102035  0  0.986978  0  0  0.105172  0  0.983949  0  0.149734  0  0.125607  0.099605  0  0.989216  0
H  H43  1  0.67698293  0.50561747  0.54527736  1  0  0.095557  0  0.922752  0  0  0.102034  0  0.986984  0  0  0.105171  0  0.983956  0  0.149725  0  0.125602  0.099603  0  0.989222  0
C  C44  1  0.60252344  0.68469521  0.97365252  1  0  0.327073  0  3.856926  0  0  0.304556  0  4.121741  0  0  0.318828  0  4.138556  0  0.62183  0  0.07123  0.294028  0  4.110251  0
C  C45  1  0.10252401  0.31530468  0.52634730  1  0  0.327056  0  3.856979  0  0  0.304551  0  4.121786  0  0  0.31882  0  4.1386  0  0.621824  0  0.07122  0.294025  0  4.110296  0
C  C46  1  0.39747652  0.31530636  0.02634777  1  0  0.327049  0  3.856955  0  0  0.304503  0  4.12179  0  0  0.318776  0  4.138602  0  0.621838  0  0.071203  0.293979  0  4.110299  0
C  C47  1  0.89747706  0.68469353  0.47365205  1  0  0.32703  0  3.856907  0  0  0.304486  0  4.121744  0  0  0.318759  0  4.138559  0  0.621698  0  0.071202  0.29396  0  4.110254  0
C  C48  1  0.69345122  0.77223302  0.03440027  1  0  -0.217166  0  3.78012  0  0  -0.234245  0  4.0384  0  0  -0.242583  0  4.061689  0  -0.051669  0  -0.123718  -0.229241  0  4.022323  0
C  C49  1  0.19345290  0.22776687  0.46560099  1  0  -0.217118  0  3.780164  0  0  -0.234188  0  4.038447  0  0  -0.242525  0  4.061735  0  -0.05163  0  -0.123696  -0.229185  0  4.022368  0
C  C50  1  0.30654875  0.22776771  0.96560051  1  0  -0.217188  0  3.780188  0  0  -0.234258  0  4.03847  0  0  -0.242598  0  4.06176  0  -0.051673  0  -0.123722  -0.229253  0  4.022384  0
C  C51  1  0.80654929  0.77223134  0.53440053  1  0  -0.21715  0  3.779996  0  0  -0.234236  0  4.038279  0  0  -0.242573  0  4.061567  0  -0.051668  0  -0.123707  -0.229231  0  4.022196  0
C  C52  1  0.69837326  0.87769795  0.02065091  1  0  -0.060339  0  3.82452  0  0  -0.074745  0  4.074527  0  0  -0.073333  0  4.095969  0  -0.117069  0  -0.104471  -0.074116  0  4.05909  0
C  C53  1  0.19837272  0.12230278  0.47935060  1  0  -0.060339  0  3.8244  0  0  -0.074753  0  4.074418  0  0  -0.07334  0  4.095859  0  -0.117095  0  -0.104459  -0.074127  0  4.058987  0
C  C54  1  0.30162782  0.12230278  0.97934987  1  0  -0.060319  0  3.824505  0  0  -0.07471  0  4.074513  0  0  -0.073298  0  4.095952  0  -0.1171  0  -0.104434  -0.07408  0  4.059076  0
C  C55  1  0.80162836  0.87769711  0.52064995  1  0  -0.060311  0  3.824366  0  0  -0.074702  0  4.07437  0  0  -0.07329  0  4.095811  0  -0.11729  0  -0.104424  -0.074073  0  4.058934  0
C  C56  1  0.61426412  0.89998888  0.94388408  1  0  -0.119181  0  3.833895  0  0  -0.128897  0  4.084749  0  0  -0.134626  0  4.108172  0  -0.018425  0  -0.117435  -0.125862  0  4.068915  0
C  C57  1  0.11426247  0.10001185  0.55611670  1  0  -0.1192  0  3.833918  0  0  -0.128938  0  4.084784  0  0  -0.134669  0  4.108209  0  -0.018262  0  -0.11748  -0.125909  0  4.068945  0
C  C58  1  0.38573584  0.10001185  0.05611814  1  0  -0.119186  0  3.833988  0  0  -0.128912  0  4.084837  0  0  -0.134645  0  4.108269  0  -0.017923  0  -0.117468  -0.125887  0  4.068993  0
C  C59  1  0.88573638  0.89998804  0.44388241  1  0  -0.119219  0  3.833994  0  0  -0.128933  0  4.084845  0  0  -0.134667  0  4.108277  0  -0.018382  0  -0.117462  -0.125905  0  4.069004  0
C  C60  1  0.52604847  0.81514775  0.88204306  1  0  -0.074849  0  3.762221  0  0  -0.098225  0  4.008746  0  0  -0.096758  0  4.028586  0  -0.027851  0  -0.096704  -0.097735  0  3.994072  0
C  C61  1  0.02604793  0.18485214  0.61795677  1  0  -0.074791  0  3.762244  0  0  -0.098155  0  4.008774  0  0  -0.096689  0  4.028611  0  -0.027845  0  -0.096687  -0.097665  0  3.994099  0
C  C62  1  0.47395149  0.18485214  0.11795749  1  0  -0.074826  0  3.762292  0  0  -0.098207  0  4.008811  0  0  -0.096742  0  4.02865  0  -0.027846  0  -0.096702  -0.097719  0  3.99414  0
C  C63  1  0.97395092  0.81514691  0.38204282  1  0  -0.074825  0  3.762363  0  0  -0.098213  0  4.008883  0  0  -0.096749  0  4.028727  0  -0.027875  0  -0.096712  -0.097723  0  3.99421  0
C  C64  1  0.51760323  0.70792401  0.89510754  1  0  -0.138338  0  3.779921  0  0  -0.12223  0  4.020829  0  0  -0.130223  0  4.044901  0  -0.024293  0  -0.034467  -0.117432  0  4.004474  0
C  C65  1  0.01760269  0.29207504  0.60489132  1  0  -0.138369  0  3.779965  0  0  -0.122286  0  4.020912  0  0  -0.130278  0  4.044984  0  -0.024342  0  -0.034468  -0.117486  0  4.004554  0
C  C66  1  0.48239674  0.29207504  0.10489205  1  0  -0.138304  0  3.779943  0  0  -0.122154  0  4.020819  0  0  -0.130147  0  4.044889  0  -0.024335  0  -0.034444  -0.117356  0  4.004462  0
C  C67  1  0.98239617  0.70792401  0.39510682  1  0  -0.138328  0  3.780031  0  0  -0.122197  0  4.020879  0  0  -0.13019  0  4.044951  0  -0.024321  0  -0.034475  -0.1174  0  4.004524  0
C  C68  1  0.41722913  0.62598059  0.82899694  1  0  0.292081  0  3.796246  0  0  0.2679  0  4.062316  0  0  0.279651  0  4.078406  0  0.933095  0  0.206712  0.260082  0  4.051793  0
C  C69  1  0.91722967  0.37401930  0.67100143  1  0  0.292091  0  3.796265  0  0  0.267882  0  4.062369  0  0  0.279637  0  4.078459  0  0.93311  0  0.206694  0.260064  0  4.051844  0
C  C70  1  0.58276972  0.37401930  0.17100216  1  0  0.292053  0  3.796317  0  0  0.267836  0  4.062413  0  0  0.279588  0  4.078501  0  0.933085  0  0.206687  0.260018  0  4.051888  0
C  C71  1  0.08277252  0.62598059  0.32899767  1  0  0.292  0  3.796346  0  0  0.267867  0  4.06232  0  0  0.27962  0  4.078408  0  0.933101  0  0.206747  0.26005  0  4.051795  0
C  C72  1  0.42899981  0.21054714  0.73809688  1  0  0.181395  0  3.642928  0  0  0.146695  0  3.895634  0  0  0.156041  0  3.911225  0  0.452733  0  0.07431  0.140721  0  3.88498  0
C  C73  1  0.92899924  0.78945358  0.76190246  1  0  0.181358  0  3.642949  0  0  0.146647  0  3.895664  0  0  0.155991  0  3.911256  0  0.452794  0  0.074277  0.140673  0  3.885013  0
C  C74  1  0.57100015  0.78945358  0.26190174  1  0  0.181369  0  3.642992  0  0  0.146674  0  3.895699  0  0  0.156019  0  3.911292  0  0.452751  0  0.074292  0.140686  0  3.885039  0
C  C75  1  0.07099628  0.21054630  0.23809592  1  0  0.181361  0  3.642825  0  0  0.146598  0  3.895603  0  0  0.155941  0  3.911198  0  0.452627  0  0.074209  0.140601  0  3.884937  0
C  C76  1  0.41889129  0.09394222  0.69822565  1  0  -0.161919  0  3.689988  0  0  -0.17418  0  3.944101  0  0  -0.184683  0  3.965279  0  -0.022871  0  -0.072994  -0.167233  0  3.930011  0
C  C77  1  0.91889072  0.90605767  0.80177128  1  0  -0.161893  0  3.690025  0  0  -0.174124  0  3.944148  0  0  -0.184627  0  3.965329  0  -0.02263  0  -0.072965  -0.167187  0  3.930047  0
C  C78  1  0.58110867  0.90605767  0.30177200  1  0  -0.161867  0  3.690042  0  0  -0.174115  0  3.944135  0  0  -0.184618  0  3.965316  0  -0.022808  0  -0.072971  -0.167169  0  3.930048  0
C  C79  1  0.08110702  0.09394390  0.19822684  1  0  -0.161915  0  3.690032  0  0  -0.174136  0  3.944153  0  0  -0.184638  0  3.965329  0  -0.02282  0  -0.072956  -0.167191  0  3.930068  0
C  C80  1  0.52367522  0.03121117  0.73148602  1  0  0.181882  0  3.680056  0  0  0.151856  0  3.940521  0  0  0.160888  0  3.955212  0  0.534297  0  0.074082  0.146014  0  3.930373  0
C  C81  1  0.02367580  0.96878955  0.76851259  1  0  0.181904  0  3.679977  0  0  0.151884  0  3.940425  0  0  0.160912  0  3.955119  0  0.534407  0  0.074124  0.146042  0  3.930277  0
C  C82  1  0.47632363  0.96879040  0.26851210  1  0  0.181855  0  3.679962  0  0  0.151844  0  3.940407  0  0  0.160873  0  3.955102  0  0.534328  0  0.074079  0.146003  0  3.930258  0
C  C83  1  0.97632306  0.03120949  0.23148700  1  0  0.181871  0  3.679845  0  0  0.151848  0  3.940296  0  0  0.160875  0  3.954992  0  0.534366  0  0.074085  0.146005  0  3.930147  0
C  C84  1  0.62902136  0.19082756  0.83501082  1  0  0.312775  0  3.737098  0  0  0.287184  0  3.998509  0  0  0.299617  0  4.011941  0  1.142332  0  0.260568  0.278953  0  3.988922  0
C  C85  1  0.12902304  0.80917316  0.66498996  1  0  0.312803  0  3.737102  0  0  0.287187  0  3.998542  0  0  0.299619  0  4.011977  0  1.142349  0  0.260576  0.278956  0  3.988955  0
C  C86  1  0.37097638  0.80917232  0.16498900  1  0  0.312876  0  3.737128  0  0  0.287263  0  3.99857  0  0  0.299701  0  4.011998  0  1.142189  0  0.260577  0.279031  0  3.988983  0
C  C87  1  0.87097692  0.19082672  0.33501203  1  0  0.312838  0  3.737166  0  0  0.287255  0  3.998592  0  0  0.299689  0  4.01202  0  1.142327  0  0.260577  0.279023  0  3.989004  0
C  C88  1  0.74147168  0.24681018  0.91351919  1  0  0.310253  0  3.745013  0  0  0.287879  0  4.003166  0  0  0.300364  0  4.016805  0  1.090728  0  0.259713  0.279569  0  3.993466  0
C  C89  1  0.24147447  0.75319055  0.58648159  1  0  0.310196  0  3.745016  0  0  0.287844  0  4.003169  0  0  0.300324  0  4.016816  0  1.090732  0  0.259699  0.279535  0  3.993468  0
C  C90  1  0.25852718  0.75318803  0.08648017  1  0  0.310205  0  3.745077  0  0  0.287899  0  4.003162  0  0  0.300377  0  4.016814  0  1.090847  0  0.259739  0.27959  0  3.993462  0
C  C91  1  0.75852772  0.24681018  0.41351991  1  0  0.310216  0  3.745067  0  0  0.287813  0  4.003263  0  0  0.300294  0  4.016911  0  1.090733  0  0.259692  0.279503  0  3.993561  0
C  C92  1  0.94163655  0.23877144  0.01116488  1  0  0.177429  0  3.688975  0  0  0.148634  0  3.946337  0  0  0.157915  0  3.961736  0  0.594092  0  0.069411  0.142497  0  3.935767  0
C  C93  1  0.44163712  0.76122928  0.48883518  1  0  0.177442  0  3.688975  0  0  0.148644  0  3.946343  0  0  0.157925  0  3.961742  0  0.594097  0  0.06941  0.142508  0  3.935776  0
C  C94  1  0.05836230  0.76122928  0.98883518  1  0  0.177454  0  3.688939  0  0  0.148658  0  3.94632  0  0  0.15794  0  3.961719  0  0.594124  0  0.069372  0.142522  0  3.935754  0
C  C95  1  0.55836173  0.23877144  0.51116416  1  0  0.177423  0  3.689004  0  0  0.148636  0  3.946355  0  0  0.157919  0  3.961751  0  0.594154  0  0.069393  0.1425  0  3.935792  0
C  C96  1  0.94507976  0.35588694  0.05101688  1  0  -0.149279  0  3.657161  0  0  -0.162755  0  3.914486  0  0  -0.173023  0  3.935756  0  -0.075886  0  -0.073382  -0.15637  0  3.899585  0
C  C97  1  0.44507922  0.64411463  0.44898341  1  0  -0.14927  0  3.657186  0  0  -0.162725  0  3.914491  0  0  -0.172995  0  3.935761  0  -0.07627  0  -0.073345  -0.15634  0  3.899588  0
C  C98  1  0.05492354  0.64411379  0.94898317  1  0  -0.149287  0  3.65714  0  0  -0.162791  0  3.914447  0  0  -0.173061  0  3.935717  0  -0.076186  0  -0.073347  -0.156405  0  3.899546  0
C  C99  1  0.55492186  0.35588694  0.55101688  1  0  -0.149317  0  3.657215  0  0  -0.16282  0  3.914548  0  0  -0.173089  0  3.935816  0  -0.0764  0  -0.073383  -0.156434  0  3.899647  0
C  C100  1  0.83471159  0.41432903  0.01805437  1  0  0.194377  0  3.636718  0  0  0.152563  0  3.89623  0  0  0.162561  0  3.911358  0  0.494606  0  0.07287  0.146553  0  3.885865  0
C  C101  1  0.33471105  0.58567253  0.48194520  1  0  0.19439  0  3.636711  0  0  0.152555  0  3.89627  0  0  0.162559  0  3.911396  0  0.494963  0  0.072886  0.146545  0  3.885904  0
C  C102  1  0.16529060  0.58567085  0.98194690  1  0  0.194398  0  3.636655  0  0  0.152574  0  3.896209  0  0  0.16258  0  3.911332  0  0.495042  0  0.072858  0.146565  0  3.885844  0
C  C103  1  0.66529114  0.41432903  0.51805509  1  0  0.194427  0  3.636655  0  0  0.152592  0  3.896204  0  0  0.162595  0  3.911329  0  0.495175  0  0.072867  0.146582  0  3.885838  0
N  N104  1  0.41069382  0.51415331  0.81712691  1  0  -0.333664  0  3.229592  0  0  -0.267099  0  3.530781  0  0  -0.283426  0  3.541531  0  -0.763676  0  -0.242117  -0.256259  0  3.523709  0
N  N105  1  0.91069435  0.48584574  0.68287196  1  0  -0.333677  0  3.229664  0  0  -0.267057  0  3.530804  0  0  -0.283397  0  3.541567  0  -0.763724  0  -0.242106  -0.256219  0  3.523735  0
N  N106  1  0.58930726  0.48584658  0.18287219  1  0  -0.333643  0  3.229643  0  0  -0.267046  0  3.530803  0  0  -0.283378  0  3.541562  0  -0.763674  0  -0.242095  -0.256207  0  3.523733  0
N  N107  1  0.08930783  0.51415415  0.31712787  1  0  -0.33364  0  3.229542  0  0  -0.267071  0  3.53069  0  0  -0.283401  0  3.541441  0  -0.763652  0  -0.242128  -0.256233  0  3.523621  0
N  N108  1  0.30119228  0.47101736  0.75022966  1  0  -0.102279  0  2.94864  0  0  -0.100268  0  3.23973  0  0  -0.098759  0  3.251734  0  -0.130463  0  -0.107339  -0.10147  0  3.231865  0
N  N109  1  0.80119282  0.52898337  0.74977040  1  0  -0.102347  0  2.948684  0  0  -0.100361  0  3.239787  0  0  -0.098848  0  3.251792  0  -0.130473  0  -0.107374  -0.101561  0  3.231921  0
N  N110  1  0.69880880  0.52898337  0.24977040  1  0  -0.102351  0  2.948637  0  0  -0.100352  0  3.239734  0  0  -0.098843  0  3.251739  0  -0.130486  0  -0.107377  -0.101554  0  3.231873  0
N  N111  1  0.19881048  0.47101652  0.25022942  1  0  -0.102316  0  2.948591  0  0  -0.100312  0  3.239683  0  0  -0.098801  0  3.251684  0  -0.130502  0  -0.10736  -0.101514  0  3.231823  0
N  N112  1  0.24411882  0.55520324  0.72339922  1  0  -0.114283  0  3.228801  0  0  -0.066793  0  3.541208  0  0  -0.072688  0  3.554607  0  -0.210502  0  -0.107386  -0.062316  0  3.5322  0
N  N113  1  0.74411936  0.44479748  0.77660011  1  0  -0.114188  0  3.228734  0  0  -0.066696  0  3.541141  0  0  -0.07259  0  3.554538  0  -0.210465  0  -0.107336  -0.06222  0  3.532132  0
N  N114  1  0.75588115  0.44479664  0.27659988  1  0  -0.114182  0  3.228727  0  0  -0.066687  0  3.541123  0  0  -0.072583  0  3.554522  0  -0.210478  0  -0.10734  -0.062211  0  3.532114  0
N  N115  1  0.25588283  0.55520240  0.22339971  1  0  -0.114258  0  3.228819  0  0  -0.066773  0  3.541236  0  0  -0.072667  0  3.554634  0  -0.210543  0  -0.107378  -0.062296  0  3.532227  0
N  N116  1  0.31306740  0.65238467  0.77017290  1  0  -0.315057  0  2.947394  0  0  -0.298316  0  3.225052  0  0  -0.308738  0  3.240878  0  -0.673664  0  -0.233586  -0.291596  0  3.214619  0
N  N117  1  0.81306794  0.34761606  0.72982644  1  0  -0.31507  0  2.947337  0  0  -0.298321  0  3.225009  0  0  -0.308743  0  3.240834  0  -0.673619  0  -0.233586  -0.291601  0  3.214575  0
N  N118  1  0.68693257  0.34761606  0.22982644  1  0  -0.315079  0  2.947368  0  0  -0.298331  0  3.225036  0  0  -0.308752  0  3.240861  0  -0.67363  0  -0.233592  -0.291611  0  3.214602  0
N  N119  1  0.18693536  0.65238299  0.27017315  1  0  -0.314981  0  2.947439  0  0  -0.298255  0  3.225075  0  0  -0.308677  0  3.2409  0  -0.673616  0  -0.233554  -0.291535  0  3.214641  0
N  N120  1  0.73323753  0.35933139  0.94992698  1  0  -0.353644  0  3.256406  0  0  -0.281901  0  3.517894  0  0  -0.300685  0  3.53244  0  -1.219017  0  -0.307195  -0.269679  0  3.508036  0
N  N121  1  0.23323922  0.64066934  0.55007380  1  0  -0.353573  0  3.256407  0  0  -0.281851  0  3.517922  0  0  -0.300636  0  3.53247  0  -1.219009  0  -0.307194  -0.269631  0  3.508066  0
N  N122  1  0.26676354  0.64066765  0.05007478  1  0  -0.353614  0  3.25648  0  0  -0.281922  0  3.517996  0  0  -0.300703  0  3.532536  0  -1.219092  0  -0.307218  -0.269702  0  3.508144  0
N  N123  1  0.76676408  0.35933139  0.44992625  1  0  -0.353638  0  3.256391  0  0  -0.281898  0  3.517913  0  0  -0.300682  0  3.532459  0  -1.219044  0  -0.307186  -0.269677  0  3.508056  0
N  N124  1  0.53436483  0.25890402  0.80608724  1  0  -0.354737  0  3.235421  0  0  -0.283893  0  3.502089  0  0  -0.301892  0  3.514746  0  -1.218325  0  -0.303936  -0.27165  0  3.493026  0
N  N125  1  0.03436429  0.74109671  0.69391282  1  0  -0.354741  0  3.235463  0  0  -0.283888  0  3.502138  0  0  -0.301884  0  3.514792  0  -1.2183  0  -0.303929  -0.271644  0  3.493076  0
N  N126  1  0.46563513  0.74109671  0.19391282  1  0  -0.354789  0  3.235498  0  0  -0.283983  0  3.502216  0  0  -0.301981  0  3.51487  0  -1.218178  0  -0.303957  -0.27174  0  3.493163  0
N  N127  1  0.96563234  0.25890402  0.30608868  1  0  -0.354747  0  3.23536  0  0  -0.283887  0  3.502047  0  0  -0.301884  0  3.514704  0  -1.218228  0  -0.303867  -0.271644  0  3.492994  0
N  N128  1  0.62906358  0.07862850  0.79961485  1  0  -0.33344  0  3.024232  0  0  -0.297495  0  3.288388  0  0  -0.311159  0  3.302296  0  -1.222212  0  -0.291605  -0.287969  0  3.278822  0
N  N129  1  0.12906637  0.92137138  0.70038570  1  0  -0.333508  0  3.024332  0  0  -0.297543  0  3.288481  0  0  -0.311208  0  3.302391  0  -1.222259  0  -0.291644  -0.288018  0  3.278913  0
N  N130  1  0.37093194  0.92137138  0.20038498  1  0  -0.333497  0  3.024275  0  0  -0.297551  0  3.288438  0  0  -0.311219  0  3.302348  0  -1.222274  0  -0.291603  -0.288025  0  3.278871  0
N  N131  1  0.87093359  0.07862850  0.29961557  1  0  -0.333487  0  3.024252  0  0  -0.297534  0  3.288399  0  0  -0.311199  0  3.302309  0  -1.222288  0  -0.29162  -0.288008  0  3.278831  0
N  N132  1  0.84150578  0.18328005  0.94223237  1  0  -0.339527  0  3.000004  0  0  -0.304436  0  3.261158  0  0  -0.317805  0  3.273449  0  -1.194985  0  -0.29701  -0.295454  0  3.252524  0
N  N133  1  0.34150747  0.81672151  0.55776936  1  0  -0.339563  0  3.000018  0  0  -0.304473  0  3.261175  0  0  -0.317841  0  3.273465  0  -1.195028  0  -0.297047  -0.295493  0  3.25254  0
N  N134  1  0.15849307  0.81671983  0.05776817  1  0  -0.339543  0  2.999976  0  0  -0.304468  0  3.261116  0  0  -0.317836  0  3.273408  0  -1.194971  0  -0.297019  -0.295488  0  3.252482  0
N  N135  1  0.65849361  0.18328005  0.44223310  1  0  -0.339505  0  3.000031  0  0  -0.304404  0  3.261194  0  0  -0.317772  0  3.273486  0  -1.194992  0  -0.297002  -0.295425  0  3.25256  0
O  O136  1  0.59648589  0.58753481  0.99431122  1  0  -0.649479  0  2.147746  0  0  -0.566485  0  2.43286  0  0  -0.592877  0  2.421963  0  -1.190822  0  -0.353544  -0.546493  0  2.439438  0
O  O137  1  0.09648646  0.41246508  0.50568860  1  0  -0.649475  0  2.147765  0  0  -0.566465  0  2.432859  0  0  -0.592853  0  2.421962  0  -1.190835  0  -0.353542  -0.546483  0  2.439447  0
O  O138  1  0.40351408  0.41246592  0.00568883  1  0  -0.64949  0  2.147769  0  0  -0.566467  0  2.432864  0  0  -0.592865  0  2.421979  0  -1.190892  0  -0.353538  -0.546487  0  2.43945  0
O  O139  1  0.90351462  0.58753313  0.49431148  1  0  -0.64949  0  2.147721  0  0  -0.566488  0  2.432843  0  0  -0.59288  0  2.421943  0  -1.190708  0  -0.353559  -0.546502  0  2.439425  0
