# generated using pymatgen
data_Cu2H32C43(NO4)4
_symmetry_space_group_name_H-M   'P 1'
_cell_length_a   8.06788933
_cell_length_b   16.88655878
_cell_length_c   17.12950646
_cell_angle_alpha   90.00009146
_cell_angle_beta   90.00005716
_cell_angle_gamma   90.00001137
_symmetry_Int_Tables_number   1
_chemical_formula_structural   Cu2H32C43(NO4)4
_chemical_formula_sum   'Cu4 H64 C86 N8 O32'
_cell_volume   2333.70489999
_cell_formula_units_Z   2
loop_
 _symmetry_equiv_pos_site_id
 _symmetry_equiv_pos_as_xyz
  1  'x, y, z'
loop_
 _atom_site_type_symbol
 _atom_site_label
 _atom_site_symmetry_multiplicity
 _atom_site_fract_x
 _atom_site_fract_y
 _atom_site_fract_z
 _atom_site_occupancy
 _atom_site_pbe_bader_charge
 _atom_site_pbe_bader_spin_density
 _atom_site_pbe_cm5_charge
 _atom_site_pbe_ddec_charge
 _atom_site_pbe_ddec_spin_density
 _atom_site_pbe_ddec_sum_bond_order
 _atom_site_pbe_magmom
Cu  Cu0  1  0.18329795  0.19070325  0.84407063  1  1.09446  0.573983  0.745396  0.795844  0.748177  2.280118  0.572
Cu  Cu1  1  0.18329611  0.80929705  0.15592928  1  1.094346  0.57396  0.745397  0.795826  0.748149  2.280119  0.572
Cu  Cu2  1  0.81670391  0.69070198  0.65592973  1  1.094314  0.573716  0.745353  0.795728  0.747828  2.280164  0.572
Cu  Cu3  1  0.81670598  0.30929838  0.34406989  1  1.094349  -0.573676  0.745357  0.795743  -0.793681  2.280117  -0.572
H  H4  1  0.41894084  0.51297144  0.87510102  1  0.118722  3e-06  0.111253  0.093133  1.1e-05  1.024901  0.0
H  H5  1  0.41894128  0.48702889  0.12489842  1  0.11873  -1.1e-05  0.111266  0.09317  -2.5e-05  1.024887  0.0
H  H6  1  0.58105846  0.01297120  0.62489906  1  0.118711  1.1e-05  0.111257  0.093148  1.6e-05  1.024941  0.0
H  H7  1  0.58105840  0.98702855  0.37510162  1  0.118729  1.8e-05  0.111258  0.093146  2.5e-05  1.024915  0.0
H  H8  1  0.25424600  0.45639511  0.91935382  1  0.077756  -2.9e-05  0.106828  0.079947  -2.3e-05  0.99672  0.0
H  H9  1  0.25424761  0.54360580  0.08064613  1  0.077746  2.7e-05  0.106825  0.079956  5e-06  0.996713  0.0
H  H10  1  0.74575348  0.95639430  0.58064638  1  0.077749  -2.7e-05  0.106819  0.079953  -2.1e-05  0.996706  0.0
H  H11  1  0.74575312  0.04360488  0.41935380  1  0.077758  -2.7e-05  0.106832  0.079958  -4e-06  0.996719  0.0
H  H12  1  0.48996424  0.40679223  0.76741017  1  0.091414  8.2e-05  0.101815  0.104201  4.1e-05  1.023855  0.0
H  H13  1  0.48996495  0.59320811  0.23258989  1  0.091422  -7.7e-05  0.10182  0.104202  -2.3e-05  1.023847  0.0
H  H14  1  0.51003275  0.90679165  0.73258937  1  0.091336  6.4e-05  0.1018  0.104189  3.1e-05  1.023853  0.0
H  H15  1  0.51003085  0.09320810  0.26741070  1  0.091407  5.9e-05  0.101801  0.104194  1e-05  1.023845  0.0
H  H16  1  0.78980455  0.48612086  0.57382913  1  0.151841  -1e-05  0.111565  0.129455  1.2e-05  1.020526  0.0
H  H17  1  0.78980564  0.51387891  0.42617165  1  0.151602  8e-06  0.111549  0.129446  -1.7e-05  1.020541  0.0
H  H18  1  0.21019619  0.98612056  0.92617170  1  0.151846  4.2e-05  0.111559  0.129443  7e-06  1.020537  0.0
H  H19  1  0.21019632  0.01387916  0.07382764  1  0.151616  4.3e-05  0.111562  0.129452  9e-06  1.020536  0.0
H  H20  1  0.61142700  0.24635738  0.58063528  1  0.089974  -0.000519  0.10363  0.108914  -0.00047  1.030642  0.0
H  H21  1  0.61142818  0.75364296  0.41936542  1  0.089961  0.000524  0.103641  0.108915  0.000449  1.03069  0.0
H  H22  1  0.38857364  0.74635768  0.91936517  1  0.089969  0.000536  0.103633  0.108946  0.000455  1.030678  0.0
H  H23  1  0.38857513  0.25364205  0.08063484  1  0.089971  0.00053  0.103637  0.10893  0.00045  1.030685  0.0
H  H24  1  0.04441518  0.56493508  0.68150112  1  0.124676  0.001826  0.13056  0.105697  0.000822  0.967967  0.001
H  H25  1  0.04441601  0.43506522  0.31849873  1  0.124668  -0.001824  0.130552  0.105691  -0.000884  0.96797  -0.001
H  H26  1  0.95558538  0.06493519  0.81849846  1  0.124682  0.001822  0.130564  0.10571  0.00082  0.967959  0.001
H  H27  1  0.95558489  0.93506519  0.18150123  1  0.124673  0.001821  0.130555  0.105707  0.00082  0.96797  0.001
H  H28  1  0.61238707  0.41182346  0.04573150  1  0.083244  -4.4e-05  0.113784  0.095933  -2e-05  0.978667  0.0
H  H29  1  0.61238807  0.58817688  0.95426803  1  0.083227  -5e-05  0.113812  0.095948  -2.9e-05  0.978658  0.0
H  H30  1  0.38761258  0.91182323  0.45426900  1  0.083247  -5.1e-05  0.113787  0.095932  -3e-05  0.978647  0.0
H  H31  1  0.38761251  0.08817651  0.54573217  1  0.08323  4.7e-05  0.113812  0.095951  2.2e-05  0.978667  0.0
H  H32  1  0.46817313  0.37464849  0.97503667  1  0.081342  5.4e-05  0.114123  0.091943  5.2e-05  0.979479  0.0
H  H33  1  0.46817341  0.62535125  0.02496338  1  0.081343  4.7e-05  0.114116  0.09196  4.6e-05  0.979468  0.0
H  H34  1  0.53182633  0.87464875  0.52496340  1  0.081338  4.1e-05  0.114119  0.091931  4.4e-05  0.979489  0.0
H  H35  1  0.53182612  0.12535099  0.47503726  1  0.081361  -4.7e-05  0.11413  0.091974  -5.3e-05  0.979465  0.0
H  H36  1  0.23306313  0.51451045  0.78507328  1  0.096032  0.000851  0.115778  0.13439  0.000441  1.009277  0.0
H  H37  1  0.23306252  0.48548986  0.21492665  1  0.096026  -0.000806  0.115775  0.134385  -0.000427  1.009294  0.0
H  H38  1  0.76693741  0.01451038  0.71492680  1  0.096036  0.000852  0.115783  0.134398  0.000441  1.009287  0.0
H  H39  1  0.76693839  0.98548939  0.28507338  1  0.096141  0.000805  0.115761  0.134349  0.000403  1.009337  0.0
H  H40  1  0.86760961  0.74401079  0.82434678  1  0.10418  0.001917  0.122144  0.093107  0.00091  0.992082  0.001
H  H41  1  0.86760882  0.25598899  0.17565345  1  0.10418  -0.001905  0.122146  0.093118  -0.000955  0.992059  -0.001
H  H42  1  0.13239103  0.24401119  0.67565308  1  0.103946  0.001908  0.122144  0.093117  0.0009  0.992053  0.001
H  H43  1  0.13239077  0.75598911  0.32434622  1  0.104181  0.001916  0.122142  0.093124  0.00091  0.992058  0.001
H  H44  1  0.04427170  0.69916393  0.93648931  1  0.113354  0.000829  0.116547  0.142011  0.000401  0.995766  0.0
H  H45  1  0.04427193  0.30083636  0.06351054  1  0.113356  -0.000898  0.116548  0.142013  -0.000511  0.995763  0.0
H  H46  1  0.95572768  0.19916364  0.56351049  1  0.113352  0.000899  0.116554  0.142036  0.000484  0.995735  0.0
H  H47  1  0.95572891  0.80083615  0.43648920  1  0.113361  0.000829  0.116553  0.142022  0.000402  0.995756  0.0
H  H48  1  0.11857345  0.36012435  0.79954115  1  0.090253  0.00261  0.118346  0.090724  0.00124  1.000516  0.002
H  H49  1  0.11857287  0.63987595  0.20045873  1  0.090262  0.00259  0.118356  0.090746  0.001225  1.000499  0.002
H  H50  1  0.88142724  0.86012434  0.70045831  1  0.09026  0.002608  0.11835  0.090736  0.001238  1.000525  0.002
H  H51  1  0.88142667  0.13987603  0.29954135  1  0.090262  -0.00259  0.118354  0.090737  -0.001302  1.000495  -0.002
H  H52  1  0.90503695  0.46351256  0.83510695  1  0.15432  0.001168  0.109039  0.130139  0.000613  1.025423  0.001
H  H53  1  0.90503873  0.53648663  0.16489330  1  0.154308  0.001182  0.109022  0.130114  0.000632  1.025437  0.001
H  H54  1  0.09496254  0.96351242  0.66489267  1  0.154325  0.001168  0.109034  0.130154  0.000613  1.025452  0.001
H  H55  1  0.09496200  0.03648728  0.33510720  1  0.154318  -0.00118  0.109035  0.130138  -0.000667  1.025425  -0.001
H  H56  1  0.88363982  0.19036107  0.93390409  1  0.184247  0.002545  0.123731  0.105317  0.001241  1.010599  0.002
H  H57  1  0.88363779  0.80963752  0.06609557  1  0.184264  0.002548  0.123737  0.105333  0.001242  1.010599  0.002
H  H58  1  0.11636079  0.69036137  0.56609511  1  0.184224  0.002547  0.123729  0.105318  0.001241  1.010609  0.002
H  H59  1  0.11636181  0.30963834  0.43390477  1  0.184228  -0.002543  0.123733  0.105314  -0.00132  1.010599  -0.002
H  H60  1  0.66161775  0.28407765  0.97486034  1  0.108836  0.001104  0.118943  0.14361  0.000591  0.997951  0.001
H  H61  1  0.66161684  0.71592211  0.02513980  1  0.108835  0.001109  0.118944  0.143643  0.000595  0.997904  0.001
H  H62  1  0.33838290  0.78407730  0.52513959  1  0.108829  0.001101  0.118942  0.14359  0.000588  0.99796  0.001
H  H63  1  0.33838273  0.21592243  0.47486040  1  0.108829  -0.001095  0.118931  0.143596  -0.000617  0.997969  -0.001
H  H64  1  0.41993217  0.13076554  0.70946489  1  0.654671  6.6e-05  0.287885  0.350715  6.8e-05  1.006375  0.0
H  H65  1  0.41993312  0.86923479  0.29053513  1  0.654668  5.6e-05  0.287865  0.350694  6.2e-05  1.006396  0.0
H  H66  1  0.58006594  0.63076743  0.79053538  1  0.654687  5.8e-05  0.287867  0.350694  6.2e-05  1.006394  0.0
H  H67  1  0.58006899  0.36923232  0.20946472  1  0.654676  -4.8e-05  0.287846  0.35065  -5.8e-05  1.006449  0.0
C  C68  1  0.44066412  0.50000027  0.99999954  1  0.058739  3.8e-05  -0.017475  0.057268  2e-05  3.830699  0.0
C  C69  1  0.55933538  0.99999991  0.50000015  1  0.058739  2.9e-05  -0.017479  0.057261  1.6e-05  3.830778  0.0
C  C70  1  0.54323952  0.31952630  0.67874556  1  -0.057715  0.000433  -0.027208  -0.060043  0.00036  4.016898  0.0
C  C71  1  0.54324046  0.68047404  0.32125452  1  -0.057713  -0.000369  -0.027219  -0.060094  -0.000327  4.016849  0.0
C  C72  1  0.45675867  0.81952704  0.82125500  1  -0.05773  0.000732  -0.027166  -0.059967  0.000415  4.016755  0.0
C  C73  1  0.45676034  0.18047329  0.17874445  1  -0.057734  0.000677  -0.027175  -0.060049  0.000363  4.016818  0.0
C  C74  1  0.33630962  0.50807942  0.92598104  1  0.354581  0.000132  -0.06274  -0.044888  7.7e-05  3.832145  0.0
C  C75  1  0.33630871  0.49192091  0.07401894  1  0.354594  -0.000137  -0.062803  -0.045021  -9.5e-05  3.832152  0.0
C  C76  1  0.66368968  0.00807911  0.57401962  1  0.354905  0.000145  -0.062755  -0.04497  8.7e-05  3.832185  0.0
C  C77  1  0.66369097  0.99192065  0.42598110  1  0.354593  0.000168  -0.062788  -0.044982  0.000108  3.832122  0.0
C  C78  1  0.71123255  0.36402374  0.56983006  1  -0.018744  -0.008113  -0.015797  -0.019376  -0.006046  3.970153  -0.006
C  C79  1  0.71123370  0.63597661  0.43017068  1  -0.01875  0.008163  -0.015738  -0.019459  0.005737  3.970211  0.006
C  C80  1  0.28876814  0.86402405  0.93017057  1  -0.018282  0.00771  -0.015758  -0.019362  0.005406  3.969958  0.006
C  C81  1  0.28876956  0.13597686  0.06982939  1  -0.018288  0.007662  -0.015766  -0.019439  0.005377  3.970057  0.006
C  C82  1  0.55111648  0.39529606  0.71184056  1  -0.023644  0.00297  -0.077354  -0.100269  0.001942  3.938392  0.002
C  C83  1  0.55111607  0.60470369  0.28816010  1  -0.023646  -0.003116  -0.077337  -0.100229  -0.002144  3.938458  -0.002
C  C84  1  0.44887803  0.89529675  0.78815779  1  -0.023678  0.00239  -0.077338  -0.100286  0.001531  3.938394  0.001
C  C85  1  0.44887849  0.10470299  0.21184225  1  -0.023688  0.002538  -0.077343  -0.100287  0.001612  3.938368  0.002
C  C86  1  0.72004159  0.43942398  0.60305233  1  -0.006618  9.2e-05  -0.063873  -0.081353  2.1e-05  3.863896  0.0
C  C87  1  0.72004140  0.56057638  0.39694842  1  -0.00661  -0.000292  -0.06391  -0.08138  -0.000248  3.863946  0.0
C  C88  1  0.27996284  0.93942541  0.89694725  1  -0.006838  0.002585  -0.063917  -0.081385  0.00173  3.863712  0.002
C  C89  1  0.27996182  0.06057549  0.10305270  1  -0.006687  0.002786  -0.063923  -0.081391  0.001865  3.863729  0.002
C  C90  1  0.62108012  0.30465170  0.60720585  1  -0.034652  0.001437  -0.076705  -0.101497  0.000762  3.938494  0.001
C  C91  1  0.62108246  0.69534865  0.39279368  1  -0.034641  -0.001657  -0.076712  -0.101421  -0.001009  3.938536  -0.001
C  C92  1  0.37892054  0.80465136  0.89279410  1  -0.034685  0.0017  -0.076719  -0.101564  0.001282  3.938609  0.001
C  C93  1  0.37892082  0.19534896  0.10720648  1  -0.034692  0.00192  -0.076709  -0.101472  0.001425  3.938647  0.001
C  C94  1  0.44977396  0.25472509  0.71825101  1  1.541506  -0.000324  0.224681  0.594283  -0.000236  4.151296  0.0
C  C95  1  0.44977236  0.74527465  0.28174962  1  1.541507  -0.000655  0.224684  0.594303  -0.000482  4.151188  -0.001
C  C96  1  0.55022544  0.75472518  0.78174829  1  1.541535  -0.000283  0.224656  0.594233  -0.00023  4.151102  0.0
C  C97  1  0.55022969  0.24527338  0.21825179  1  1.541786  0.000696  0.224656  0.594251  0.000457  4.151106  0.001
C  C98  1  0.77063259  0.38276852  0.90982705  1  0.506637  -0.00321  0.109573  0.309689  -0.002318  4.048004  -0.002
C  C99  1  0.77063301  0.61723125  0.09017314  1  0.506628  -0.003191  0.10953  0.309585  -0.002308  4.04806  -0.002
C  C100  1  0.22936811  0.88276827  0.59017304  1  0.50662  -0.003186  0.10949  0.309588  -0.002301  4.048097  -0.002
C  C101  1  0.22936652  0.11723145  0.40982748  1  0.506636  0.003215  0.109567  0.309696  0.002197  4.047959  0.002
C  C102  1  0.79461487  0.34859840  0.49301175  1  1.573051  0.000994  0.191157  0.557652  -0.000576  4.227507  0.003
C  C103  1  0.79461618  0.65140196  0.50698904  1  1.573061  -0.00099  0.191177  0.557775  0.000265  4.227378  -0.003
C  C104  1  0.20538352  0.84859683  0.00698749  1  1.5729  -0.00096  0.191183  0.557662  0.000264  4.227422  -0.003
C  C105  1  0.20538318  0.15140348  0.99301243  1  1.572917  -0.000964  0.191172  0.557702  0.000253  4.227326  -0.003
C  C106  1  0.63711664  0.45565173  0.67323065  1  -0.029693  0.005456  -0.02172  -0.045888  0.003842  3.987172  0.004
C  C107  1  0.63711629  0.54435099  0.32676948  1  -0.029719  -0.005364  -0.021755  -0.045909  -0.004033  3.987212  -0.004
C  C108  1  0.36288285  0.95565128  0.82676546  1  -0.02948  0.007292  -0.021694  -0.04579  0.005048  3.987263  0.006
C  C109  1  0.36288197  0.04434904  0.17323453  1  -0.029645  0.007201  -0.021703  -0.045791  0.004989  3.987247  0.005
C  C110  1  0.14823808  0.60172722  0.87059769  1  0.480027  -0.002466  0.11041  0.308755  -0.001781  4.045192  -0.002
C  C111  1  0.14823726  0.39827309  0.12940221  1  0.48002  0.002579  0.110421  0.308774  0.001754  4.045191  0.002
C  C112  1  0.85176250  0.10172702  0.62940195  1  0.480026  -0.002467  0.110412  0.30875  -0.001775  4.045167  -0.002
C  C113  1  0.85176239  0.89827276  0.37059769  1  0.480007  -0.002576  0.11042  0.308759  -0.001863  4.045207  -0.002
C  C114  1  0.04793538  0.59258611  0.73914145  1  0.520505  -0.000852  0.051535  0.112936  -1.2e-05  3.958087  -0.001
C  C115  1  0.04793483  0.40741419  0.26085899  1  0.520502  0.00088  0.051517  0.112894  -0.000199  3.958139  0.001
C  C116  1  0.95206644  0.09258613  0.76085876  1  0.520517  -0.000861  0.051539  0.112907  -1.8e-05  3.958106  -0.001
C  C117  1  0.95206606  0.90741366  0.23914093  1  0.520521  -0.000871  0.05153  0.112845  -2.3e-05  3.958155  -0.001
C  C118  1  0.54699055  0.42533142  0.99097064  1  0.400403  0.000205  -0.057193  -0.035662  0.000128  3.828957  0.0
C  C119  1  0.54699078  0.57466892  0.00902886  1  0.400381  0.000189  -0.057237  -0.035719  0.000112  3.828992  0.0
C  C120  1  0.45301017  0.92533106  0.50902951  1  0.400453  0.000178  -0.057224  -0.035674  0.000107  3.828959  0.0
C  C121  1  0.45300997  0.07466868  0.49097111  1  0.400379  -0.000178  -0.057256  -0.035753  -0.000123  3.829044  0.0
C  C122  1  0.15161311  0.56420678  0.79747296  1  -0.042746  0.005088  -0.096908  -0.254334  0.003411  3.95817  0.004
C  C123  1  0.15161245  0.43579411  0.20252694  1  -0.042732  -0.004963  -0.096912  -0.254321  -0.003524  3.958215  -0.004
C  C124  1  0.84838870  0.06420611  0.70252662  1  -0.042718  0.005095  -0.096892  -0.254309  0.003414  3.958207  0.004
C  C125  1  0.84838845  0.93579367  0.29747360  1  -0.04282  0.004963  -0.096882  -0.254213  0.003319  3.958188  0.004
C  C126  1  0.94831224  0.69260896  0.81899342  1  0.482722  -0.000722  0.046403  0.111074  4.1e-05  3.969763  -0.001
C  C127  1  0.94831272  0.30739142  0.18100685  1  0.482524  0.00072  0.046401  0.111074  -0.000251  3.969671  0.001
C  C128  1  0.05168838  0.19260877  0.68100636  1  0.482948  -0.000729  0.046357  0.111006  3.3e-05  3.969723  -0.001
C  C129  1  0.05168689  0.80739093  0.31899291  1  0.482515  -0.000709  0.046422  0.11108  5.1e-05  3.969735  -0.001
C  C130  1  0.04573546  0.66808710  0.88078131  1  0.020022  0.004646  -0.089642  -0.233249  0.003146  3.936437  0.004
C  C131  1  0.04573459  0.33191319  0.11921853  1  0.020237  -0.004674  -0.089639  -0.233253  -0.003373  3.936431  -0.004
C  C132  1  0.95426515  0.16808749  0.61921843  1  0.020017  0.004701  -0.089601  -0.233208  0.003203  3.936332  0.004
C  C133  1  0.95426503  0.83191289  0.38078126  1  0.020238  0.004622  -0.089638  -0.233261  0.003126  3.936444  0.004
C  C134  1  0.01463800  0.34679070  0.83814585  1  0.462839  -0.000261  0.04271  0.09961  0.000664  3.978  0.0
C  C135  1  0.01463734  0.65320900  0.16185398  1  0.462844  -0.00026  0.042691  0.099559  0.000663  3.978029  0.0
C  C136  1  0.98536268  0.84679064  0.66185359  1  0.462865  -0.000264  0.042724  0.099646  0.000661  3.978018  0.0
C  C137  1  0.98536220  0.15320916  0.33814670  1  0.462855  0.000259  0.042703  0.09962  -0.000939  3.977965  0.0
C  C138  1  0.89843424  0.40351220  0.85803576  1  -0.008395  0.006244  -0.09623  -0.24113  0.004237  3.957478  0.005
C  C139  1  0.89843352  0.59648818  0.14196332  1  -0.008378  0.006228  -0.096203  -0.241055  0.004227  3.957559  0.005
C  C140  1  0.10156771  0.90351202  0.64196377  1  -0.008393  0.006241  -0.096226  -0.241201  0.004234  3.9576  0.005
C  C141  1  0.10156600  0.09648769  0.35803610  1  -0.008397  -0.006225  -0.096226  -0.241144  -0.004486  3.957518  -0.005
C  C142  1  0.88198759  0.25144633  0.91314405  1  0.441466  -0.001634  0.049102  0.114001  -0.000591  3.948529  -0.001
C  C143  1  0.88198681  0.74855345  0.08685619  1  0.441435  -0.001588  0.049061  0.113918  -0.000557  3.948583  -0.001
C  C144  1  0.11801306  0.75144606  0.58685582  1  0.441453  -0.001599  0.049077  0.113938  -0.000566  3.948569  -0.001
C  C145  1  0.11801277  0.24855365  0.41314464  1  0.441455  0.001622  0.049088  0.114001  0.000306  3.948518  0.001
C  C146  1  0.64116607  0.53889133  0.70356142  1  1.57211  0.003091  0.21404  0.577205  0.003751  4.189359  0.003
C  C147  1  0.64117182  0.46110961  0.29643754  1  1.57198  -0.003072  0.214085  0.57736  -0.004063  4.189301  -0.003
C  C148  1  0.35883572  0.03888840  0.79643754  1  1.571885  0.003456  0.213966  0.577105  0.004007  4.189805  0.003
C  C149  1  0.35883528  0.96111134  0.20356246  1  1.571604  0.003439  0.214  0.577165  0.003988  4.189689  0.003
C  C150  1  0.76060024  0.30453353  0.93677464  1  -0.044877  0.005639  -0.096322  -0.25627  0.003831  3.949357  0.004
C  C151  1  0.76059939  0.69546683  0.06322613  1  -0.044855  0.005695  -0.096261  -0.256174  0.003874  3.949283  0.004
C  C152  1  0.23940043  0.80453324  0.56322591  1  -0.044867  0.005695  -0.096243  -0.256106  0.003873  3.949373  0.004
C  C153  1  0.23940017  0.19546648  0.43677462  1  -0.044883  -0.005629  -0.096284  -0.256217  -0.004058  3.949377  -0.004
N  N154  1  0.00822246  0.27214970  0.86598781  1  -1.207909  0.10064  -0.357596  -0.257995  0.0679  3.647102  0.088
N  N155  1  0.00822177  0.72785000  0.13401202  1  -1.207792  0.100648  -0.357582  -0.257946  0.067907  3.647091  0.088
N  N156  1  0.99177696  0.77214959  0.63401152  1  -1.207901  0.100595  -0.357601  -0.257978  0.067872  3.647102  0.088
N  N157  1  0.99177656  0.22785079  0.36598877  1  -1.207899  -0.100578  -0.357597  -0.258014  -0.072059  3.647072  -0.088
N  N158  1  0.94648764  0.65491324  0.74954773  1  -1.220203  0.077691  -0.360749  -0.274685  0.05281  3.671887  0.068
N  N159  1  0.94648704  0.34508713  0.25045254  1  -1.22022  -0.077692  -0.360742  -0.274669  -0.056085  3.671834  -0.068
N  N160  1  0.05351296  0.15491435  0.75045258  1  -1.220204  0.077743  -0.360765  -0.274694  0.052845  3.671879  0.068
N  N161  1  0.05351258  0.84508594  0.24954669  1  -1.220226  0.077737  -0.360779  -0.274695  0.052839  3.671949  0.068
O  O162  1  0.46569010  0.18599347  0.68325578  1  -1.199777  0.000333  -0.329852  -0.508847  0.000256  2.353222  0.0
O  O163  1  0.46569232  0.81400745  0.31674484  1  -1.199792  9.4e-05  -0.329848  -0.508865  3.2e-05  2.353171  0.0
O  O164  1  0.53430432  0.68599244  0.81674399  1  -1.199799  0.000345  -0.329878  -0.508849  0.000182  2.35315  0.0
O  O165  1  0.53431225  0.31400731  0.18325609  1  -1.200002  -1e-05  -0.329853  -0.508802  -7.3e-05  2.353102  0.0
O  O166  1  0.36418039  0.26845143  0.77750606  1  -1.177953  -0.00184  -0.313576  -0.559489  -0.001124  2.273439  0.0
O  O167  1  0.36418114  0.73154830  0.22249452  1  -1.177934  -0.001795  -0.313572  -0.559476  -0.001064  2.27342  0.0
O  O168  1  0.63581654  0.76845203  0.72249442  1  -1.177932  -0.001799  -0.313563  -0.559464  -0.001094  2.273398  0.0
O  O169  1  0.63581843  0.23154654  0.27750570  1  -1.17798  0.001842  -0.313571  -0.559462  0.001031  2.273463  0.0
O  O170  1  0.72802490  0.29269591  0.45120196  1  -1.09693  -0.124199  -0.340703  -0.540255  -0.085245  2.238156  -0.11
O  O171  1  0.72802261  0.70730385  0.54879704  1  -1.096918  0.124273  -0.340723  -0.540279  0.080325  2.238161  0.11
O  O172  1  0.27197098  0.79269560  0.04880011  1  -1.097218  0.124264  -0.340783  -0.540321  0.080312  2.23813  0.11
O  O173  1  0.27197181  0.20730471  0.95119984  1  -1.097247  0.124204  -0.34077  -0.540325  0.080272  2.238109  0.11
O  O174  1  0.23696891  0.57864146  0.93325332  1  -1.072195  -0.000875  -0.163231  -0.175627  -0.000572  2.549019  -0.001
O  O175  1  0.23696672  0.42135945  0.06674603  1  -1.072194  0.000932  -0.163161  -0.175539  0.000558  2.548907  0.001
O  O176  1  0.76303166  0.07864056  0.56674687  1  -1.0725  -0.000906  -0.163185  -0.175557  -0.000584  2.549001  -0.001
O  O177  1  0.76303293  0.92135862  0.43325390  1  -1.072197  -0.000901  -0.163163  -0.175551  -0.000589  2.548903  -0.001
O  O178  1  0.66538700  0.44111553  0.93014347  1  -1.075939  -0.001182  -0.162024  -0.1744  -0.000773  2.575812  -0.001
O  O179  1  0.66538488  0.55888364  0.06985608  1  -1.075939  -0.001164  -0.162015  -0.174425  -0.00075  2.575832  -0.001
O  O180  1  0.33461496  0.94111525  0.56985670  1  -1.076019  -0.001174  -0.162002  -0.17438  -0.000763  2.575784  -0.001
O  O181  1  0.33461339  0.05888388  0.43014445  1  -1.075928  0.001164  -0.162021  -0.174421  0.000699  2.575774  0.001
O  O182  1  0.91714380  0.38941428  0.47303633  1  -1.167561  -0.001934  -0.330309  -0.565703  -0.001034  2.128548  -0.002
O  O183  1  0.91714391  0.61058550  0.52696509  1  -1.167584  0.001943  -0.330318  -0.565754  0.000849  2.128498  0.002
O  O184  1  0.08285708  0.88941274  0.02696530  1  -1.167539  0.002214  -0.330282  -0.565676  0.001014  2.128558  0.002
O  O185  1  0.08285916  0.11058638  0.97303339  1  -1.167537  0.002208  -0.330278  -0.565678  0.001012  2.128504  0.002
O  O186  1  0.60360118  0.55186087  0.77497795  1  -1.181035  0.003013  -0.319649  -0.537519  0.001665  2.257705  0.003
O  O187  1  0.60360058  0.44813947  0.22502040  1  -1.180903  -0.002854  -0.31968  -0.537601  -0.001696  2.257661  -0.002
O  O188  1  0.39640061  0.05186316  0.72502277  1  -1.180888  0.00345  -0.319639  -0.537459  0.001944  2.257817  0.003
O  O189  1  0.39640032  0.94813658  0.27497724  1  -1.180883  0.003286  -0.319642  -0.537458  0.001839  2.257806  0.003
O  O190  1  0.68140580  0.59156692  0.65422846  1  -1.137745  0.069897  -0.322798  -0.540329  0.045661  2.418984  0.063
O  O191  1  0.68140791  0.40843462  0.34576993  1  -1.137687  -0.06985  -0.322794  -0.540395  -0.048486  2.419129  -0.063
O  O192  1  0.31858858  0.09156287  0.84577057  1  -1.137723  0.06999  -0.322787  -0.540372  0.045712  2.419199  0.063
O  O193  1  0.31858801  0.90843686  0.15422882  1  -1.13743  0.06995  -0.322789  -0.540404  0.045688  2.419133  0.063
