# generated using pymatgen
data_Zn3H2C22(ClO3)4
_symmetry_space_group_name_H-M   'P 1'
_cell_length_a   19.97000216
_cell_length_b   19.97010484
_cell_length_c   19.97011959
_cell_angle_alpha   65.94885931
_cell_angle_beta   72.74221294
_cell_angle_gamma   107.20434812
_symmetry_Int_Tables_number   1
_chemical_formula_structural   Zn3H2C22(ClO3)4
_chemical_formula_sum   'Zn6 H4 C44 Cl8 O24'
_cell_volume   6101.16034097
_cell_formula_units_Z   2
loop_
 _symmetry_equiv_pos_site_id
 _symmetry_equiv_pos_as_xyz
  1  'x, y, z'
loop_
 _atom_site_type_symbol
 _atom_site_label
 _atom_site_symmetry_multiplicity
 _atom_site_fract_x
 _atom_site_fract_y
 _atom_site_fract_z
 _atom_site_occupancy
 _atom_site_pbe_bader_charge
 _atom_site_pbe_bader_spin_density
 _atom_site_pbe_cm5_charge
 _atom_site_pbe_ddec_charge
 _atom_site_pbe_ddec_spin_density
 _atom_site_pbe_ddec_sum_bond_order
 _atom_site_pbe_magmom
Zn  Zn0  1  0.44510800  0.94510773  0.50000029  1  1.301314  0  0.743498  0.979563  0  2.060316  0
Zn  Zn1  1  0.55500591  0.05500440  0.49999782  1  1.316678  0  0.746594  0.990861  0  2.03118  0
Zn  Zn2  1  0.55472401  0.49965407  0.94492902  1  1.31348  0  0.74659  0.987714  0  2.039551  0
Zn  Zn3  1  0.44458110  0.49965177  0.05507152  1  1.306747  0  0.746619  0.987687  0  2.039573  0
Zn  Zn4  1  0.99944562  0.93943670  0.06000720  1  1.31085  0  0.750172  0.986447  0  2.04383  0
Zn  Zn5  1  0.99944532  0.05945245  0.93999170  1  1.31523  0  0.750168  0.986401  0  2.04382  0
H  H6  1  0.59586541  0.80613370  0.78972228  1  0.121664  0  0.122869  0.142858  0  0.942966  0
H  H7  1  0.59586424  0.38558878  0.21027046  1  0.122693  0  0.122847  0.142841  0  0.943003  0
H  H8  1  0.40214604  0.69150689  0.71065431  1  0.104303  0  0.119893  0.1428  0  0.947969  0
H  H9  1  0.40215127  0.11280158  0.28935759  1  0.111521  0  0.119898  0.142806  0  0.947936  0
C  C10  1  0.39097497  0.00043207  0.60945305  1  1.69432  0  0.226488  0.654725  0  4.260154  0
C  C11  1  0.60988712  0.00043061  0.39054277  1  1.694719  0  0.226394  0.654513  0  4.260347  0
C  C12  1  0.27829423  0.00010669  0.72180717  1  -0.352438  0  -0.000405  0.033283  0  4.213542  0
C  C13  1  0.72191341  0.00010341  0.27818831  1  -0.356196  0  -0.000339  0.033285  0  4.213342  0
C  C14  1  0.22102010  0.99965237  0.77862996  1  -0.324466  0  0.002143  0.038316  0  4.215221  0
C  C15  1  0.77828151  0.99964758  0.22136705  1  -0.316125  0  0.002166  0.038377  0  4.215254  0
C  C16  1  0.16888546  0.99921655  0.83033014  1  0.267704  0  -0.002226  -0.12539  0  3.840602  0
C  C17  1  0.82954387  0.99920987  0.16966971  1  0.262789  0  -0.002259  -0.125445  0  3.840798  0
C  C18  1  0.60916538  0.60916432  0.99999861  1  1.686156  0  0.222987  0.653297  0  4.263979  0
C  C19  1  0.49953149  0.61793613  0.88159657  1  1.600477  0  0.22308  0.621177  0  4.145107  0
C  C20  1  0.49953178  0.38112850  0.11840601  1  1.567194  0  0.223017  0.620997  0  4.145313  0
C  C21  1  0.39010030  0.39009958  0.00000177  1  1.647402  0  0.226789  0.656627  0  4.251771  0
C  C22  1  0.10859507  0.10859584  0.99999853  1  1.657273  0  0.227968  0.655888  0  4.251349  0
C  C23  1  0.10824461  0.99916376  0.89091946  1  1.675782  0  0.228417  0.657287  0  4.250244  0
C  C24  1  0.89008132  0.99915866  0.10908172  1  1.677408  0  0.228561  0.657485  0  4.25048  0
C  C25  1  0.89038143  0.89038137  0.99999928  1  1.686934  0  0.227089  0.655009  0  4.253722  0
C  C26  1  0.66977615  0.66977518  0.99999993  1  0.194566  0  -0.003501  -0.125725  0  3.849461  0
C  C27  1  0.49920645  0.88068306  0.61852408  1  1.564235  0  0.219684  0.616549  0  4.154254  0
C  C28  1  0.49920893  0.11773306  0.38147612  1  1.568343  0  0.219586  0.616474  0  4.154355  0
C  C29  1  0.72143029  0.72143002  0.00000063  1  -0.256372  0  -0.002574  0.030172  0  4.228544  0
C  C30  1  0.77818583  0.77818563  0.00000067  1  -0.359922  0  0.000417  0.036362  0  4.219714  0
C  C31  1  0.82984338  0.82984325  0.00000041  1  0.205822  0  -0.000739  -0.122875  0  3.840703  0
C  C32  1  0.32941803  0.32941661  0.00000148  1  0.094705  0  -0.00175  -0.122457  0  3.833503  0
C  C33  1  0.27772474  0.27772325  0.99999959  1  -0.183778  0  0.000735  0.033491  0  4.211704  0
C  C34  1  0.22088619  0.22088587  0.99999891  1  -0.304485  0  0.002384  0.039372  0  4.21202  0
C  C35  1  0.16919839  0.16919862  0.99999863  1  0.243813  0  -0.002009  -0.125195  0  3.83759  0
C  C36  1  0.48021381  0.79727136  0.77597279  1  0.175551  0  0.025763  0.109987  0  3.717908  0
C  C37  1  0.57324184  0.25618447  0.22402701  1  0.16515  0  0.025776  0.109942  0  3.717997  0
C  C38  1  0.57323934  0.79726542  0.68294277  1  0.162809  0  0.025739  0.109802  0  3.718255  0
C  C39  1  0.48021395  0.25618679  0.31705692  1  0.167457  0  0.025784  0.110047  0  3.717818  0
C  C40  1  0.55287566  0.78127244  0.77159898  1  -0.01355  0  -0.065608  -0.121936  0  3.602277  0
C  C41  1  0.55287570  0.32447602  0.22839792  1  -0.029342  0  -0.065589  -0.121971  0  3.602224  0
C  C42  1  0.49801777  0.68494018  0.81308039  1  -0.01154  0  -0.002963  -0.073981  0  3.611322  0
C  C43  1  0.49801918  0.31109875  0.18692195  1  0.040651  0  -0.002961  -0.073841  0  3.611253  0
C  C44  1  0.42478930  0.70129870  0.81688534  1  0.146078  0  0.021636  0.106071  0  3.721225  0
C  C45  1  0.51817657  0.24167161  0.18311949  1  0.164648  0  0.021686  0.106187  0  3.721207  0
C  C46  1  0.51817358  0.70129328  0.72349664  1  0.169263  0  0.021722  0.106198  0  3.721216  0
C  C47  1  0.42479061  0.24167472  0.27650864  1  0.155144  0  0.021609  0.105945  0  3.721292  0
C  C48  1  0.44525663  0.71699388  0.72827260  1  0.003501  0  -0.077209  -0.134658  0  3.641268  0
C  C49  1  0.44526065  0.17353027  0.27173502  1  -0.005868  0  -0.077215  -0.134716  0  3.641374  0
C  C50  1  0.49889252  0.81197062  0.68692528  1  0.016166  0  -0.007234  -0.079207  0  3.636655  0
C  C51  1  0.49889491  0.18581943  0.31307696  1  0.023563  0  -0.007248  -0.079232  0  3.636726  0
C  C52  1  0.33038669  0.00050031  0.67010612  1  0.20399  0  -0.000339  -0.120321  0  3.838684  0
C  C53  1  0.67060768  0.00049774  0.32988701  1  0.210544  0  -0.000374  -0.120298  0  3.838548  0
Cl  Cl54  1  0.45578276  0.85832407  0.80900609  1  -0.195106  0  -0.021838  -0.080844  0  1.400689  0
Cl  Cl55  1  0.66732639  0.26478094  0.19098812  1  -0.192878  0  -0.021836  -0.080842  0  1.400718  0
Cl  Cl56  1  0.66732348  0.85831068  0.59745405  1  -0.191238  0  -0.021816  -0.080802  0  1.400751  0
Cl  Cl57  1  0.45577920  0.26478726  0.40254275  1  -0.191967  0  -0.02183  -0.080841  0  1.400621  0
Cl  Cl58  1  0.32963113  0.64238941  0.90050914  1  -0.186632  0  -0.027481  -0.084887  0  1.414518  0
Cl  Cl59  1  0.54288277  0.23013260  0.09949983  1  -0.189568  0  -0.027502  -0.084928  0  1.414631  0
Cl  Cl60  1  0.54287830  0.64237928  0.68725159  1  -0.189361  0  -0.027533  -0.084939  0  1.414593  0
Cl  Cl61  1  0.32963033  0.23013684  0.31275773  1  -0.189864  0  -0.027487  -0.084872  0  1.414533  0
O  O62  1  0.36636621  0.95204482  0.58567695  1  -1.119556  0  -0.30708  -0.537881  0  2.221642  0
O  O63  1  0.53772421  0.95204570  0.41432231  1  -1.125271  0  -0.307056  -0.537819  0  2.22165  0
O  O64  1  0.91429285  0.86158404  0.05270829  1  -1.113328  0  -0.30356  -0.532445  0  2.22235  0
O  O65  1  0.91429282  0.96700159  0.94729029  1  -1.118212  0  -0.303549  -0.532392  0  2.22228  0
O  O66  1  0.46331022  0.04868653  0.58537426  1  -1.126059  0  -0.305648  -0.536893  0  2.230573  0
O  O67  1  0.63406478  0.04868606  0.41462054  1  -1.126897  0  -0.30564  -0.536815  0  2.230648  0
O  O68  1  0.45107448  0.85906222  0.59201271  1  -1.134346  0  -0.307942  -0.534115  0  2.263477  0
O  O69  1  0.45107770  0.04308931  0.40798800  1  -1.140864  0  -0.307869  -0.534064  0  2.263568  0
O  O70  1  0.54747991  0.95477221  0.59270557  1  -1.146262  0  -0.307996  -0.545255  0  2.29284  0
O  O71  1  0.54748179  0.14018908  0.40729227  1  -1.146912  0  -0.307955  -0.545227  0  2.292779  0
O  O72  1  0.63371418  0.58533768  0.95162313  1  -1.128332  0  -0.306989  -0.537062  0  2.221856  0
O  O73  1  0.53696256  0.58533625  0.04837367  1  -1.127834  0  -0.306878  -0.536914  0  2.221879  0
O  O74  1  0.54853024  0.59256979  0.85960612  1  -1.136672  0  -0.308423  -0.541169  0  2.298714  0
O  O75  1  0.45217519  0.40813762  0.14039493  1  -1.138294  0  -0.308399  -0.541101  0  2.298914  0
O  O76  1  0.45217503  0.59256822  0.95596181  1  -1.140832  0  -0.308402  -0.541146  0  2.298786  0
O  O77  1  0.54853031  0.40813786  0.04403949  1  -1.142756  0  -0.30839  -0.541111  0  2.29873  0
O  O78  1  0.46241174  0.41407713  0.95166635  1  -1.118467  0  -0.304902  -0.536693  0  2.221022  0
O  O79  1  0.36574115  0.41407565  0.04833621  1  -1.117158  0  -0.304868  -0.53664  0  2.220968  0
O  O80  1  0.08458339  0.03190389  0.05267730  1  -1.122739  0  -0.30417  -0.533522  0  2.222645  0
O  O81  1  0.08458195  0.13726167  0.94732026  1  -1.121721  0  -0.304146  -0.533468  0  2.222556  0
O  O82  1  0.08425746  0.94648567  0.96761679  1  -1.123552  0  -0.304212  -0.533676  0  2.223828  0
O  O83  1  0.91410008  0.05186824  0.03238482  1  -1.125121  0  -0.30435  -0.533795  0  2.223935  0
O  O84  1  0.91410307  0.94648296  0.13777181  1  -1.118997  0  -0.304256  -0.533756  0  2.22397  0
O  O85  1  0.08425693  0.05187341  0.86222891  1  -1.117759  0  -0.304226  -0.533681  0  2.223872  0
