# generated using pymatgen
data_AgH6C4S(NO)3
_symmetry_space_group_name_H-M   'P 1'
_cell_length_a   8.79452370
_cell_length_b   11.12701626
_cell_length_c   14.05440000
_cell_angle_alpha   82.74532301
_cell_angle_beta   89.34485004
_cell_angle_gamma   79.00103562
_symmetry_Int_Tables_number   1
_chemical_formula_structural   AgH6C4S(NO)3
_chemical_formula_sum   'Ag6 H36 C24 S6 N18 O18'
_cell_volume   1339.13415298
_cell_formula_units_Z   6
loop_
 _symmetry_equiv_pos_site_id
 _symmetry_equiv_pos_as_xyz
  1  'x, y, z'
loop_
 _atom_site_type_symbol
 _atom_site_label
 _atom_site_symmetry_multiplicity
 _atom_site_fract_x
 _atom_site_fract_y
 _atom_site_fract_z
 _atom_site_occupancy
 _atom_site_hle17_bader_spin_density
 _atom_site_hle17_ddec_charge
 _atom_site_hle17_ddec_spin_density
 _atom_site_hle17_ddec_sum_bond_order
 _atom_site_hle17_magmom
 _atom_site_hse06_10hf_bader_spin_density
 _atom_site_hse06_10hf_ddec_charge
 _atom_site_hse06_10hf_ddec_spin_density
 _atom_site_hse06_10hf_ddec_sum_bond_order
 _atom_site_hse06_10hf_magmom
 _atom_site_hse06_bader_spin_density
 _atom_site_hse06_ddec_charge
 _atom_site_hse06_ddec_spin_density
 _atom_site_hse06_ddec_sum_bond_order
 _atom_site_hse06_magmom
 _atom_site_pbe_bader_charge
 _atom_site_pbe_bader_spin_density
 _atom_site_pbe_cm5_charge
 _atom_site_pbe_ddec_charge
 _atom_site_pbe_ddec_spin_density
 _atom_site_pbe_ddec_sum_bond_order
 _atom_site_pbe_magmom
Ag  Ag0  1  0.80780230  0.52755737  0.50059962  1  0  0.516892  0  1.471182  0  0  0.362232  0  1.947104  0  0  0.393094  0  1.895355  0  0.596126  0  0.473825  0.340655  0  1.983195  0
Ag  Ag1  1  0.19219535  0.47244417  0.49940109  1  0  0.516879  0  1.471202  0  0  0.362205  0  1.947121  0  0  0.393067  0  1.89537  0  0.593247  0  0.473839  0.340628  0  1.98321  0
Ag  Ag2  1  0.59015528  0.39598067  0.33253818  1  0  0.539154  0  1.386608  0  0  0.384773  0  1.819092  0  0  0.415016  0  1.772009  0  0.59701  0  0.489218  0.363625  0  1.852037  0
Ag  Ag3  1  0.40984329  0.60402179  0.66746244  1  0  0.539134  0  1.386643  0  0  0.384755  0  1.819123  0  0  0.414999  0  1.772041  0  0.59703  0  0.489224  0.36361  0  1.852068  0
Ag  Ag4  1  0.59356205  0.28783735  0.58365254  1  0  0.511939  0  1.53012  0  0  0.359228  0  2.008287  0  0  0.386696  0  1.958769  0  0.602486  0  0.485684  0.340355  0  2.042696  0
Ag  Ag5  1  0.40643536  0.71216050  0.41634784  1  0  0.511945  0  1.530123  0  0  0.359248  0  2.008287  0  0  0.386722  0  1.958759  0  0.602493  0  0.485686  0.340378  0  2.042694  0
H  H6  1  0.35232771  0.08705144  0.56745237  1  0  0.138368  0  0.941564  0  0  0.145971  0  1.004275  0  0  0.149083  0  1.000798  0  0.241997  0  0.146926  0.143587  0  1.006897  0
H  H7  1  0.64766583  0.91294826  0.43254500  1  0  0.138275  0  0.941735  0  0  0.145939  0  1.00435  0  0  0.149051  0  1.000874  0  0.24188  0  0.146915  0.14354  0  1.007004  0
H  H8  1  0.35266010  0.20882931  0.26735519  1  0  0.146147  0  0.943656  0  0  0.153992  0  1.000978  0  0  0.156662  0  0.998059  0  0.233667  0  0.151825  0.151886  0  1.003324  0
H  H9  1  0.64734277  0.79116946  0.73264221  1  0  0.146072  0  0.94374  0  0  0.153937  0  1.001052  0  0  0.156606  0  0.99813  0  0.233716  0  0.151787  0.151831  0  1.003397  0
H  H10  1  0.21006244  0.97493272  0.46150599  1  0  0.096536  0  0.930066  0  0  0.108665  0  0.995008  0  0  0.110028  0  0.994274  0  0.119822  0  0.116587  0.107568  0  0.995668  0
H  H11  1  0.78993679  0.02506697  0.53849134  1  0  0.096489  0  0.930118  0  0  0.10859  0  0.995091  0  0  0.109952  0  0.994358  0  0.119972  0  0.116576  0.107494  0  0.99575  0
H  H12  1  0.25194634  0.98768310  0.33678010  1  0  0.100044  0  0.929151  0  0  0.111804  0  0.992915  0  0  0.113357  0  0.991097  0  0.14411  0  0.117347  0.11051  0  0.994372  0
H  H13  1  0.74804904  0.01231844  0.66321779  1  0  0.100035  0  0.929166  0  0  0.111777  0  0.992934  0  0  0.113328  0  0.991116  0  0.144127  0  0.117325  0.110484  0  0.994387  0
H  H14  1  0.96769929  0.04554418  0.37395080  1  0  0.153269  0  0.918245  0  0  0.168298  0  0.969561  0  0  0.171253  0  0.968275  0  0.136727  0  0.116193  0.166171  0  0.97065  0
H  H15  1  0.03229858  0.95445644  0.62604930  1  0  0.153286  0  0.918251  0  0  0.168286  0  0.969603  0  0  0.171238  0  0.968317  0  0.136755  0  0.116196  0.166159  0  0.970693  0
H  H16  1  0.03822218  0.16677014  0.30115512  1  0  0.13572  0  0.903222  0  0  0.153468  0  0.949909  0  0  0.155968  0  0.949043  0  0.086388  0  0.115287  0.151675  0  0.950693  0
H  H17  1  0.96177364  0.83322956  0.69884579  1  0  0.135703  0  0.903207  0  0  0.153462  0  0.949885  0  0  0.155961  0  0.949021  0  0.086402  0  0.11529  0.151672  0  0.950669  0
H  H18  1  0.64239017  0.60507763  0.13627517  1  0  0.132369  0  0.976674  0  0  0.139614  0  1.036061  0  0  0.142825  0  1.032988  0  0.261062  0  0.14704  0.137143  0  1.038425  0
H  H19  1  0.35761090  0.39492391  0.86372481  1  0  0.132326  0  0.97671  0  0  0.139559  0  1.036111  0  0  0.142765  0  1.033047  0  0.261044  0  0.147062  0.13709  0  1.038473  0
H  H20  1  0.86867919  0.76421600  0.33999759  1  0  0.138758  0  0.941155  0  0  0.146249  0  1.00437  0  0  0.149408  0  1.000759  0  0.264142  0  0.148629  0.143756  0  1.007244  0
H  H21  1  0.13132143  0.23578738  0.66000293  1  0  0.138795  0  0.941131  0  0  0.146295  0  1.004344  0  0  0.149453  0  1.000732  0  0.264186  0  0.148658  0.143804  0  1.007216  0
H  H22  1  0.82496917  0.77775826  0.07387146  1  0  0.099264  0  0.937158  0  0  0.112119  0  1.001665  0  0  0.113507  0  1.000464  0  0.141782  0  0.118685  0.111003  0  1.002679  0
H  H23  1  0.17503395  0.22224420  0.92612984  1  0  0.099261  0  0.937143  0  0  0.112094  0  1.001694  0  0  0.113482  0  1.000497  0  0.141774  0  0.118674  0.110978  0  1.002703  0
H  H24  1  0.86028516  0.86686231  0.16721780  1  0  0.089115  0  0.897454  0  0  0.107843  0  0.949562  0  0  0.1087  0  0.949264  0  0.077199  0  0.122714  0.107124  0  0.949911  0
H  H25  1  0.13971590  0.13313923  0.83278360  1  0  0.089069  0  0.897497  0  0  0.107828  0  0.949588  0  0  0.108684  0  0.949292  0  0.077277  0  0.122716  0.107106  0  0.949935  0
H  H26  1  0.55186514  0.85829561  0.06977655  1  0  0.141775  0  0.926619  0  0  0.152101  0  0.986564  0  0  0.155334  0  0.984869  0  0.127384  0  0.110507  0.149718  0  0.98792  0
H  H27  1  0.44813820  0.14170593  0.93022413  1  0  0.141826  0  0.926531  0  0  0.152108  0  0.986513  0  0  0.155331  0  0.98483  0  0.12737  0  0.110518  0.149736  0  0.987859  0
H  H28  1  0.64612635  0.98663003  0.06982252  1  0  0.138646  0  0.901143  0  0  0.158017  0  0.945294  0  0  0.159953  0  0.945268  0  0.091805  0  0.119413  0.156551  0  0.945499  0
H  H29  1  0.35387493  0.01337059  0.93017898  1  0  0.138634  0  0.901125  0  0  0.157986  0  0.945282  0  0  0.159923  0  0.945254  0  0.09182  0  0.119398  0.156522  0  0.94549  0
H  H30  1  0.69859991  0.26075745  0.81425491  1  0  0.140642  0  0.920409  0  0  0.153394  0  0.969862  0  0  0.156079  0  0.967199  0  0.240035  0  0.155272  0.151278  0  0.971973  0
H  H31  1  0.30140204  0.73924040  0.18574543  1  0  0.140716  0  0.920316  0  0  0.153426  0  0.969819  0  0  0.15611  0  0.967158  0  0.240054  0  0.155288  0.15131  0  0.97193  0
H  H32  1  0.93248835  0.55734240  0.72772922  1  0  0.132809  0  0.904594  0  0  0.145086  0  0.959346  0  0  0.147347  0  0.956885  0  0.204303  0  0.153758  0.143284  0  0.961325  0
H  H33  1  0.06751133  0.44265545  0.27227114  1  0  0.132831  0  0.90461  0  0  0.14511  0  0.959366  0  0  0.147371  0  0.956906  0  0.204246  0  0.153772  0.143309  0  0.961344  0
H  H34  1  0.97288814  0.46101452  0.90484098  1  0  0.08617  0  0.920548  0  0  0.098375  0  0.988076  0  0  0.099642  0  0.987061  0  0.102932  0  0.116164  0.097349  0  0.98892  0
H  H35  1  0.02711381  0.53898333  0.09515865  1  0  0.086175  0  0.920566  0  0  0.09835  0  0.98812  0  0  0.099615  0  0.987111  0  0.102507  0  0.116162  0.097327  0  0.988957  0
H  H36  1  0.93127636  0.31118212  0.93431408  1  0  0.088812  0  0.906655  0  0  0.106763  0  0.961523  0  0  0.107221  0  0.961359  0  0.092382  0  0.12112  0.106316  0  0.961811  0
H  H37  1  0.06872537  0.68881665  0.06568617  1  0  0.088831  0  0.906649  0  0  0.106782  0  0.96152  0  0  0.10724  0  0.961356  0  0.092401  0  0.121128  0.106334  0  0.961809  0
H  H38  1  0.79135980  0.44552856  0.04174429  1  0  0.122876  0  0.92016  0  0  0.140241  0  0.972487  0  0  0.14246  0  0.97157  0  0.077006  0  0.108711  0.138604  0  0.973294  0
H  H39  1  0.20864285  0.55447114  0.95825586  1  0  0.122869  0  0.920158  0  0  0.14024  0  0.972473  0  0  0.142459  0  0.971554  0  0.077027  0  0.1087  0.138602  0  0.973281  0
H  H40  1  0.64883171  0.41044310  0.96653452  1  0  0.148113  0  0.957777  0  0  0.157106  0  1.018682  0  0  0.160956  0  1.016234  0  0.150601  0  0.106958  0.154307  0  1.020548  0
H  H41  1  0.35117002  0.58955568  0.03346645  1  0  0.148127  0  0.957781  0  0  0.157106  0  1.018689  0  0  0.160956  0  1.016242  0  0.150588  0  0.106966  0.154307  0  1.020555  0
C  C42  1  0.37398004  0.13642027  0.49801388  1  0  0.165142  0  3.605202  0  0  0.098576  0  3.871344  0  0  0.111733  0  3.88474  0  0.971186  0  0.164599  0.089961  0  3.862294  0
C  C43  1  0.62601670  0.86358035  0.50198480  1  0  0.165212  0  3.60541  0  0  0.098617  0  3.871539  0  0  0.111775  0  3.884935  0  0.971241  0  0.164628  0.090004  0  3.86249  0
C  C44  1  0.37267565  0.20008910  0.34430535  1  0  0.198601  0  3.554008  0  0  0.133632  0  3.810976  0  0  0.147547  0  3.823865  0  1.011093  0  0.17739  0.124378  0  3.802451  0
C  C45  1  0.62732472  0.79991060  0.65569340  1  0  0.1987  0  3.554037  0  0  0.133729  0  3.810973  0  0  0.147645  0  3.823863  0  1.011703  0  0.177434  0.124477  0  3.802449  0
C  C46  1  0.20917029  0.03992257  0.39604537  1  0  0.03129  0  3.609749  0  0  -0.032789  0  3.868397  0  0  -0.027549  0  3.878915  0  0.240445  0  -0.048008  -0.036026  0  3.861352  0
C  C47  1  0.79082440  0.96007712  0.60395199  1  0  0.031336  0  3.609752  0  0  -0.032674  0  3.868339  0  0  -0.027433  0  3.878862  0  0.24026  0  -0.047965  -0.035909  0  3.861293  0
C  C48  1  0.04591678  0.11172247  0.37210762  1  0  -0.317443  0  3.574215  0  0  -0.35726  0  3.832303  0  0  -0.363202  0  3.838656  0  -0.157528  0  -0.152916  -0.353379  0  3.82823  0
C  C49  1  0.95407996  0.88827815  0.62789106  1  0  -0.317455  0  3.574218  0  0  -0.357269  0  3.83231  0  0  -0.363211  0  3.838662  0  -0.157467  0  -0.15292  -0.353394  0  3.828246  0
C  C50  1  0.69641174  0.61626271  0.20361361  1  0  0.174434  0  3.577845  0  0  0.110182  0  3.839605  0  0  0.123024  0  3.853035  0  0.951779  0  0.167129  0.101647  0  3.830686  0
C  C51  1  0.30358933  0.38373883  0.79638708  1  0  0.174404  0  3.577792  0  0  0.110176  0  3.839539  0  0  0.12302  0  3.852968  0  0.951743  0  0.167103  0.101639  0  3.830622  0
C  C52  1  0.81121099  0.70106126  0.30686624  1  0  0.17087  0  3.597293  0  0  0.100451  0  3.869221  0  0  0.114325  0  3.881587  0  0.956787  0  0.166087  0.091307  0  3.861014  0
C  C53  1  0.18878938  0.29893844  0.69313393  1  0  0.170763  0  3.597138  0  0  0.100275  0  3.869113  0  0  0.114153  0  3.881476  0  0.956782  0  0.165991  0.091129  0  3.860909  0
C  C54  1  0.77878195  0.81656593  0.13888349  1  0  0.035122  0  3.596894  0  0  -0.03256  0  3.860941  0  0  -0.026936  0  3.870775  0  0.266911  0  -0.044362  -0.036215  0  3.854322  0
C  C55  1  0.22121754  0.18343746  0.86111489  1  0  0.035168  0  3.596874  0  0  -0.032574  0  3.860982  0  0  -0.026955  0  3.870821  0  0.266895  0  -0.044337  -0.036209  0  3.854345  0
C  C56  1  0.62394990  0.90230126  0.11261424  1  0  -0.323322  0  3.590241  0  0  -0.361294  0  3.851087  0  0  -0.367385  0  3.857803  0  -0.169038  0  -0.154929  -0.357043  0  3.846556  0
C  C57  1  0.37605252  0.09769936  0.88738440  1  0  -0.323383  0  3.59026  0  0  -0.361235  0  3.851051  0  0  -0.367318  0  3.85777  0  -0.169011  0  -0.154936  -0.35701  0  3.846528  0
C  C58  1  0.74684015  0.33304374  0.77223734  1  0  0.177008  0  3.574512  0  0  0.115074  0  3.827247  0  0  0.127603  0  3.840814  0  0.95757  0  0.171382  0.106778  0  3.818185  0
C  C59  1  0.25316067  0.66695411  0.22776373  1  0  0.176953  0  3.574563  0  0  0.115055  0  3.827298  0  0  0.127582  0  3.840866  0  0.957593  0  0.17137  0.106757  0  3.818238  0
C  C60  1  0.86629165  0.48465186  0.72717391  1  0  0.193409  0  3.585844  0  0  0.123418  0  3.855802  0  0  0.137282  0  3.869128  0  0.992624  0  0.173064  0.114237  0  3.846847  0
C  C61  1  0.13370803  0.51534599  0.27282645  1  0  0.193427  0  3.585897  0  0  0.123412  0  3.85587  0  0  0.137276  0  3.869196  0  0.99354  0  0.173052  0.114229  0  3.846917  0
C  C62  1  0.88129848  0.40655569  0.90525589  1  0  0.045514  0  3.621526  0  0  -0.023691  0  3.89082  0  0  -0.017672  0  3.900513  0  0.26671  0  -0.044267  -0.027592  0  3.884207  0
C  C63  1  0.11870211  0.59344309  0.09474366  1  0  0.045523  0  3.621523  0  0  -0.023687  0  3.890823  0  0  -0.017669  0  3.900516  0  0.267114  0  -0.04426  -0.027586  0  3.884209  0
C  C64  1  0.74778927  0.45764857  0.96748864  1  0  -0.350182  0  3.616837  0  0  -0.386878  0  3.876344  0  0  -0.392945  0  3.882128  0  -0.188821  0  -0.166312  -0.382562  0  3.872346  0
C  C65  1  0.25221473  0.54235021  0.03251159  1  0  -0.350274  0  3.616877  0  0  -0.386922  0  3.876337  0  0  -0.392988  0  3.882119  0  -0.188826  0  -0.166349  -0.382606  0  3.87234  0
S  S66  1  0.97153415  0.21794332  0.45638072  1  0  1.326291  0  5.609815  0  0  1.238086  0  6.127712  0  0  1.283977  0  6.107979  0  3.116746  0  0.484246  1.206461  0  6.140016  0
S  S67  1  0.02846508  0.78205638  0.54361946  1  0  1.326349  0  5.609725  0  0  1.238148  0  6.127621  0  0  1.284039  0  6.10789  0  3.116724  0  0.484246  1.206522  0  6.139923  0
S  S68  1  0.51257007  0.94870285  0.21488047  1  0  1.311956  0  5.681139  0  0  1.225986  0  6.212317  0  0  1.272054  0  6.190422  0  3.170089  0  0.4771  1.194163  0  6.226342  0
S  S69  1  0.48743122  0.05129777  0.78511960  1  0  1.311762  0  5.681441  0  0  1.22576  0  6.212623  0  0  1.27183  0  6.190725  0  3.17003  0  0.477002  1.193939  0  6.22665  0
S  S70  1  0.67846997  0.62104629  0.93352045  1  0  1.329684  0  5.655668  0  0  1.242411  0  6.187919  0  0  1.288797  0  6.165561  0  3.188454  0  0.480995  1.210387  0  6.2022  0
S  S71  1  0.32153154  0.37895340  0.06647971  1  0  1.329735  0  5.655633  0  0  1.242442  0  6.18787  0  0  1.288828  0  6.165515  0  3.188442  0  0.480997  1.210422  0  6.202154  0
N  N72  1  0.45950171  0.22255985  0.48457706  1  0  -0.245392  0  3.311591  0  0  -0.16815  0  3.608145  0  0  -0.184916  0  3.625265  0  -0.741874  0  -0.27682  -0.156942  0  3.596436  0
N  N73  1  0.54049639  0.77743985  0.51542241  1  0  -0.245412  0  3.3116  0  0  -0.168189  0  3.608197  0  0  -0.184957  0  3.625315  0  -0.741981  0  -0.276865  -0.156979  0  3.596487  0
N  N74  1  0.45833733  0.26284421  0.38744184  1  0  -0.223482  0  3.263853  0  0  -0.143608  0  3.552751  0  0  -0.161609  0  3.570158  0  -0.729751  0  -0.268488  -0.13147  0  3.540891  0
N  N75  1  0.54166213  0.73715456  0.61255771  1  0  -0.223526  0  3.263964  0  0  -0.143653  0  3.55287  0  0  -0.161654  0  3.570274  0  -0.729721  0  -0.268489  -0.131518  0  3.541014  0
N  N76  1  0.31832378  0.12004552  0.41159576  1  0  -0.089148  0  3.527552  0  0  0.005653  0  3.753439  0  0  -0.012367  0  3.777974  0  -1.237039  0  -0.227583  0.017423  0  3.736774  0
N  N77  1  0.68167431  0.87995418  0.58840158  1  0  -0.089137  0  3.527603  0  0  0.005642  0  3.753497  0  0  -0.012378  0  3.778028  0  -1.23772  0  -0.227605  0.017413  0  3.73683  0
N  N78  1  0.77306850  0.59995256  0.35272486  1  0  -0.248577  0  3.304097  0  0  -0.171824  0  3.6056  0  0  -0.189175  0  3.622121  0  -0.737554  0  -0.269753  -0.160193  0  3.594364  0
N  N79  1  0.22693121  0.40004990  0.64727433  1  0  -0.248579  0  3.303848  0  0  -0.171747  0  3.605296  0  0  -0.189101  0  3.621818  0  -0.737552  0  -0.269723  -0.160115  0  3.594059  0
N  N80  1  0.70011020  0.54621362  0.28724332  1  0  -0.247241  0  3.311572  0  0  -0.170908  0  3.616766  0  0  -0.187687  0  3.632418  0  -0.741425  0  -0.270976  -0.159674  0  3.606209  0
N  N81  1  0.29988904  0.45378607  0.71275757  1  0  -0.247133  0  3.311354  0  0  -0.170827  0  3.616538  0  0  -0.187604  0  3.632186  0  -0.741431  0  -0.270919  -0.159593  0  3.605981  0
N  N82  1  0.76683843  0.71306406  0.21319001  1  0  -0.0858  0  3.523124  0  0  0.008673  0  3.752582  0  0  -0.008884  0  3.776884  0  -1.239406  0  -0.22693  0.020185  0  3.736157  0
N  N83  1  0.23316399  0.28693656  0.78681006  1  0  -0.085703  0  3.523069  0  0  0.00878  0  3.752558  0  0  -0.008776  0  3.776864  0  -1.239419  0  -0.226948  0.020288  0  3.736129  0
N  N84  1  0.72559845  0.36261095  0.67865885  1  0  -0.230184  0  3.303617  0  0  -0.156676  0  3.603164  0  0  -0.172107  0  3.619096  0  -0.727099  0  -0.267559  -0.146365  0  3.592339  0
N  N85  1  0.27440192  0.63738874  0.32134060  1  0  -0.230257  0  3.303742  0  0  -0.156754  0  3.603291  0  0  -0.172185  0  3.619221  0  -0.727099  0  -0.26759  -0.146443  0  3.592466  0
N  N86  1  0.80199640  0.45779347  0.64986252  1  0  -0.237344  0  3.27211  0  0  -0.161921  0  3.570917  0  0  -0.179489  0  3.588101  0  -0.713206  0  -0.26139  -0.150108  0  3.559172  0
N  N87  1  0.19800398  0.54220623  0.35013694  1  0  -0.237355  0  3.272175  0  0  -0.161934  0  3.571001  0  0  -0.179502  0  3.588183  0  -0.7141  0  -0.261422  -0.150122  0  3.559256  0
N  N88  1  0.83575348  0.40708268  0.80487732  1  0  -0.090139  0  3.532953  0  0  0.004076  0  3.763952  0  0  -0.013578  0  3.788433  0  -1.223686  0  -0.225972  0.015672  0  3.747276  0
N  N89  1  0.16424825  0.59291609  0.19512222  1  0  -0.090103  0  3.532908  0  0  0.004135  0  3.763881  0  0  -0.013519  0  3.788362  0  -1.223662  0  -0.225928  0.015731  0  3.747205  0
O  O90  1  0.80175677  0.23525393  0.44664279  1  0  -0.714101  0  2.068874  0  0  -0.649473  0  2.360914  0  0  -0.672463  0  2.340899  0  -1.317942  0  -0.362318  -0.633064  0  2.373947  0
O  O91  1  0.19824269  0.76474485  0.55336033  1  0  -0.714107  0  2.068878  0  0  -0.649458  0  2.360879  0  0  -0.672451  0  2.340866  0  -1.317898  0  -0.362253  -0.633048  0  2.373912  0
O  O92  1  0.03000920  0.33250013  0.42403732  1  0  -0.720627  0  2.024207  0  0  -0.662197  0  2.315748  0  0  -0.685358  0  2.298464  0  -1.341286  0  -0.368882  -0.645567  0  2.326819  0
O  O93  1  0.96998776  0.66749957  0.57596359  1  0  -0.720626  0  2.0242  0  0  -0.662198  0  2.315751  0  0  -0.685356  0  2.298466  0  -1.34129  0  -0.368868  -0.645575  0  2.326838  0
O  O94  1  0.03042529  0.15957769  0.55201466  1  0  -0.673469  0  1.908241  0  0  -0.6202  0  2.146694  0  0  -0.641467  0  2.134337  0  -1.339139  0  -0.349974  -0.605028  0  2.154633  0
O  O95  1  0.96957644  0.84042108  0.44798559  1  0  -0.673444  0  1.908113  0  0  -0.620215  0  2.146608  0  0  -0.641482  0  2.134254  0  -1.339104  0  -0.350014  -0.60504  0  2.154546  0
O  O96  1  0.39079351  0.05161434  0.17717212  1  0  -0.65888  0  1.897736  0  0  -0.618606  0  2.131167  0  0  -0.638652  0  2.117502  0  -1.333742  0  -0.360746  -0.604395  0  2.14004  0
O  O97  1  0.60920755  0.94838720  0.82282714  1  0  -0.658775  0  1.897822  0  0  -0.618501  0  2.131256  0  0  -0.638551  0  2.117595  0  -1.333797  0  -0.360653  -0.604291  0  2.140129  0
O  O98  1  0.62307456  0.97825622  0.28228938  1  0  -0.687482  0  1.873548  0  0  -0.641228  0  2.106821  0  0  -0.661059  0  2.093379  0  -1.343997  0  -0.37234  -0.627077  0  2.115615  0
O  O99  1  0.37692515  0.02174625  0.71771052  1  0  -0.68743  0  1.873563  0  0  -0.641175  0  2.106862  0  0  -0.661005  0  2.093421  0  -1.343863  0  -0.372322  -0.627028  0  2.115655  0
O  O100  1  0.45023701  0.83738093  0.25338220  1  0  -0.738856  0  2.022103  0  0  -0.68057  0  2.303867  0  0  -0.702953  0  2.2871  0  -1.353896  0  -0.380193  -0.664558  0  2.314795  0
O  O101  1  0.54976497  0.16262154  0.74661840  1  0  -0.738832  0  2.022147  0  0  -0.680523  0  2.3039  0  0  -0.702904  0  2.28713  0  -1.353952  0  -0.380219  -0.664511  0  2.31483  0
O  O102  1  0.56455344  0.65815391  0.00755027  1  0  -0.686148  0  1.935868  0  0  -0.631946  0  2.170754  0  0  -0.653269  0  2.156851  0  -1.348788  0  -0.358144  -0.616845  0  2.179846  0
O  O103  1  0.43544807  0.34184579  0.99244989  1  0  -0.686141  0  1.935919  0  0  -0.631925  0  2.170796  0  0  -0.653244  0  2.156894  0  -1.348815  0  -0.358131  -0.616829  0  2.179894  0
O  O104  1  0.81796497  0.67565833  0.93605461  1  0  -0.692006  0  1.850736  0  0  -0.648507  0  2.083216  0  0  -0.668582  0  2.069741  0  -1.3471  0  -0.378983  -0.634216  0  2.091959  0
O  O105  1  0.18203745  0.32434229  0.06394617  1  0  -0.69199  0  1.850731  0  0  -0.648484  0  2.08321  0  0  -0.66856  0  2.069735  0  -1.347055  0  -0.378969  -0.634195  0  2.091952  0
O  O106  1  0.60887278  0.63111462  0.83763599  1  0  -0.696918  0  1.935436  0  0  -0.651284  0  2.197725  0  0  -0.671631  0  2.181396  0  -1.345615  0  -0.36601  -0.636746  0  2.208462  0
O  O107  1  0.39112986  0.36888508  0.16236417  1  0  -0.696939  0  1.935394  0  0  -0.651304  0  2.19769  0  0  -0.671653  0  2.181361  0  -1.345647  0  -0.36602  -0.636767  0  2.208427  0
