# generated using pymatgen
data_CuP2H18C18(NO3)2
_symmetry_space_group_name_H-M   'P 1'
_cell_length_a   9.75944109
_cell_length_b   10.68340182
_cell_length_c   11.20266029
_cell_angle_alpha   62.73086230
_cell_angle_beta   89.32362852
_cell_angle_gamma   69.00409852
_symmetry_Int_Tables_number   1
_chemical_formula_structural   CuP2H18C18(NO3)2
_chemical_formula_sum   'Cu2 P4 H36 C36 N4 O12'
_cell_volume   952.81565056
_cell_formula_units_Z   2
loop_
 _symmetry_equiv_pos_site_id
 _symmetry_equiv_pos_as_xyz
  1  'x, y, z'
loop_
 _atom_site_type_symbol
 _atom_site_label
 _atom_site_symmetry_multiplicity
 _atom_site_fract_x
 _atom_site_fract_y
 _atom_site_fract_z
 _atom_site_occupancy
 _atom_site_hle17_ddec_charge
 _atom_site_hle17_ddec_spin_density
 _atom_site_hle17_ddec_sum_bond_order
 _atom_site_hle17_magmom
 _atom_site_hse06_10hf_ddec_charge
 _atom_site_hse06_10hf_ddec_spin_density
 _atom_site_hse06_10hf_ddec_sum_bond_order
 _atom_site_hse06_10hf_magmom
 _atom_site_hse06_ddec_charge
 _atom_site_hse06_ddec_spin_density
 _atom_site_hse06_ddec_sum_bond_order
 _atom_site_hse06_magmom
 _atom_site_pbe_cm5_charge
 _atom_site_pbe_ddec_charge
 _atom_site_pbe_ddec_spin_density
 _atom_site_pbe_ddec_sum_bond_order
 _atom_site_pbe_magmom
Cu  Cu0  1  0.14830988  0.11780195  0.02361397  1  0.94594  -0.760596  1.83979  -0.538  0.925468  -0.82785  2.233787  -0.649  1.005701  -0.896871  2.17009  -0.73  0.781542  0.87517  -0.776234  2.279058  -0.594
Cu  Cu1  1  0.85168673  0.88219878  0.97638556  1  0.945803  0.760604  1.839811  0.538  0.925343  0.827837  2.233757  0.649  1.00566  0.896883  2.170113  0.73  0.781478  0.875116  0.776231  2.278994  0.594
P  P2  1  0.83694767  0.22323105  0.82481226  1  1.49402  0.003459  4.749717  0.0  1.351644  0.00492  5.254664  0.002  1.402051  0.003851  5.217148  0.002  0.347412  1.316148  0.005549  5.279794  0.002
P  P3  1  0.16305436  0.77676621  0.17518961  1  1.494076  -0.003459  4.749687  0.0  1.351702  -0.004927  5.254632  -0.002  1.402105  -0.003853  5.217123  -0.002  0.347416  1.316213  -0.005549  5.27977  -0.002
P  P4  1  0.24139669  0.00230850  0.79678899  1  1.509331  -0.00389  4.76615  -0.001  1.36565  -0.004708  5.268031  -0.003  1.416527  -0.003411  5.228455  -0.002  0.356532  1.329907  -0.005723  5.294906  -0.003
P  P5  1  0.75860256  0.99769336  0.20321001  1  1.509319  0.003899  4.766206  0.001  1.365645  0.004706  5.26807  0.003  1.416539  0.003414  5.228504  0.002  0.356503  1.329901  0.005723  5.29494  0.003
H  H6  1  0.16438885  0.81947347  0.92676935  1  0.437285  -0.000107  0.871373  0.0  0.403301  -8.9e-05  0.940621  0.0  0.414653  -5.9e-05  0.924355  0.0  0.302126  0.395242  -0.000124  0.952131  0.0
H  H7  1  0.83561627  0.18052379  0.07323070  1  0.4373  0.000109  0.87133  0.0  0.403252  8.9e-05  0.9407  0.0  0.4146  5.9e-05  0.924441  0.0  0.302103  0.39519  0.000124  0.952213  0.0
H  H8  1  0.98792305  0.24474777  0.67752129  1  0.438947  -1e-05  0.868528  0.0  0.404824  7.9e-05  0.937178  0.0  0.416892  5.5e-05  0.919929  0.0  0.299311  0.396045  7.8e-05  0.94972  0.0
H  H9  1  0.01207914  0.75525178  0.32247958  1  0.438927  6e-06  0.868551  0.0  0.404803  -7.9e-05  0.937207  0.0  0.416872  -5.4e-05  0.919957  0.0  0.299301  0.396021  -7.8e-05  0.949752  0.0
H  H10  1  0.09931245  0.00107595  0.31453690  1  0.106255  -0.001503  0.934576  -0.003  0.112573  -0.001101  0.995679  -0.002  0.114838  -0.00074  0.993498  -0.001  0.127365  0.110895  -0.001463  0.997057  -0.003
H  H11  1  0.90068547  0.99892134  0.68546411  1  0.106258  0.001522  0.934675  0.003  0.112579  0.001101  0.995753  0.002  0.114838  0.000739  0.993594  0.001  0.127343  0.110903  0.001462  0.997132  0.003
H  H12  1  0.10303401  0.08727497  0.49277053  1  0.119781  -0.000379  0.947937  0.0  0.130221  -0.000391  1.001954  -0.001  0.133434  -0.00028  1.001238  0.0  0.112036  0.127507  -0.000536  1.003025  -0.001
H  H13  1  0.89696597  0.91272231  0.50723046  1  0.119714  0.000379  0.948016  0.0  0.130196  0.000391  1.001981  0.001  0.133408  0.000279  1.001266  0.0  0.112019  0.127485  0.000536  1.00305  0.001
H  H14  1  0.14294108  0.32531027  0.42521598  1  0.114948  -0.00038  0.923656  -0.001  0.126505  -6.2e-05  0.977065  0.0  0.12925  -1.8e-05  0.975003  0.0  0.116775  0.124442  -8.1e-05  0.978566  0.0
H  H15  1  0.85706095  0.67468699  0.57478499  1  0.11494  0.000378  0.923678  0.001  0.1265  6.2e-05  0.977075  0.0  0.129245  1.8e-05  0.97501  0.0  0.116783  0.124436  8.1e-05  0.978575  0.0
H  H16  1  0.17881192  0.47424589  0.18608000  1  0.123721  -0.00068  0.95929  -0.001  0.132316  -0.000563  1.019374  -0.001  0.135515  -0.000375  1.018297  -0.001  0.110115  0.129769  -0.000822  1.020458  -0.001
H  H17  1  0.82118805  0.52575139  0.81392010  1  0.123703  0.000702  0.959273  0.001  0.132292  0.000564  1.019362  0.001  0.135489  0.000375  1.018288  0.001  0.110103  0.129744  0.000822  1.020446  0.001
H  H18  1  0.21859140  0.57576625  0.98224751  1  0.13064  -0.00077  0.961005  -0.001  0.140306  -0.000688  1.018187  -0.001  0.143535  -0.00047  1.016921  -0.001  0.114506  0.137961  -0.00079  1.019181  -0.001
H  H19  1  0.78140903  0.42422988  0.01775576  1  0.130678  0.000768  0.961037  0.001  0.14037  0.000688  1.018179  0.001  0.143599  0.00047  1.016914  0.001  0.114529  0.138024  0.00079  1.019173  0.001
H  H20  1  0.24831616  0.68367861  0.74011628  1  0.104725  -0.000314  0.945642  -0.001  0.115831  2e-06  1.003178  0.0  0.118505  2.2e-05  1.000989  0.0  0.110943  0.113525  -3.2e-05  1.005405  0.0
H  H21  1  0.75168089  0.31632097  0.25988463  1  0.104717  0.000314  0.945639  0.001  0.115854  -2e-06  1.003141  0.0  0.118531  -2.2e-05  1.000953  0.0  0.110941  0.113547  3.2e-05  1.00537  0.0
H  H22  1  0.22913620  0.54657031  0.60980779  1  0.114284  -0.000537  0.945785  0.0  0.127485  -0.000581  0.997484  -0.001  0.130271  -0.000412  0.997213  0.0  0.115069  0.125169  -0.000643  0.998226  -0.001
H  H23  1  0.77086231  0.45342813  0.39019272  1  0.114271  0.000541  0.945796  0.0  0.127473  0.000582  0.997488  0.001  0.130258  0.000412  0.997219  0.0  0.115073  0.125155  0.000643  0.998234  0.001
H  H24  1  0.19088308  0.30231141  0.73490934  1  0.093933  -0.001651  0.963714  -0.003  0.100476  -0.001301  1.02653  -0.002  0.102545  -0.000918  1.02447  -0.002  0.125278  0.098521  -0.001658  1.02846  -0.003
H  H25  1  0.80912042  0.69768470  0.26509212  1  0.093939  0.001639  0.963669  0.003  0.100469  0.001301  1.026504  0.002  0.102541  0.000918  1.024437  0.002  0.125269  0.098513  0.001658  1.028433  0.003
H  H26  1  0.50218860  0.85067676  0.85111855  1  0.131282  0.000308  0.936705  0.0  0.145627  -1.2e-05  0.99174  0.0  0.147692  -1.6e-05  0.991817  0.0  0.103153  0.144295  -1.2e-05  0.991651  0.0
H  H27  1  0.49781330  0.14932624  0.14887992  1  0.131307  -0.000305  0.936632  0.0  0.145628  1.3e-05  0.991689  0.0  0.147701  1.7e-05  0.991771  0.0  0.103164  0.144296  1.2e-05  0.991601  0.0
H  H28  1  0.42306049  0.89702365  0.68691384  1  0.129312  -0.00117  0.94639  -0.001  0.144143  -0.000771  1.004147  -0.001  0.145855  -0.000491  1.004393  -0.001  0.105377  0.143047  -0.000999  1.003946  -0.001
H  H29  1  0.57694082  0.10297821  0.31308514  1  0.129323  0.00116  0.946374  0.001  0.144152  0.000773  1.004124  0.001  0.145871  0.000491  1.004376  0.001  0.105385  0.143055  0.000999  1.003928  0.001
H  H30  1  0.43169199  0.10720133  0.48678965  1  0.081651  0.000187  0.994359  0.0  0.092876  5.2e-05  1.060513  0.0  0.095054  3.9e-05  1.060815  0.0  0.093708  0.091411  6e-05  1.060435  0.0
H  H31  1  0.56830888  0.89280167  0.51320883  1  0.081628  -0.000188  0.994353  0.0  0.092848  -5.2e-05  1.060517  0.0  0.095025  -4e-05  1.06082  0.0  0.093697  0.091383  -6e-05  1.060439  0.0
H  H32  1  0.52452437  0.31440975  0.37560327  1  0.075672  -4.2e-05  0.964007  0.0  0.088757  1e-05  1.022342  0.0  0.091424  3e-06  1.020838  0.0  0.093739  0.086546  1.3e-05  1.023881  0.0
H  H33  1  0.47547504  0.68559440  0.62439563  1  0.075669  4.1e-05  0.964045  0.0  0.088756  -1e-05  1.022373  0.0  0.091419  -3e-06  1.020876  0.0  0.093731  0.086544  -1.3e-05  1.023914  0.0
H  H34  1  0.61912045  0.40303492  0.51590264  1  0.088649  0.000176  0.985771  0.0  0.098403  5.5e-05  1.052032  0.0  0.10113  3.6e-05  1.05124  0.0  0.095809  0.096343  4.4e-05  1.053122  0.0
H  H35  1  0.38088174  0.59696464  0.48409823  1  0.088694  -0.00017  0.98574  0.0  0.098451  -5.5e-05  1.051993  0.0  0.101178  -3.6e-05  1.051202  0.0  0.095825  0.096382  -4.4e-05  1.053092  0.0
H  H36  1  0.52865663  0.07593280  0.87540820  1  0.111597  -0.000161  0.94932  0.0  0.120565  -0.000223  1.01692  0.0  0.12411  -0.000193  1.014217  0.0  0.10002  0.117683  -0.000236  1.019315  0.0
H  H37  1  0.47134365  0.92406906  0.12459079  1  0.111592  0.000173  0.949329  0.0  0.120566  0.000224  1.016924  0.0  0.124112  0.000193  1.014217  0.0  0.100021  0.117685  0.000236  1.019315  0.0
H  H38  1  0.59592899  0.42780507  0.73370355  1  0.13025  7.2e-05  0.949096  0.0  0.145235  3.5e-05  1.006899  0.0  0.147425  8e-06  1.006638  0.0  0.104373  0.143538  5.9e-05  1.007275  0.0
H  H39  1  0.40407423  0.57219447  0.26629999  1  0.130226  -6.8e-05  0.949074  0.0  0.145198  -3.4e-05  1.006904  0.0  0.147387  -9e-06  1.00664  0.0  0.104356  0.143503  -5.9e-05  1.007281  0.0
H  H40  1  0.59755296  0.26608951  0.88617322  1  0.14413  4.8e-05  0.93671  0.0  0.15878  2.8e-05  0.98948  0.0  0.161637  1.6e-05  0.988652  0.0  0.108317  0.156627  2.9e-05  0.990334  0.0
H  H41  1  0.40244923  0.73391005  0.11382854  1  0.144136  -3.7e-05  0.936733  0.0  0.158801  -2.8e-05  0.989475  0.0  0.161657  -1.7e-05  0.988647  0.0  0.10833  0.156649  -2.9e-05  0.990331  0.0
C  C42  1  0.11883213  0.10283579  0.29373426  1  0.149577  0.008013  3.667375  0.009  0.121317  0.000911  3.925729  0.002  0.131025  0.001885  3.944396  0.003  0.058762  0.115212  0.000125  3.912474  0.001
C  C43  1  0.88116535  0.89716265  0.70626536  1  0.149531  -0.008101  3.667488  -0.009  0.121282  -0.000912  3.925828  -0.002  0.130987  -0.001884  3.944493  -0.003  0.058817  0.115175  -0.000125  3.912578  -0.001
C  C44  1  0.11996785  0.15149711  0.38952070  1  -0.11484  -0.010831  3.696902  -0.012  -0.127619  -0.004146  3.94632  -0.005  -0.13604  -0.003522  3.967325  -0.004  -0.075732  -0.121428  -0.004731  3.931748  -0.006
C  C45  1  0.88003110  0.84850018  0.61047940  1  -0.114773  0.01084  3.696869  0.012  -0.12759  0.004143  3.946276  0.005  -0.13601  0.00352  3.967277  0.004  -0.075743  -0.121402  0.004731  3.931702  0.006
C  C46  1  0.14271725  0.28557790  0.35141528  1  0.011144  0.008907  3.701914  0.008  -0.007661  0.002601  3.953375  0.003  -0.002252  0.002665  3.970363  0.003  -0.058573  -0.01142  0.00258  3.941751  0.002
C  C47  1  0.85728229  0.71442053  0.64858521  1  0.011169  -0.008868  3.701887  -0.008  -0.007628  -0.002602  3.953342  -0.003  -0.002219  -0.002661  3.970327  -0.003  -0.058563  -0.011387  -0.00258  3.941717  -0.002
C  C48  1  0.16517484  0.36679789  0.21928830  1  -0.134751  -0.007216  3.665089  -0.007  -0.152457  -0.002532  3.909866  -0.003  -0.160363  -0.002245  3.931109  -0.002  -0.074636  -0.147526  -0.002782  3.895776  -0.003
C  C49  1  0.83482411  0.63319940  0.78071181  1  -0.134771  0.007129  3.664984  0.007  -0.152457  0.002537  3.9098  0.003  -0.160362  0.00224  3.931044  0.002  -0.074657  -0.147523  0.002782  3.895704  0.003
C  C50  1  0.16530497  0.31011173  0.12881206  1  0.165973  0.003439  3.774397  0.004  0.1626  -0.000845  4.023342  0.0  0.170313  0.000231  4.045016  0.001  0.117664  0.157568  -0.001691  4.008809  -0.001
C  C51  1  0.83469251  0.68988671  0.87118846  1  0.166041  -0.003436  3.774342  -0.004  0.162561  0.000837  4.023428  0.0  0.170271  -0.000227  4.045103  -0.001  0.117693  0.157528  0.001691  4.008899  0.001
C  C52  1  0.18954023  0.38226561  0.98716425  1  0.162677  0.004551  3.776588  0.005  0.160119  -0.000398  4.024683  0.0  0.16831  0.000669  4.045173  0.001  0.115699  0.154649  -0.001217  4.011001  -0.001
C  C53  1  0.81045725  0.61773283  0.01283537  1  0.162668  -0.004601  3.776584  -0.005  0.16017  0.000389  4.024667  0.0  0.168371  -0.000668  4.045144  -0.001  0.115709  0.154701  0.001217  4.010992  0.001
C  C54  1  0.21558718  0.51662760  0.92548832  1  -0.12993  -0.007832  3.665704  -0.008  -0.148019  -0.002625  3.908022  -0.003  -0.155039  -0.002428  3.92802  -0.003  -0.075383  -0.143636  -0.003001  3.894772  -0.003
C  C55  1  0.78440987  0.48337199  0.07451170  1  -0.130026  0.007858  3.665697  0.008  -0.148161  0.002631  3.908033  0.003  -0.155185  0.002425  3.92803  0.003  -0.07544  -0.143777  0.003001  3.894783  0.003
C  C56  1  0.23192860  0.57670641  0.78899892  1  0.001328  0.009706  3.708883  0.009  -0.018186  0.00276  3.95887  0.003  -0.01344  0.002872  3.976672  0.003  -0.063267  -0.021427  0.002706  3.947029  0.003
C  C57  1  0.76806888  0.42329203  0.21100160  1  0.001387  -0.009716  3.708766  -0.009  -0.018144  -0.002761  3.958746  -0.003  -0.013405  -0.00287  3.976554  -0.003  -0.063235  -0.021384  -0.002706  3.946905  -0.003
C  C58  1  0.22191889  0.50137611  0.71765201  1  -0.107197  -0.011177  3.69678  -0.012  -0.117621  -0.00429  3.941277  -0.005  -0.125788  -0.003768  3.963061  -0.005  -0.07219  -0.111766  -0.004862  3.92619  -0.006
C  C59  1  0.77807962  0.49862232  0.28234849  1  -0.107169  0.0112  3.696804  0.012  -0.117603  0.004284  3.941301  0.005  -0.125771  0.003766  3.963087  0.005  -0.072172  -0.111745  0.004862  3.926206  0.006
C  C60  1  0.19870894  0.36613781  0.78568823  1  0.153168  0.008805  3.657203  0.01  0.125612  0.000939  3.910309  0.002  0.135376  0.001947  3.928541  0.003  0.060741  0.119374  0.00018  3.89821  0.002
C  C61  1  0.80129206  0.63385946  0.21431275  1  0.153148  -0.008814  3.657268  -0.01  0.125608  -0.000933  3.910351  -0.002  0.135375  -0.001946  3.928586  -0.003  0.060719  0.119373  -0.000181  3.898252  -0.002
C  C62  1  0.42695965  0.94475732  0.75472403  1  -0.478436  -0.007753  3.702965  -0.008  -0.502449  -0.003995  3.942246  -0.004  -0.512369  -0.002665  3.950619  -0.003  -0.166812  -0.494961  -0.005226  3.936044  -0.005
C  C63  1  0.57304019  0.05524568  0.24527536  1  -0.478429  0.007771  3.702888  0.008  -0.502439  0.003989  3.942155  0.004  -0.512408  0.002665  3.950592  0.003  -0.166827  -0.494951  0.005226  3.935951  0.005
C  C64  1  0.47849078  0.07393586  0.68891789  1  0.158142  0.000918  3.774547  0.001  0.177323  0.000108  4.012564  0.0  0.179904  0.000128  4.037264  0.0  -0.00944  0.175261  9.1e-05  3.996173  0.0
C  C65  1  0.52150906  0.92606715  0.31108060  1  0.158008  -0.000907  3.774633  -0.001  0.177273  -0.000105  4.012521  0.0  0.179865  -0.000133  4.037228  0.0  -0.009455  0.175211  -9.1e-05  3.996128  0.0
C  C66  1  0.47504821  0.14459555  0.54780285  1  -0.140487  -0.003876  3.758965  -0.004  -0.165159  -0.000615  4.010278  -0.001  -0.168858  -0.000336  4.032025  0.0  -0.103855  -0.163684  -0.000748  3.996384  -0.001
C  C67  1  0.52495119  0.85540861  0.45219426  1  -0.14035  0.003851  3.758889  0.004  -0.165053  0.000611  4.010194  0.001  -0.168751  0.000341  4.031936  0.0  -0.10381  -0.163579  0.000748  3.996299  0.001
C  C68  1  0.52590577  0.26202103  0.48549628  1  -0.072748  0.002288  3.822917  0.002  -0.083404  4.2e-05  4.074984  0.0  -0.084033  3.4e-05  4.096146  0.0  -0.10056  -0.082294  5e-05  4.060817  0.0
C  C69  1  0.47409510  0.73798196  0.51450668  1  -0.072696  -0.002261  3.822804  -0.002  -0.083352  -4e-05  4.074857  0.0  -0.08398  -4e-05  4.096019  0.0  -0.10049  -0.082242  -5e-05  4.060687  0.0
C  C70  1  0.57813720  0.31224735  0.56320629  1  -0.139529  -0.004164  3.753387  -0.004  -0.163206  -0.000535  4.002912  0.0  -0.166983  -0.000287  4.024506  0.0  -0.102521  -0.16137  -0.000689  3.989365  -0.001
C  C71  1  0.42186368  0.68775565  0.43679398  1  -0.139734  0.004139  3.753276  0.004  -0.163387  0.000533  4.00284  0.0  -0.167165  0.000295  4.024436  0.0  -0.102633  -0.161544  0.000689  3.989302  0.001
C  C72  1  0.57696783  0.24772697  0.70374365  1  0.152047  0.001105  3.785763  0.001  0.172893  -7.1e-05  4.022377  0.0  0.174622  -5e-05  4.048579  0.0  -0.008346  0.170653  -0.00011  4.005356  0.0
C  C73  1  0.42303201  0.75227603  0.29625574  1  0.152253  -0.001088  3.785649  -0.001  0.173014  7.8e-05  4.022383  0.0  0.174741  4.4e-05  4.048589  0.0  -0.008257  0.170776  0.00011  4.005359  0.0
C  C74  1  0.52813520  0.12781874  0.76564976  1  -0.194485  -0.001739  3.673629  -0.001  -0.229217  -0.000505  3.93623  0.0  -0.234161  -0.000462  3.955944  0.0  -0.097127  -0.225037  -0.00077  3.922835  0.0
C  C75  1  0.47186405  0.87218313  0.23434924  1  -0.194538  0.001704  3.673724  0.001  -0.229286  0.0005  3.936344  0.0  -0.234225  0.000468  3.956046  0.0  -0.097179  -0.225103  0.000769  3.92294  0.0
C  C76  1  0.63384629  0.30223175  0.78696724  1  -0.491811  -0.000864  3.713363  -0.001  -0.511225  -0.0005  3.942196  0.0  -0.521281  -0.000459  3.95104  0.0  -0.16753  -0.503887  -0.000475  3.936415  0.0
C  C77  1  0.36615546  0.69776895  0.21303402  1  -0.491859  0.000823  3.713351  0.001  -0.511238  0.000496  3.942177  0.0  -0.521291  0.00046  3.95102  0.0  -0.167553  -0.503908  0.000475  3.936411  0.0
N  N78  1  0.14145646  0.18057110  0.16716710  1  -0.330647  -0.084992  3.318358  -0.105  -0.292539  -0.057748  3.61807  -0.077  -0.323353  -0.046688  3.639945  -0.066  -0.343368  -0.27336  -0.064255  3.604318  -0.083
N  N79  1  0.85854059  0.81942848  0.83283291  1  -0.330588  0.085052  3.318365  0.105  -0.292461  0.057758  3.618105  0.077  -0.323295  0.046683  3.640016  0.066  -0.34337  -0.273299  0.064254  3.604369  0.083
N  N80  1  0.18349228  0.30855513  0.91704416  1  -0.329416  -0.087511  3.316763  -0.108  -0.29078  -0.060127  3.61519  -0.079  -0.321204  -0.049128  3.635336  -0.068  -0.341338  -0.272112  -0.066984  3.602912  -0.085
N  N81  1  0.81650608  0.69144101  0.08295735  1  -0.329417  0.087557  3.316818  0.108  -0.290777  0.060133  3.615184  0.079  -0.321227  0.049124  3.635365  0.068  -0.341328  -0.272131  0.066984  3.602924  0.085
O  O82  1  0.88338492  0.25458084  0.93532737  1  -0.868069  -0.000861  1.991415  -0.002  -0.801766  -0.000489  2.257927  -0.002  -0.82853  -3.8e-05  2.23571  -0.001  -0.3738  -0.782502  -0.000695  2.272689  -0.002
O  O83  1  0.11661902  0.74541413  0.06467459  1  -0.868051  0.000875  1.991283  0.002  -0.801823  0.000492  2.257856  0.002  -0.828602  3.9e-05  2.235663  0.001  -0.373809  -0.782568  0.000695  2.272623  0.002
O  O84  1  0.89990810  0.05514134  0.85824285  1  -0.823943  0.074013  2.101899  0.094  -0.775568  0.044669  2.413367  0.061  -0.814624  0.034361  2.396291  0.049  -0.383343  -0.748145  0.052262  2.424707  0.069
O  O85  1  0.10009291  0.94485594  0.14175724  1  -0.823977  -0.074014  2.101823  -0.094  -0.775594  -0.044662  2.413292  -0.061  -0.814623  -0.034362  2.396182  -0.049  -0.383358  -0.748153  -0.05226  2.424622  -0.069
O  O86  1  0.26134212  0.02046856  0.92265335  1  -0.85787  -0.061985  2.074859  -0.081  -0.808784  -0.038166  2.393457  -0.054  -0.845514  -0.029318  2.371426  -0.043  -0.395654  -0.783212  -0.044021  2.408238  -0.06
O  O87  1  0.73865420  0.97953561  0.07734468  1  -0.857801  0.061983  2.074782  0.081  -0.808735  0.03817  2.393394  0.054  -0.845487  0.029314  2.3714  0.043  -0.395625  -0.783179  0.044022  2.408181  0.06
O  O88  1  0.13475229  0.14389403  0.67103685  1  -0.840406  0.000153  1.923728  0.0  -0.763288  0.000285  2.15755  0.0  -0.788402  0.000391  2.138133  0.0  -0.369237  -0.744686  0.000192  2.170586  0.0
O  O89  1  0.86524799  0.85610783  0.32896125  1  -0.840405  -0.000156  1.923768  0.0  -0.763289  -0.000284  2.157597  0.0  -0.788409  -0.000391  2.138177  0.0  -0.369231  -0.744687  -0.000192  2.170634  0.0
O  O90  1  0.20543749  0.85570175  0.83690286  1  -0.76992  0.000319  2.008117  0.0  -0.700466  -0.000144  2.23747  0.0  -0.721127  -7.9e-05  2.212411  0.0  -0.39746  -0.685819  -0.000221  2.254977  0.0
O  O91  1  0.79456528  0.14429895  0.16309482  1  -0.769912  -0.000323  2.008113  0.0  -0.700434  0.000146  2.237557  0.0  -0.72109  7.8e-05  2.212488  0.0  -0.39743  -0.685788  0.000221  2.255068  0.0
O  O92  1  0.88559689  0.31531124  0.68668917  1  -0.755931  0.011191  1.935518  0.014  -0.691394  0.00648  2.154866  0.009  -0.714195  0.004157  2.131325  0.006  -0.396185  -0.674207  0.008271  2.171452  0.011
O  O93  1  0.11440617  0.68468602  0.31331358  1  -0.755918  -0.011171  1.935533  -0.014  -0.691376  -0.006476  2.154877  -0.009  -0.714176  -0.004157  2.131333  -0.006  -0.39616  -0.674187  -0.00827  2.171467  -0.011
