# generated using pymatgen
data_CdH25C25N5O7
_symmetry_space_group_name_H-M   'P 1'
_cell_length_a   8.53491168
_cell_length_b   9.45486796
_cell_length_c   17.75490000
_cell_angle_alpha   80.67568708
_cell_angle_beta   77.24112180
_cell_angle_gamma   65.68291849
_symmetry_Int_Tables_number   1
_chemical_formula_structural   CdH25C25N5O7
_chemical_formula_sum   'Cd2 H50 C50 N10 O14'
_cell_volume   1269.32644944
_cell_formula_units_Z   2
loop_
 _symmetry_equiv_pos_site_id
 _symmetry_equiv_pos_as_xyz
  1  'x, y, z'
loop_
 _atom_site_type_symbol
 _atom_site_label
 _atom_site_symmetry_multiplicity
 _atom_site_fract_x
 _atom_site_fract_y
 _atom_site_fract_z
 _atom_site_occupancy
 _atom_site_hle17_bader_spin_density
 _atom_site_hle17_ddec_charge
 _atom_site_hle17_ddec_spin_density
 _atom_site_hle17_ddec_sum_bond_order
 _atom_site_hle17_magmom
 _atom_site_hse06_10hf_bader_spin_density
 _atom_site_hse06_10hf_ddec_charge
 _atom_site_hse06_10hf_ddec_spin_density
 _atom_site_hse06_10hf_ddec_sum_bond_order
 _atom_site_hse06_10hf_magmom
 _atom_site_hse06_bader_spin_density
 _atom_site_hse06_ddec_charge
 _atom_site_hse06_ddec_spin_density
 _atom_site_hse06_ddec_sum_bond_order
 _atom_site_hse06_magmom
 _atom_site_pbe_bader_charge
 _atom_site_pbe_bader_spin_density
 _atom_site_pbe_cm5_charge
 _atom_site_pbe_ddec_charge
 _atom_site_pbe_ddec_spin_density
 _atom_site_pbe_ddec_sum_bond_order
 _atom_site_pbe_magmom
Cd  Cd0  1  0.91845897  0.96145878  0.15801806  1  0  1.128269  0  1.676775  0  0  0.934951  0  2.121445  0  0  0.992394  0  2.069741  0  1.264985  0  0.764963  0.894013  0  2.157155  0
Cd  Cd1  1  0.08154018  0.03854135  0.84198286  1  0  1.128273  0  1.676761  0  0  0.934951  0  2.121436  0  0  0.992396  0  2.06973  0  1.264994  0  0.76495  0.894013  0  2.157146  0
H  H2  1  0.97035101  0.84096773  0.01436183  1  0  0.420245  0  0.890971  0  0  0.387148  0  0.959046  0  0  0.398705  0  0.942318  0  0.643722  0  0.283908  0.378941  0  0.970916  0
H  H3  1  0.02964934  0.15903239  0.98563840  1  0  0.420265  0  0.890944  0  0  0.387166  0  0.959021  0  0  0.398724  0  0.942294  0  0.64372  0  0.283908  0.37896  0  0.970891  0
H  H4  1  0.77472749  0.93802029  0.02374179  1  0  0.422599  0  0.861006  0  0  0.397561  0  0.924349  0  0  0.407052  0  0.91069  0  0.627135  0  0.294109  0.390709  0  0.934274  0
H  H5  1  0.22527286  0.06197983  0.97625844  1  0  0.422582  0  0.861038  0  0  0.397541  0  0.924381  0  0  0.407032  0  0.910722  0  0.627131  0  0.294094  0.390689  0  0.934305  0
H  H6  1  0.45002430  0.51731869  0.14176635  1  0  0.096823  0  0.983743  0  0  0.103412  0  1.0548  0  0  0.106491  0  1.053099  0  0.09491  0  0.100544  0.101131  0  1.056206  0
H  H7  1  0.54997467  0.48267910  0.85823255  1  0  0.096824  0  0.983781  0  0  0.103417  0  1.054825  0  0  0.106493  0  1.053126  0  0.094696  0  0.100551  0.101135  0  1.05623  0
H  H8  1  0.54639517  0.86390554  0.97103608  1  0  0.10873  0  0.953639  0  0  0.116515  0  1.020644  0  0  0.120631  0  1.016801  0  0.131533  0  0.106034  0.113471  0  1.023587  0
H  H9  1  0.45360689  0.13609342  0.02896463  1  0  0.108715  0  0.953638  0  0  0.116499  0  1.020644  0  0  0.120611  0  1.016811  0  0.131512  0  0.106037  0.113452  0  1.023584  0
H  H10  1  0.92484288  0.39115374  0.97498624  1  0  0.102317  0  0.975199  0  0  0.113423  0  1.040049  0  0  0.11671  0  1.037651  0  0.094517  0  0.106382  0.111122  0  1.041742  0
H  H11  1  0.07515901  0.60884289  0.02501301  1  0  0.102321  0  0.975204  0  0  0.113454  0  1.040007  0  0  0.116743  0  1.037607  0  0.094545  0  0.106403  0.111153  0  1.0417  0
H  H12  1  0.86200466  0.78776249  0.89856224  1  0  0.11874  0  0.954063  0  0  0.125862  0  1.024854  0  0  0.128749  0  1.022154  0  0.170183  0  0.120668  0.123649  0  1.026983  0
H  H13  1  0.13799518  0.21223880  0.10143851  1  0  0.118744  0  0.954071  0  0  0.125858  0  1.024851  0  0  0.128746  0  1.022149  0  0.170193  0  0.12067  0.123645  0  1.026981  0
H  H14  1  0.99445265  0.58553598  0.88897879  1  0  0.09076  0  0.927767  0  0  0.104367  0  0.991565  0  0  0.105351  0  0.991312  0  0.093396  0  0.115107  0.10369  0  0.991607  0
H  H15  1  0.00554788  0.41446647  0.11102009  1  0  0.090755  0  0.927773  0  0  0.104339  0  0.991584  0  0  0.105324  0  0.991332  0  0.093463  0  0.115105  0.103664  0  0.991623  0
H  H16  1  0.89204383  0.43937088  0.82748497  1  0  0.114332  0  0.939952  0  0  0.121391  0  1.005264  0  0  0.124528  0  1.002221  0  0.172879  0  0.132125  0.119007  0  1.007691  0
H  H17  1  0.10795721  0.56063041  0.17251452  1  0  0.114347  0  0.939938  0  0  0.121397  0  1.005263  0  0  0.124533  0  1.00222  0  0.172865  0  0.132125  0.119013  0  1.00769  0
H  H18  1  0.76144604  0.44214671  0.71326211  1  0  0.121627  0  0.933664  0  0  0.128803  0  0.995155  0  0  0.133128  0  0.992576  0  0.138243  0  0.116714  0.125359  0  0.997767  0
H  H19  1  0.23855570  0.55785575  0.28673721  1  0  0.121652  0  0.9337  0  0  0.128826  0  0.995182  0  0  0.133152  0  0.992603  0  0.138164  0  0.11673  0.125382  0  0.997794  0
H  H20  1  0.68481644  0.92287784  0.81762473  1  0  0.112583  0  0.933249  0  0  0.120459  0  0.995006  0  0  0.123244  0  0.992836  0  0.161247  0  0.13375  0.118195  0  0.996978  0
H  H21  1  0.31517878  0.07712577  0.18237631  1  0  0.112595  0  0.933267  0  0  0.120486  0  0.995019  0  0  0.12327  0  0.992849  0  0.16127  0  0.133775  0.118221  0  0.996993  0
H  H22  1  0.55326804  0.94230163  0.69877885  1  0  0.11982  0  0.948201  0  0  0.125392  0  1.012217  0  0  0.128983  0  1.011228  0  0.140372  0  0.115041  0.122684  0  1.013345  0
H  H23  1  0.44672769  0.05770082  0.30122167  1  0  0.11983  0  0.948244  0  0  0.125376  0  1.012278  0  0  0.128968  0  1.011292  0  0.140383  0  0.115027  0.122671  0  1.013402  0
H  H24  1  0.75672584  0.24209056  0.28680145  1  0  0.107573  0  0.953164  0  0  0.115032  0  1.019163  0  0  0.117483  0  1.016551  0  0.157867  0  0.135985  0.113281  0  1.020788  0
H  H25  1  0.24327502  0.75790840  0.71319939  1  0  0.107554  0  0.953185  0  0  0.115013  0  1.019183  0  0  0.117467  0  1.016564  0  0.157845  0  0.135973  0.113262  0  1.020808  0
H  H26  1  0.21781529  0.83648612  0.29044715  1  0  0.10323  0  0.955545  0  0  0.114019  0  1.014925  0  0  0.116384  0  1.014173  0  0.13562  0  0.115481  0.112111  0  1.015926  0
H  H27  1  0.78218405  0.16351633  0.70955411  1  0  0.103207  0  0.955524  0  0  0.113995  0  1.014911  0  0  0.11636  0  1.01416  0  0.135603  0  0.115473  0.112093  0  1.015905  0
H  H28  1  0.15411107  0.99357637  0.42128938  1  0  0.122054  0  0.940456  0  0  0.1362  0  0.991755  0  0  0.139479  0  0.989614  0  0.10269  0  0.128445  0.133728  0  0.993573  0
H  H29  1  0.84588997  0.00642492  0.57871180  1  0  0.122071  0  0.940456  0  0  0.136198  0  0.991773  0  0  0.139478  0  0.989629  0  0.102722  0  0.128449  0.133725  0  0.993592  0
H  H30  1  0.85656104  0.21425430  0.48446467  1  0  0.066471  0  0.925167  0  0  0.082366  0  0.986563  0  0  0.083077  0  0.9861  0  0.066121  0  0.106815  0.081866  0  0.986896  0
H  H31  1  0.14343880  0.78574699  0.51553552  1  0  0.066475  0  0.925138  0  0  0.082378  0  0.986537  0  0  0.08309  0  0.986072  0  0.066119  0  0.106831  0.081875  0  0.986876  0
H  H32  1  0.70345310  0.32090698  0.42153248  1  0  0.097568  0  0.963103  0  0  0.108457  0  1.029245  0  0  0.111004  0  1.027518  0  0.123257  0  0.113815  0.106402  0  1.030744  0
H  H33  1  0.29654434  0.67909431  0.57846740  1  0  0.097561  0  0.963133  0  0  0.108455  0  1.029273  0  0  0.111001  0  1.027546  0  0.123275  0  0.113828  0.1064  0  1.030772  0
H  H34  1  0.93216426  0.42990350  0.34594068  1  0  0.058416  0  0.961701  0  0  0.071422  0  1.033194  0  0  0.071194  0  1.035826  0  0.038196  0  0.084355  0.071631  0  1.031231  0
H  H35  1  0.06783369  0.57009662  0.65405925  1  0  0.058383  0  0.961708  0  0  0.071392  0  1.033221  0  0  0.071167  0  1.035843  0  0.0382  0  0.084342  0.0716  0  1.031261  0
H  H36  1  0.05312534  0.34498004  0.42161134  1  0  0.067787  0  0.944611  0  0  0.086341  0  1.005433  0  0  0.086478  0  1.006782  0  0.0338  0  0.089812  0.086251  0  1.004447  0
H  H37  1  0.94687381  0.65502008  0.57838846  1  0  0.067788  0  0.944613  0  0  0.08635  0  1.005424  0  0  0.086486  0  1.006777  0  0.034211  0  0.08982  0.08626  0  1.004439  0
H  H38  1  0.77202843  0.50553657  0.51513460  1  0  0.086665  0  0.944298  0  0  0.105766  0  1.001577  0  0  0.1067  0  1.002287  0  0.081819  0  0.096397  0.104956  0  1.001211  0
H  H39  1  0.22797192  0.49446355  0.48486450  1  0  0.086622  0  0.944306  0  0  0.105723  0  1.001593  0  0  0.106656  0  1.002302  0  0.081796  0  0.09639  0.104912  0  1.001227  0
H  H40  1  0.88783118  0.60768785  0.45199626  1  0  0.065601  0  0.933772  0  0  0.08564  0  0.991993  0  0  0.085931  0  0.993023  0  0.014277  0  0.092  0.085296  0  0.991409  0
H  H41  1  0.11216917  0.39231227  0.54800341  1  0  0.065589  0  0.933747  0  0  0.085628  0  0.991977  0  0  0.085918  0  0.993007  0  0.014278  0  0.091991  0.085282  0  0.991394  0
H  H42  1  0.55374211  0.58376616  0.42722269  1  0  0.097604  0  0.932225  0  0  0.115013  0  0.989316  0  0  0.116753  0  0.988146  0  0.099923  0  0.115394  0.113584  0  0.990373  0
H  H43  1  0.44625704  0.41623397  0.57277710  1  0  0.097556  0  0.932222  0  0  0.115002  0  0.989278  0  0  0.116718  0  0.988139  0  0.099801  0  0.115372  0.113578  0  0.990331  0
H  H44  1  0.57044550  0.74544164  0.45981451  1  0  0.100577  0  0.930615  0  0  0.112855  0  0.994126  0  0  0.115353  0  0.991479  0  0.14136  0  0.111633  0.11084  0  0.996221  0
H  H45  1  0.42955314  0.25455965  0.54018637  1  0  0.100556  0  0.930684  0  0  0.112836  0  0.994188  0  0  0.115334  0  0.991537  0  0.141374  0  0.11163  0.110821  0  0.996285  0
H  H46  1  0.57441513  0.57400070  0.28959605  1  0  0.13274  0  0.975123  0  0  0.138422  0  1.040805  0  0  0.142693  0  1.037514  0  0.166508  0  0.120255  0.135247  0  1.043305  0
H  H47  1  0.42558351  0.42600058  0.71040370  1  0  0.13276  0  0.975112  0  0  0.138449  0  1.04078  0  0  0.14272  0  1.037489  0  0.16651  0  0.120272  0.135274  0  1.043282  0
H  H48  1  0.79407430  0.85814082  0.35042853  1  0  0.101934  0  0.931216  0  0  0.11146  0  0.993279  0  0  0.113985  0  0.9907  0  0.151203  0  0.137836  0.109562  0  0.99515  0
H  H49  1  0.20592485  0.14185931  0.64957183  1  0  0.101935  0  0.931243  0  0  0.111465  0  0.993295  0  0  0.113987  0  0.990725  0  0.15121  0  0.13783  0.109568  0  0.995164  0
H  H50  1  0.70387703  0.72309183  0.15424363  1  0  0.107564  0  0.976615  0  0  0.116321  0  1.039092  0  0  0.118081  0  1.039693  0  0.146987  0  0.110887  0.114948  0  1.03892  0
H  H51  1  0.29612110  0.27691063  0.84575608  1  0  0.107534  0  0.976681  0  0  0.116306  0  1.039144  0  0  0.118068  0  1.039747  0  0.147169  0  0.110864  0.11493  0  1.038977  0
C  C52  1  0.74887238  0.27477403  0.10071453  1  0  0.628291  0  3.942492  0  0  0.578599  0  4.229333  0  0  0.612516  0  4.224198  0  1.540956  0  0.193655  0.555442  0  4.23218  0
C  C53  1  0.25112779  0.72522376  0.89928480  1  0  0.628185  0  3.94255  0  0  0.578471  0  4.229431  0  0  0.612384  0  4.224302  0  1.54101  0  0.193625  0.555313  0  4.232277  0
C  C54  1  0.69259279  0.43681512  0.06253980  1  0  -0.067288  0  3.781248  0  0  -0.039306  0  4.015373  0  0  -0.048956  0  4.039031  0  0.01773  0  -0.020731  -0.033312  0  3.999539  0
C  C55  1  0.30740927  0.56318384  0.93745866  1  0  -0.067172  0  3.781155  0  0  -0.039179  0  4.01528  0  0  -0.048825  0  4.03894  0  0.017731  0  -0.020717  -0.033185  0  3.999445  0
C  C56  1  0.53227362  0.54957950  0.09202098  1  0  -0.058875  0  3.696992  0  0  -0.09615  0  3.942207  0  0  -0.092821  0  3.961107  0  -0.100412  0  -0.074653  -0.097688  0  3.929116  0
C  C57  1  0.46772637  0.45041596  0.90797688  1  0  -0.059032  0  3.697077  0  0  -0.09631  0  3.942316  0  0  -0.092982  0  3.961215  0  -0.100268  0  -0.074758  -0.09785  0  3.929224  0
C  C58  1  0.47829795  0.70280642  0.05883472  1  0  -0.065377  0  3.76454  0  0  -0.037438  0  3.998196  0  0  -0.047092  0  4.021558  0  0.039729  0  -0.018727  -0.031591  0  3.982598  0
C  C59  1  0.52170342  0.29719138  0.94116560  1  0  -0.065311  0  3.764386  0  0  -0.037372  0  3.99803  0  0  -0.047024  0  4.02139  0  0.039787  0  -0.018685  -0.031526  0  3.982431  0
C  C60  1  0.58651434  0.74335395  0.99556912  1  0  -0.086972  0  3.662029  0  0  -0.1248  0  3.911739  0  0  -0.122383  0  3.929122  0  -0.069193  0  -0.075159  -0.125833  0  3.899898  0
C  C61  1  0.41348532  0.25664501  0.00443128  1  0  -0.086857  0  3.661929  0  0  -0.124675  0  3.911661  0  0  -0.12226  0  3.929044  0  -0.069344  0  -0.075121  -0.125701  0  3.899811  0
C  C62  1  0.74656792  0.63080381  0.96496670  1  0  0.06345  0  3.753237  0  0  0.088412  0  3.997712  0  0  0.084924  0  4.022078  0  0.04064  0  -0.014064  0.090756  0  3.981207  0
C  C63  1  0.25343415  0.36919515  0.03503232  1  0  0.063408  0  3.753226  0  0  0.088324  0  3.997752  0  0  0.084837  0  4.022118  0  0.040788  0  -0.014066  0.090669  0  3.981247  0
C  C64  1  0.79902813  0.47800072  0.99834318  1  0  -0.108954  0  3.696824  0  0  -0.146567  0  3.94704  0  0  -0.145173  0  3.966558  0  -0.108257  0  -0.081469  -0.147334  0  3.933941  0
C  C65  1  0.20097342  0.52199940  0.00165580  1  0  -0.108991  0  3.696805  0  0  -0.146605  0  3.947039  0  0  -0.145215  0  3.966559  0  -0.108232  0  -0.081492  -0.147373  0  3.933941  0
C  C66  1  0.86056248  0.67359040  0.89527407  1  0  -0.070436  0  3.603026  0  0  -0.13955  0  3.849618  0  0  -0.135391  0  3.858876  0  0.19486  0  -0.050296  -0.142181  0  3.843392  0
C  C67  1  0.13943787  0.32640973  0.10472560  1  0  -0.070432  0  3.602973  0  0  -0.13948  0  3.849516  0  0  -0.13532  0  3.858773  0  0.194769  0  -0.050289  -0.142112  0  3.843292  0
C  C68  1  0.30585805  0.82423594  0.09102740  1  0  0.64739  0  3.93369  0  0  0.596787  0  4.227472  0  0  0.631611  0  4.21974  0  1.569769  0  0.200589  0.573144  0  4.231832  0
C  C69  1  0.69414351  0.17576419  0.90897327  1  0  0.647317  0  3.933741  0  0  0.596723  0  4.227507  0  0  0.631548  0  4.219774  0  1.569533  0  0.200597  0.57308  0  4.231865  0
C  C70  1  0.81906035  0.54697018  0.79605515  1  0  0.086727  0  3.601085  0  0  0.04322  0  3.857747  0  0  0.052036  0  3.871017  0  0.336243  0  0.064345  0.037277  0  3.849314  0
C  C71  1  0.18093829  0.45303111  0.20394460  1  0  0.086656  0  3.601121  0  0  0.043151  0  3.857789  0  0  0.051966  0  3.87106  0  0.336214  0  0.064336  0.037204  0  3.849363  0
C  C72  1  0.74608184  0.55042017  0.73354811  1  0  -0.102811  0  3.703791  0  0  -0.124828  0  3.96143  0  0  -0.130003  0  3.976449  0  0.080816  0  -0.063167  -0.121746  0  3.952368  0
C  C73  1  0.25391869  0.44958228  0.26645077  1  0  -0.102793  0  3.703852  0  0  -0.124813  0  3.961469  0  0  -0.129989  0  3.976489  0  0.08087  0  -0.063199  -0.121731  0  3.952407  0
C  C74  1  0.64816619  0.69321212  0.69752934  1  0  0.039099  0  3.650881  0  0  0.047774  0  3.890901  0  0  0.051493  0  3.90475  0  -0.069513  0  0.023574  0.044878  0  3.882028  0
C  C75  1  0.35183194  0.30679033  0.30247150  1  0  0.039042  0  3.650863  0  0  0.047759  0  3.890831  0  0  0.051476  0  3.904678  0  -0.069528  0  0.023584  0.044865  0  3.881954  0
C  C76  1  0.69904718  0.82206790  0.79031436  1  0  0.10399  0  3.567466  0  0  0.061185  0  3.818887  0  0  0.070054  0  3.833235  0  0.390881  0  0.070675  0.055437  0  3.809593  0
C  C77  1  0.30095317  0.17793222  0.20968587  1  0  0.103977  0  3.567466  0  0  0.061124  0  3.818926  0  0  0.069993  0  3.833272  0  0.390784  0  0.070636  0.055375  0  3.809636  0
C  C78  1  0.62784585  0.83006004  0.72622478  1  0  -0.093273  0  3.687053  0  0  -0.11654  0  3.945246  0  0  -0.122098  0  3.962437  0  0.079176  0  -0.062175  -0.113271  0  3.93449  0
C  C79  1  0.37215330  0.16994008  0.27377615  1  0  -0.093271  0  3.687043  0  0  -0.116506  0  3.945238  0  0  -0.122067  0  3.962431  0  0.079229  0  -0.062143  -0.113239  0  3.934484  0
C  C80  1  0.56206866  0.69816413  0.62986301  1  0  0.597408  0  4.020921  0  0  0.555008  0  4.326418  0  0  0.585867  0  4.320186  0  1.633812  0  0.183239  0.534235  0  4.329442  0
C  C81  1  0.43792948  0.30183832  0.37013669  1  0  0.597348  0  4.021022  0  0  0.554908  0  4.326572  0  0  0.58577  0  4.320338  0  1.6338  0  0.183184  0.534136  0  4.329593  0
C  C82  1  0.87408388  0.15230125  0.30457838  1  0  0.166184  0  3.646833  0  0  0.104229  0  3.912532  0  0  0.11802  0  3.926177  0  0.995951  0  0.140195  0.095841  0  3.902445  0
C  C83  1  0.12591629  0.84769654  0.69542264  1  0  0.166155  0  3.646885  0  0  0.104204  0  3.912576  0  0  0.117995  0  3.926224  0  0.995926  0  0.140196  0.095817  0  3.902487  0
C  C84  1  0.11136769  0.94329832  0.30937318  1  0  -0.017713  0  3.79778  0  0  -0.052041  0  4.070018  0  0  -0.050789  0  4.091649  0  0.309942  0  -0.01178  -0.052921  0  4.05591  0
C  C85  1  0.88863266  0.05670181  0.69062762  1  0  -0.017677  0  3.797737  0  0  -0.052001  0  4.069966  0  0  -0.050749  0  4.091598  0  0.309975  0  -0.011777  -0.052888  0  4.055855  0
C  C86  1  0.08071977  0.01843175  0.37471987  1  0  -0.080659  0  3.69854  0  0  -0.121287  0  3.957257  0  0  -0.119912  0  3.976133  0  0.374046  0  -0.002373  -0.122303  0  3.944892  0
C  C87  1  0.91928160  0.98156604  0.62528046  1  0  -0.080718  0  3.698584  0  0  -0.121331  0  3.957319  0  0  -0.119957  0  3.976195  0  0.374057  0  -0.002377  -0.122348  0  3.944956  0
C  C88  1  0.84292476  0.27095029  0.42581893  1  0  -0.007822  0  3.608346  0  0  -0.067205  0  3.863293  0  0  -0.063395  0  3.873473  0  0.27321  0  -0.05542  -0.069644  0  3.856416  0
C  C89  1  0.15707388  0.72905100  0.57418139  1  0  -0.007772  0  3.608338  0  0  -0.067175  0  3.863316  0  0  -0.063364  0  3.873492  0  0.273734  0  -0.05544  -0.069615  0  3.856439  0
C  C90  1  0.91971643  0.39546186  0.40857997  1  0  -0.12771  0  3.687465  0  0  -0.170335  0  3.953858  0  0  -0.17199  0  3.969272  0  -0.041569  0  -0.168362  -0.168988  0  3.942971  0
C  C91  1  0.08028272  0.60453827  0.59141983  1  0  -0.127702  0  3.687469  0  0  -0.170341  0  3.953886  0  0  -0.171995  0  3.969299  0  -0.04252  0  -0.168353  -0.168992  0  3.942995  0
C  C92  1  0.80930486  0.53922721  0.45366966  1  0  -0.123859  0  3.670166  0  0  -0.165141  0  3.934046  0  0  -0.167039  0  3.948696  0  -0.024826  0  -0.162339  -0.163637  0  3.923812  0
C  C93  1  0.19069498  0.46077407  0.54632997  1  0  -0.123776  0  3.670144  0  0  -0.165068  0  3.934043  0  0  -0.166956  0  3.948678  0  -0.024471  0  -0.16231  -0.163561  0  3.92381  0
C  C94  1  0.63944979  0.64563188  0.42415737  1  0  -0.019471  0  3.583318  0  0  -0.081884  0  3.83847  0  0  -0.0781  0  3.848239  0  0.226684  0  -0.057188  -0.084157  0  3.831821  0
C  C95  1  0.36054936  0.35436824  0.57584243  1  0  -0.019391  0  3.583324  0  0  -0.081819  0  3.838459  0  0  -0.07802  0  3.84823  0  0.226461  0  -0.057176  -0.084108  0  3.83183  0
C  C96  1  0.63991258  0.65426209  0.28017666  1  0  -0.077376  0  3.66667  0  0  -0.11534  0  3.921178  0  0  -0.114483  0  3.939915  0  0.242576  0  -0.004954  -0.115619  0  3.908375  0
C  C97  1  0.36008657  0.34573803  0.71982426  1  0  -0.077359  0  3.666746  0  0  -0.115326  0  3.921252  0  0  -0.114468  0  3.93999  0  0.242552  0  -0.004953  -0.115605  0  3.908446  0
C  C98  1  0.75479486  0.80086033  0.31422764  1  0  0.153681  0  3.666519  0  0  0.092094  0  3.933613  0  0  0.106007  0  3.946754  0  0.993448  0  0.136766  0.083212  0  3.924337  0
C  C99  1  0.24520429  0.19913980  0.68577329  1  0  0.153731  0  3.666562  0  0  0.092144  0  3.933654  0  0  0.106057  0  3.946793  0  0.993465  0  0.136796  0.083262  0  3.924374  0
C  C100  1  0.70374420  0.72797397  0.21486528  1  0  -0.021461  0  3.780145  0  0  -0.053801  0  4.044486  0  0  -0.053285  0  4.067907  0  0.392029  0  -0.01778  -0.054128  0  4.028508  0
C  C101  1  0.29625513  0.27202848  0.78513486  1  0  -0.02143  0  3.78029  0  0  -0.053781  0  4.04461  0  0  -0.05327  0  4.068036  0  0.392161  0  -0.01776  -0.054108  0  4.028632  0
N  N102  1  0.79358784  0.68176534  0.82358731  1  0  -0.00258  0  3.536813  0  0  0.094394  0  3.746004  0  0  0.080735  0  3.771724  0  -1.214503  0  -0.208137  0.103129  0  3.72866  0
N  N103  1  0.20641080  0.31823595  0.17641413  1  0  -0.002537  0  3.536774  0  0  0.094442  0  3.745954  0  0  0.080783  0  3.771674  0  -1.214398  0  -0.208123  0.103177  0  3.728611  0
N  N104  1  0.98161007  0.02863384  0.26593540  1  0  -0.409249  0  3.26318  0  0  -0.336188  0  3.553453  0  0  -0.358064  0  3.571818  0  -1.244415  0  -0.360145  -0.321073  0  3.540304  0
N  N105  1  0.01839199  0.97136512  0.73406419  1  0  -0.409235  0  3.263257  0  0  -0.336175  0  3.553529  0  0  -0.358051  0  3.571896  0  -1.244415  0  -0.360157  -0.321061  0  3.540382  0
N  N106  1  0.92923537  0.15006802  0.37096595  1  0  -0.050898  0  3.562117  0  0  0.044666  0  3.780279  0  0  0.030346  0  3.806556  0  -1.231427  0  -0.240529  0.05393  0  3.762299  0
N  N107  1  0.07076549  0.84993094  0.62903433  1  0  -0.05087  0  3.562157  0  0  0.044695  0  3.780324  0  0  0.030376  0  3.806602  0  -1.231447  0  -0.240521  0.05396  0  3.762343  0
N  N108  1  0.67288951  0.70228711  0.34250151  1  0  -0.053648  0  3.557085  0  0  0.043763  0  3.77188  0  0  0.029622  0  3.79792  0  -1.237332  0  -0.239912  0.053  0  3.754018  0
N  N109  1  0.32710964  0.29771301  0.65749941  1  0  -0.05373  0  3.557097  0  0  0.043664  0  3.771924  0  0  0.029523  0  3.797957  0  -1.237295  0  -0.239935  0.052905  0  3.754059  0
N  N110  1  0.77518128  0.81899168  0.23699700  1  0  -0.405019  0  3.281703  0  0  -0.326178  0  3.567652  0  0  -0.348742  0  3.586507  0  -1.251185  0  -0.363962  -0.310729  0  3.554244  0
N  N111  1  0.22481686  0.18101078  0.76300383  1  0  -0.40506  0  3.28179  0  0  -0.32622  0  3.567743  0  0  -0.348783  0  3.586597  0  -1.251542  0  -0.363972  -0.310771  0  3.554335  0
O  O112  1  0.86179332  0.86239188  0.05442814  1  0  -0.830304  0  1.842824  0  0  -0.769267  0  2.036492  0  0  -0.791637  0  2.005086  0  -1.255327  0  -0.592703  -0.753166  0  2.058699  0
O  O113  1  0.13820823  0.13760824  0.94557141  1  0  -0.830316  0  1.842838  0  0  -0.769258  0  2.036486  0  0  -0.79163  0  2.005086  0  -1.25533  0  -0.592691  -0.753157  0  2.058693  0
O  O114  1  0.19445097  0.77436890  0.13437066  1  0  -0.652299  0  1.991461  0  0  -0.581249  0  2.241893  0  0  -0.611471  0  2.231855  0  -1.171998  0  -0.336713  -0.559705  0  2.247973  0
O  O115  1  0.80554887  0.22563239  0.86562896  1  0  -0.652278  0  1.991509  0  0  -0.581233  0  2.241938  0  0  -0.611456  0  2.231903  0  -1.172011  0  -0.336724  -0.559689  0  2.248017  0
O  O116  1  0.28100429  0.96609524  0.07359914  1  0  -0.6594  0  1.977671  0  0  -0.607116  0  2.211302  0  0  -0.631111  0  2.200192  0  -1.198241  0  -0.328807  -0.589779  0  2.218429  0
O  O117  1  0.71899948  0.03390255  0.92639924  1  0  -0.659378  0  1.977694  0  0  -0.607081  0  2.211295  0  0  -0.631078  0  2.200187  0  -1.19801  0  -0.328796  -0.589745  0  2.218421  0
O  O118  1  0.52298516  0.82159052  0.58586346  1  0  -0.618187  0  1.841303  0  0  -0.584389  0  2.048708  0  0  -0.605937  0  2.040866  0  -1.171919  0  -0.352366  -0.568737  0  2.053298  0
O  O119  1  0.47701519  0.17840961  0.41413621  1  0  -0.618147  0  1.841298  0  0  -0.584345  0  2.04873  0  0  -0.605892  0  2.040887  0  -1.171876  0  -0.352353  -0.568692  0  2.053319  0
O  O120  1  0.53782161  0.57522444  0.62632120  1  0  -0.655725  0  1.910306  0  0  -0.614275  0  2.137296  0  0  -0.638861  0  2.129092  0  -1.185399  0  -0.34628  -0.596371  0  2.14211  0
O  O121  1  0.46217943  0.42477685  0.37367830  1  0  -0.655703  0  1.910381  0  0  -0.614227  0  2.137374  0  0  -0.638817  0  2.129174  0  -1.185432  0  -0.346249  -0.596324  0  2.142185  0
O  O122  1  0.88615115  0.16923099  0.06593155  1  0  -0.667194  0  2.096792  0  0  -0.58549  0  2.337094  0  0  -0.616262  0  2.326181  0  -1.171257  0  -0.326745  -0.564023  0  2.344136  0
O  O123  1  0.11385092  0.83076797  0.93406860  1  0  -0.667104  0  2.096802  0  0  -0.585404  0  2.337124  0  0  -0.616175  0  2.326212  0  -1.17129  0  -0.326703  -0.563937  0  2.344164  0
O  O124  1  0.66622329  0.24489666  0.16507515  1  0  -0.624276  0  1.935018  0  0  -0.572369  0  2.166897  0  0  -0.598797  0  2.161392  0  -1.178482  0  -0.324552  -0.554017  0  2.170365  0
O  O125  1  0.33377859  0.75509997  0.83492410  1  0  -0.624286  0  1.935004  0  0  -0.572375  0  2.166906  0  0  -0.598807  0  2.161412  0  -1.178488  0  -0.324557  -0.554022  0  2.170373  0
