# generated using pymatgen
data_Cu4SiH32W12C40(NO5)8
_symmetry_space_group_name_H-M   'P 1'
_cell_length_a   14.21807747
_cell_length_b   14.21804920
_cell_length_c   21.20422033
_cell_angle_alpha   95.20468387
_cell_angle_beta   95.20493495
_cell_angle_gamma   114.25274373
_symmetry_Int_Tables_number   1
_chemical_formula_structural   Cu4SiH32W12C40(NO5)8
_chemical_formula_sum   'Cu8 Si2 H64 W24 C80 N16 O80'
_cell_volume   3853.21780959
_cell_formula_units_Z   2
loop_
 _symmetry_equiv_pos_site_id
 _symmetry_equiv_pos_as_xyz
  1  'x, y, z'
loop_
 _atom_site_type_symbol
 _atom_site_label
 _atom_site_symmetry_multiplicity
 _atom_site_fract_x
 _atom_site_fract_y
 _atom_site_fract_z
 _atom_site_occupancy
 _atom_site_pbe_bader_charge
 _atom_site_pbe_bader_spin_density
 _atom_site_pbe_cm5_charge
 _atom_site_pbe_ddec_charge
 _atom_site_pbe_ddec_spin_density
 _atom_site_pbe_ddec_sum_bond_order
 _atom_site_pbe_magmom
Cu  Cu0  1  0.01145413  0.37000420  0.77650189  1  0.685574  0  0.543065  0.403266  0  2.13613  0
Cu  Cu1  1  0.62999436  0.98853733  0.22349726  1  0.685629  0  0.543051  0.403252  0  2.136152  0
Cu  Cu2  1  0.98854041  0.62999099  0.22349731  1  0.685571  0  0.543068  0.403227  0  2.136407  0
Cu  Cu3  1  0.37001042  0.01146766  0.77650324  1  0.68562  0  0.543054  0.403209  0  2.136186  0
Cu  Cu4  1  0.72723098  0.22771856  0.73495585  1  0.662753  0  0.53364  0.376713  0  2.058736  0
Cu  Cu5  1  0.77228437  0.27277891  0.26504419  1  0.66271  0  0.533711  0.376864  0  2.058684  0
Cu  Cu6  1  0.27276364  0.77228159  0.26504556  1  0.662673  0  0.533659  0.376784  0  2.058712  0
Cu  Cu7  1  0.22771737  0.72722698  0.73495429  1  0.662689  0  0.53368  0.376767  0  2.058593  0
Si  Si8  1  0.81656917  0.81656772  0.74417758  1  3.131147  0  0.267844  1.726845  0  4.088581  0
Si  Si9  1  0.18343160  0.18343000  0.25582219  1  3.131239  0  0.267853  1.726951  0  4.088686  0
H  H10  1  0.86361851  0.17853744  0.34875481  1  0.108294  0  0.117355  0.102739  0  1.015683  0
H  H11  1  0.82146604  0.13637368  0.65124252  1  0.108157  0  0.117345  0.102641  0  1.015762  0
H  H12  1  0.13637941  0.82146835  0.65124058  1  0.108271  0  0.117352  0.102713  0  1.015682  0
H  H13  1  0.17852609  0.86361978  0.34876067  1  0.108121  0  0.117387  0.102767  0  1.015592  0
H  H14  1  0.82307162  0.42360839  0.58328397  1  0.099037  0  0.118321  0.133022  0  0.98502  0
H  H15  1  0.57638546  0.17691789  0.41671496  1  0.099161  0  0.118373  0.133115  0  0.985068  0
H  H16  1  0.17691658  0.57637998  0.41671532  1  0.099184  0  0.118391  0.133061  0  0.984988  0
H  H17  1  0.42362024  0.82309453  0.58328656  1  0.099417  0  0.118397  0.133091  0  0.985194  0
H  H18  1  0.87007894  0.42772398  0.69860655  1  0.119567  0  0.113134  0.077232  0  1.046265  0
H  H19  1  0.57227648  0.12991224  0.30139298  1  0.119607  0  0.113119  0.077273  0  1.046262  0
H  H20  1  0.12990927  0.57226581  0.30139379  1  0.119686  0  0.113121  0.077237  0  1.046293  0
H  H21  1  0.42772997  0.87009837  0.69860799  1  0.120081  0  0.113109  0.077247  0  1.046327  0
H  H22  1  0.07187304  0.28995829  0.66547559  1  0.107801  0  0.129761  0.108802  0  0.960687  0
H  H23  1  0.71004129  0.92811932  0.33452578  1  0.107925  0  0.129792  0.108798  0  0.960649  0
H  H24  1  0.92812073  0.71003659  0.33452307  1  0.107528  0  0.12976  0.108829  0  0.960637  0
H  H25  1  0.28996199  0.07188999  0.66547773  1  0.107401  0  0.129823  0.108829  0  0.960684  0
H  H26  1  0.07184008  0.30547909  0.89820525  1  0.14896  0  0.12736  0.114235  0  0.977577  0
H  H27  1  0.69452864  0.92816291  0.10179449  1  0.148631  0  0.127352  0.114189  0  0.977573  0
H  H28  1  0.92816160  0.69452605  0.10179601  1  0.148666  0  0.127334  0.114163  0  0.977605  0
H  H29  1  0.30547929  0.07184198  0.89820197  1  0.148713  0  0.127346  0.11416  0  0.977609  0
H  H30  1  0.03507001  0.28204003  0.54828691  1  0.109761  0  0.119642  0.138415  0  0.988978  0
H  H31  1  0.71795852  0.96492207  0.45171386  1  0.109601  0  0.119637  0.138388  0  0.989111  0
H  H32  1  0.96492693  0.71795897  0.45171223  1  0.109679  0  0.119655  0.138428  0  0.989099  0
H  H33  1  0.28204321  0.03508591  0.54828852  1  0.10936  0  0.119645  0.138415  0  0.989106  0
H  H34  1  0.13461812  0.39195031  0.00932502  1  0.092707  0  0.115751  0.12829  0  1.012456  0
H  H35  1  0.60805900  0.86538505  0.99067291  1  0.092508  0  0.115746  0.12832  0  1.012378  0
H  H36  1  0.86538447  0.60805945  0.99067424  1  0.092551  0  0.115744  0.128315  0  1.012357  0
H  H37  1  0.39194257  0.13461230  0.00932453  1  0.092393  0  0.115703  0.128235  0  1.012402  0
H  H38  1  0.04969824  0.56672332  0.83883042  1  0.14192  0  0.109211  0.089159  0  1.080524  0
H  H39  1  0.43327329  0.95029122  0.16116776  1  0.142078  0  0.10919  0.089099  0  1.080421  0
H  H40  1  0.95028933  0.43327117  0.16116829  1  0.142279  0  0.109228  0.089176  0  1.08048  0
H  H41  1  0.56673389  0.04971617  0.83883163  1  0.142252  0  0.109218  0.089167  0  1.080461  0
H  H42  1  0.10184336  0.66128889  0.94745344  1  0.118128  0  0.10928  0.118321  0  1.030522  0
H  H43  1  0.33871838  0.89815109  0.05254192  1  0.118651  0  0.109269  0.118313  0  1.030523  0
H  H44  1  0.89814828  0.33871293  0.05254224  1  0.118108  0  0.109258  0.1183  0  1.030521  0
H  H45  1  0.66129108  0.10185440  0.94745703  1  0.118021  0  0.109246  0.118254  0  1.030623  0
H  H46  1  0.92472773  0.20304911  0.46353854  1  0.112404  0  0.114128  0.131638  0  1.007724  0
H  H47  1  0.79694935  0.07526677  0.53645867  1  0.112309  0  0.114116  0.131629  0  1.007732  0
H  H48  1  0.07527007  0.79695168  0.53645699  1  0.112287  0  0.11417  0.131704  0  1.007705  0
H  H49  1  0.20304530  0.92473481  0.46354237  1  0.112148  0  0.114185  0.131709  0  1.00787  0
H  H50  1  0.13836052  0.73127200  0.03544670  1  0.087023  0  0.113871  0.128542  0  1.008856  0
H  H51  1  0.26874123  0.86164147  0.96455089  1  0.0872  0  0.113918  0.128646  0  1.008789  0
H  H52  1  0.86164363  0.26873701  0.96455025  1  0.08699  0  0.113878  0.128593  0  1.008779  0
H  H53  1  0.73126250  0.13835177  0.03545114  1  0.087106  0  0.113868  0.128601  0  1.008758  0
H  H54  1  0.84692586  0.46813256  0.48513165  1  0.158946  0  0.109442  0.140137  0  1.029307  0
H  H55  1  0.53186856  0.15307379  0.51487168  1  0.15899  0  0.109462  0.14013  0  1.029368  0
H  H56  1  0.15307183  0.53186741  0.51487090  1  0.159008  0  0.109436  0.140143  0  1.029325  0
H  H57  1  0.46812289  0.84692365  0.48513077  1  0.159081  0  0.109425  0.140187  0  1.02924  0
H  H58  1  0.20335329  0.82287196  0.14427168  1  0.155592  0  0.114907  0.09341  0  1.064402  0
H  H59  1  0.17713457  0.79664721  0.85572770  1  0.156027  0  0.114893  0.093386  0  1.064429  0
H  H60  1  0.79665470  0.17713647  0.85572642  1  0.155717  0  0.11491  0.093417  0  1.064402  0
H  H61  1  0.82286692  0.20334936  0.14427393  1  0.155664  0  0.114867  0.093316  0  1.064498  0
H  H62  1  0.78209725  0.42772300  0.36897440  1  0.115828  0  0.123538  0.107497  0  0.976882  0
H  H63  1  0.57228470  0.21790749  0.63102870  1  0.115804  0  0.123547  0.107489  0  0.976973  0
H  H64  1  0.21790053  0.57228054  0.63102744  1  0.115914  0  0.123532  0.107461  0  0.977035  0
H  H65  1  0.42770667  0.78208778  0.36897550  1  0.115698  0  0.123544  0.107495  0  0.977039  0
H  H66  1  0.25998647  0.57929916  0.20502614  1  0.132351  0  0.111432  0.083326  0  1.070169  0
H  H67  1  0.42069166  0.73998933  0.79497297  1  0.132847  0  0.111469  0.083347  0  1.070098  0
H  H68  1  0.73999730  0.42069873  0.79497301  1  0.132841  0  0.111479  0.083346  0  1.070125  0
H  H69  1  0.57930674  0.26000600  0.20502697  1  0.132947  0  0.111498  0.083397  0  1.070122  0
H  H70  1  0.20080025  0.47714972  0.09847068  1  0.125987  0  0.115764  0.133294  0  1.010426  0
H  H71  1  0.52284732  0.79917442  0.90152552  1  0.125349  0  0.115665  0.133194  0  1.010403  0
H  H72  1  0.79918747  0.52285190  0.90152803  1  0.12529  0  0.115713  0.13324  0  1.010393  0
H  H73  1  0.47715410  0.20081651  0.09847244  1  0.125351  0  0.115738  0.133259  0  1.010427  0
W  W74  1  0.80022776  0.95591716  0.89163593  1  2.872093  0  1.655912  2.418211  0  4.715108  0
W  W75  1  0.04408426  0.19977193  0.10836472  1  2.871847  0  1.655959  2.41834  0  4.715315  0
W  W76  1  0.19977295  0.04407910  0.10836563  1  2.87222  0  1.655977  2.418301  0  4.715265  0
W  W77  1  0.95592042  0.80022808  0.89163498  1  2.872063  0  1.655954  2.418277  0  4.715266  0
W  W78  1  0.67520397  0.96869072  0.75004501  1  2.871441  0  1.654159  2.418202  0  4.724133  0
W  W79  1  0.03130767  0.32479479  0.24995564  1  2.871547  0  1.654137  2.418262  0  4.724056  0
W  W80  1  0.32479831  0.03130617  0.24995622  1  2.871168  0  1.654163  2.418275  0  4.724118  0
W  W81  1  0.96869309  0.67520221  0.75004408  1  2.871287  0  1.654216  2.418358  0  4.723948  0
W  W82  1  0.53876234  0.67952406  0.71337017  1  2.87379  0  1.660036  2.430535  0  4.715714  0
W  W83  1  0.32047374  0.46123890  0.28662989  1  2.873297  0  1.659975  2.430406  0  4.715833  0
W  W84  1  0.46124073  0.32047457  0.28663216  1  2.873388  0  1.659995  2.430369  0  4.715601  0
W  W85  1  0.67952785  0.53875987  0.71336812  1  2.873126  0  1.660028  2.430469  0  4.715463  0
W  W86  1  0.66511919  0.66511354  0.85429484  1  2.859295  0  1.64868  2.425227  0  4.709645  0
W  W87  1  0.33488692  0.33488069  0.14570504  1  2.859386  0  1.64869  2.425267  0  4.70941  0
W  W88  1  0.69271499  0.83401826  0.59512838  1  2.88623  0  1.664139  2.430902  0  4.71587  0
W  W89  1  0.16598083  0.30728305  0.40487203  1  2.886242  0  1.664131  2.430955  0  4.715784  0
W  W90  1  0.30728421  0.16597881  0.40487219  1  2.886222  0  1.664152  2.430962  0  4.715572  0
W  W91  1  0.83402390  0.69271980  0.59512880  1  2.886115  0  1.664162  2.430928  0  4.715995  0
W  W92  1  0.93718843  0.09176678  0.78079462  1  2.870161  0  1.65986  2.427859  0  4.714922  0
W  W93  1  0.90823352  0.06280863  0.21920448  1  2.870132  0  1.659934  2.428033  0  4.714738  0
W  W94  1  0.06281075  0.90823028  0.21920690  1  2.870516  0  1.659893  2.42795  0  4.714835  0
W  W95  1  0.09176881  0.93718902  0.78079444  1  2.870243  0  1.659877  2.427872  0  4.71482  0
W  W96  1  0.95654263  0.95654432  0.62607157  1  2.871291  0  1.652875  2.425379  0  4.717747  0
W  W97  1  0.04345665  0.04345702  0.37392976  1  2.871327  0  1.652894  2.425403  0  4.717734  0
C  C98  1  0.85992182  0.24087001  0.38062628  1  0.534705  0  0.040927  0.100662  0  3.911241  0
C  C99  1  0.75913204  0.14007477  0.61937350  1  0.535115  0  0.040898  0.100671  0  3.911271  0
C  C100  1  0.14007993  0.75913590  0.61937125  1  0.534945  0  0.040855  0.100584  0  3.911284  0
C  C101  1  0.24086014  0.85992084  0.38062888  1  0.534933  0  0.040769  0.100543  0  3.911325  0
C  C102  1  0.87985690  0.39436879  0.59890151  1  0.003463  0  -0.073893  -0.151409  0  3.893698  0
C  C103  1  0.60563135  0.12013826  0.40109643  1  0.009513  0  -0.073925  -0.151559  0  3.893822  0
C  C104  1  0.12013844  0.60562673  0.40109635  1  0.009708  0  -0.073986  -0.151543  0  3.893759  0
C  C105  1  0.39436960  0.87986870  0.59890536  1  0.009497  0  -0.073965  -0.151539  0  3.893954  0
C  C106  1  0.89104589  0.33780119  0.48550336  1  0.002602  0  0.014426  0.105309  0  3.970403  0
C  C107  1  0.66220046  0.10895054  0.51449487  1  0.002648  0  0.014426  0.105085  0  3.970348  0
C  C108  1  0.10895026  0.66219678  0.51449518  1  0.002623  0  0.014421  0.105165  0  3.970279  0
C  C109  1  0.33779735  0.89105443  0.48550660  1  0.002672  0  0.014559  0.105292  0  3.970299  0
C  C110  1  0.12739962  0.53746274  0.98959159  1  0.013861  0  0.013292  0.097697  0  3.971462  0
C  C111  1  0.46254850  0.87259761  0.01040396  1  0.014127  0  0.013347  0.097715  0  3.971266  0
C  C112  1  0.87259830  0.46254584  0.01040729  1  0.014007  0  0.013358  0.097746  0  3.971317  0
C  C113  1  0.53745622  0.12740382  0.98959583  1  0.013948  0  0.013379  0.09783  0  3.97109  0
C  C114  1  0.90536818  0.39653602  0.66385120  1  0.442034  0  0.03991  0.092423  0  3.962702  0
C  C115  1  0.60346518  0.09462470  0.33614718  1  0.44219  0  0.03986  0.09235  0  3.96286  0
C  C116  1  0.09462319  0.60345577  0.33614758  1  0.441873  0  0.039929  0.092492  0  3.962917  0
C  C117  1  0.39654047  0.90538487  0.66385415  1  0.441585  0  0.039836  0.092287  0  3.963056  0
C  C118  1  0.16412946  0.59441289  0.05511456  1  -0.020968  0  0.015959  0.103801  0  3.957816  0
C  C119  1  0.40559662  0.83586253  0.94488240  1  -0.020623  0  0.016051  0.103788  0  3.957492  0
C  C120  1  0.83586922  0.40559459  0.94488382  1  -0.021163  0  0.016001  0.10376  0  3.957438  0
C  C121  1  0.59440718  0.16413357  0.05511888  1  -0.021507  0  0.016006  0.103722  0  3.957558  0
C  C122  1  0.01804430  0.31967157  0.64517385  1  0.446507  0  0.047483  0.08917  0  3.918707  0
C  C123  1  0.68033152  0.98195058  0.35482779  1  0.446241  0  0.047466  0.089303  0  3.918442  0
C  C124  1  0.98194953  0.68032687  0.35482505  1  0.446428  0  0.047432  0.089143  0  3.918468  0
C  C125  1  0.31967178  0.01805874  0.64517478  1  0.446332  0  0.047364  0.089105  0  3.918571  0
C  C126  1  0.08244002  0.38545228  0.91116978  1  0.508591  0  0.052578  0.104501  0  3.885282  0
C  C127  1  0.61455289  0.91755783  0.08882840  1  0.508708  0  0.052648  0.104647  0  3.88523  0
C  C128  1  0.91755702  0.61455169  0.08883015  1  0.50837  0  0.052672  0.104704  0  3.885107  0
C  C129  1  0.38545349  0.08244782  0.91116988  1  0.508173  0  0.052685  0.104725  0  3.885265  0
C  C130  1  0.99587680  0.31442401  0.57959622  1  0.02463  0  -0.072235  -0.15575  0  3.906564  0
C  C131  1  0.68557362  0.00411765  0.42040512  1  0.024629  0  -0.072241  -0.155772  0  3.906685  0
C  C132  1  0.00411929  0.68557250  0.42040458  1  0.024418  0  -0.07222  -0.155743  0  3.906483  0
C  C133  1  0.31442656  0.99588971  0.57959618  1  0.024799  0  -0.072238  -0.155787  0  3.906708  0
C  C134  1  0.11746538  0.43528079  0.97369674  1  -0.087618  0  -0.070662  -0.149048  0  3.891235  0
C  C135  1  0.56472691  0.88253666  0.02630092  1  -0.08767  0  -0.070754  -0.14917  0  3.89126  0
C  C136  1  0.88253480  0.56472447  0.02630207  1  -0.087295  0  -0.070767  -0.149179  0  3.891149  0
C  C137  1  0.43527859  0.11746370  0.97369650  1  -0.087078  0  -0.070747  -0.149129  0  3.891332  0
C  C138  1  0.06837576  0.53076887  0.87819815  1  0.463778  0  0.036306  0.086851  0  3.928194  0
C  C139  1  0.46923288  0.93161533  0.12179867  1  0.463996  0  0.036379  0.086921  0  3.9281  0
C  C140  1  0.93161190  0.46923059  0.12180183  1  0.463715  0  0.036269  0.086757  0  3.928082  0
C  C141  1  0.53077430  0.06839137  0.87819880  1  0.463611  0  0.036213  0.08667  0  3.928183  0
C  C142  1  0.10004137  0.58391483  0.93972864  1  -0.041303  0  -0.080399  -0.159952  0  3.932421  0
C  C143  1  0.41609033  0.89995191  0.06026662  1  -0.04214  0  -0.080386  -0.159875  0  3.932166  0
C  C144  1  0.89995030  0.41608771  0.06026661  1  -0.041358  0  -0.080332  -0.159804  0  3.932175  0
C  C145  1  0.58391680  0.10005335  0.93973216  1  -0.041339  0  -0.080334  -0.159759  0  3.931979  0
C  C146  1  0.89490122  0.25604978  0.44534189  1  -0.110689  0  -0.078217  -0.164858  0  3.937949  0
C  C147  1  0.74394842  0.10509282  0.55465657  1  -0.1105  0  -0.078174  -0.164739  0  3.937927  0
C  C148  1  0.10509579  0.74395067  0.55465499  1  -0.110467  0  -0.078186  -0.164799  0  3.937843  0
C  C149  1  0.25604465  0.89490741  0.44534476  1  -0.110678  0  -0.078265  -0.164903  0  3.938146  0
C  C150  1  0.16615185  0.69365216  0.07043002  1  -0.016905  0  -0.077888  -0.162729  0  3.920342  0
C  C151  1  0.30635471  0.83384645  0.92956561  1  -0.017005  0  -0.07794  -0.162764  0  3.920079  0
C  C152  1  0.83385222  0.30635258  0.92956570  1  -0.016734  0  -0.077915  -0.162721  0  3.920196  0
C  C153  1  0.69364752  0.16614692  0.07043350  1  -0.016838  0  -0.07796  -0.162804  0  3.920268  0
C  C154  1  0.85080188  0.40173265  0.45727102  1  0.003617  0  -0.077833  -0.165421  0  3.895244  0
C  C155  1  0.59826706  0.14919752  0.54273042  1  0.003533  0  -0.077825  -0.16532  0  3.895108  0
C  C156  1  0.14919816  0.59826758  0.54272981  1  0.003452  0  -0.077855  -0.165412  0  3.895203  0
C  C157  1  0.40172515  0.85079953  0.45727206  1  0.003545  0  -0.077855  -0.165473  0  3.894998  0
C  C158  1  0.92397305  0.35099361  0.55482606  1  -0.009508  0  0.015681  0.101976  0  3.974495  0
C  C159  1  0.64900316  0.07601893  0.44517301  1  -0.015702  0  0.015678  0.102159  0  3.974372  0
C  C160  1  0.07602461  0.64900216  0.44517150  1  -0.015622  0  0.015701  0.102109  0  3.974261  0
C  C161  1  0.35099692  0.92398484  0.55482993  1  -0.015619  0  0.015678  0.102228  0  3.974321  0
C  C162  1  0.20166247  0.74627434  0.13206622  1  0.451548  0  0.0382  0.085362  0  3.922017  0
C  C163  1  0.25373251  0.79833125  0.86793192  1  0.451298  0  0.038131  0.085174  0  3.922085  0
C  C164  1  0.79833702  0.25373349  0.86793035  1  0.451692  0  0.038189  0.085221  0  3.922435  0
C  C165  1  0.74627129  0.20166276  0.13206687  1  0.451614  0  0.038293  0.085481  0  3.922244  0
C  C166  1  0.81594847  0.38117722  0.39202512  1  0.443628  0  0.048751  0.099531  0  3.894141  0
C  C167  1  0.61882594  0.18405116  0.60797653  1  0.443866  0  0.048654  0.099411  0  3.894164  0
C  C168  1  0.18405008  0.61882595  0.60797580  1  0.443778  0  0.048658  0.099429  0  3.894155  0
C  C169  1  0.38116389  0.81594350  0.39202658  1  0.444092  0  0.048641  0.099367  0  3.894205  0
C  C170  1  0.23304840  0.61001353  0.16583005  1  0.46164  0  0.043713  0.100697  0  3.89991  0
C  C171  1  0.38998564  0.76693738  0.83416922  1  0.461634  0  0.043735  0.100635  0  3.899931  0
C  C172  1  0.76694089  0.38999012  0.83417031  1  0.461916  0  0.043655  0.100594  0  3.900124  0
C  C173  1  0.61001829  0.23306373  0.16583097  1  0.461423  0  0.043662  0.100589  0  3.899897  0
C  C174  1  0.19918689  0.55324497  0.10514503  1  0.015293  0  -0.069157  -0.135616  0  3.865352  0
C  C175  1  0.44675804  0.80079543  0.89485288  1  0.015747  0  -0.069194  -0.135509  0  3.864945  0
C  C176  1  0.80080553  0.44675786  0.89485217  1  0.0158  0  -0.069153  -0.135547  0  3.865182  0
C  C177  1  0.55324490  0.19919679  0.10514856  1  0.016272  0  -0.069189  -0.135572  0  3.865148  0
N  N178  1  0.97337955  0.35968898  0.68742605  1  -1.22315  0  -0.380879  -0.225309  0  3.745191  0
N  N179  1  0.64031055  0.02661205  0.31257371  1  -1.223063  0  -0.380798  -0.225351  0  3.745036  0
N  N180  1  0.02661340  0.64030415  0.31257292  1  -1.222813  0  -0.380858  -0.225399  0  3.74538  0
N  N181  1  0.35969344  0.97339331  0.68742865  1  -1.222894  0  -0.380729  -0.225181  0  3.745019  0
N  N182  1  0.05917220  0.43256906  0.86329128  1  -1.248847  0  -0.376289  -0.213213  0  3.707277  0
N  N183  1  0.56743563  0.94082291  0.13670753  1  -1.248496  0  -0.376334  -0.213285  0  3.707379  0
N  N184  1  0.94082249  0.56743396  0.13670891  1  -1.248601  0  -0.376296  -0.213237  0  3.707379  0
N  N185  1  0.43257232  0.05918479  0.86329193  1  -1.248293  0  -0.376229  -0.213164  0  3.707278  0
N  N186  1  0.23457730  0.70551203  0.18005263  1  -1.246207  0  -0.382978  -0.220497  0  3.746014  0
N  N187  1  0.29449460  0.76541358  0.81994637  1  -1.247215  0  -0.382941  -0.22036  0  3.745865  0
N  N188  1  0.76542215  0.29449504  0.81994625  1  -1.247168  0  -0.382979  -0.220358  0  3.74616  0
N  N189  1  0.70551232  0.23458309  0.18005421  1  -1.246751  0  -0.383001  -0.220528  0  3.745993  0
N  N190  1  0.81990525  0.30161062  0.35370928  1  -1.217511  0  -0.379341  -0.202903  0  3.707632  0
N  N191  1  0.69839502  0.18009495  0.64629034  1  -1.217799  0  -0.379218  -0.202689  0  3.707534  0
N  N192  1  0.18009494  0.69839604  0.64629056  1  -1.217547  0  -0.379191  -0.202631  0  3.707422  0
N  N193  1  0.30159794  0.81990099  0.35371211  1  -1.217476  0  -0.379153  -0.20266  0  3.707545  0
O  O194  1  0.90240069  0.08160262  0.86702705  1  -1.031368  0  -0.592256  -0.861942  0  1.99848  0
O  O195  1  0.91839900  0.09759731  0.13297215  1  -1.031373  0  -0.59225  -0.862009  0  1.998506  0
O  O196  1  0.09760004  0.91839366  0.13297309  1  -1.031568  0  -0.592256  -0.861964  0  1.998484  0
O  O197  1  0.08160489  0.90240167  0.86702743  1  -1.031342  0  -0.592292  -0.86198  0  1.998475  0
O  O198  1  0.03447732  0.03447674  0.80104366  1  -1.03244  0  -0.598961  -0.881633  0  2.12779  0
O  O199  1  0.96552266  0.96552065  0.19895651  1  -1.032506  0  -0.599  -0.88164  0  2.127741  0
O  O200  1  0.59150072  0.02941125  0.74019645  1  -0.889381  0  -0.531166  -0.731916  0  1.853073  0
O  O201  1  0.97058733  0.40849806  0.25980222  1  -0.88939  0  -0.531151  -0.731922  0  1.853078  0
O  O202  1  0.40850238  0.97058810  0.25980499  1  -0.889178  0  -0.531205  -0.731969  0  1.853088  0
O  O203  1  0.02941344  0.59149896  0.74019609  1  -0.889286  0  -0.531201  -0.731971  0  1.853058  0
O  O204  1  0.93892906  0.04799311  0.69301093  1  -1.053711  0  -0.601505  -0.914198  0  2.138181  0
O  O205  1  0.95200664  0.06106806  0.30698820  1  -1.053696  0  -0.601518  -0.914274  0  2.138151  0
O  O206  1  0.06106863  0.95200548  0.30698870  1  -1.053721  0  -0.601497  -0.914205  0  2.138138  0
O  O207  1  0.04799339  0.93893148  0.69301164  1  -1.053708  0  -0.601498  -0.914176  0  2.138138  0
O  O208  1  0.90550563  0.90550670  0.90630700  1  -1.035684  0  -0.592449  -0.885799  0  2.08458  0
O  O209  1  0.09449667  0.09449162  0.09369433  1  -1.035579  0  -0.592493  -0.885857  0  2.08456  0
O  O210  1  0.04506068  0.04506409  0.58605276  1  -0.826807  0  -0.531774  -0.670466  0  1.545041  0
O  O211  1  0.95493864  0.95493867  0.41394818  1  -0.826864  0  -0.531784  -0.670457  0  1.545135  0
O  O212  1  0.69163078  0.93267294  0.66375046  1  -1.051479  0  -0.599568  -0.907824  0  2.170121  0
O  O213  1  0.06732521  0.30836946  0.33624800  1  -1.051479  0  -0.599547  -0.907849  0  2.170123  0
O  O214  1  0.30836835  0.06732128  0.33624992  1  -1.051439  0  -0.599542  -0.907855  0  2.170081  0
O  O215  1  0.93267949  0.69163196  0.66375274  1  -1.05142  0  -0.599536  -0.907857  0  2.170177  0
O  O216  1  0.82274380  0.82274320  0.66799008  1  -1.48046  0  -0.477182  -1.094986  0  2.383413  0
O  O217  1  0.17725934  0.17725689  0.33200953  1  -1.480443  0  -0.477149  -1.095029  0  2.383431  0
O  O218  1  0.78642785  0.99998497  0.96745044  1  -0.844564  0  -0.525307  -0.681863  0  1.628443  0
O  O219  1  0.00001564  0.21356803  0.03255077  1  -0.844569  0  -0.525337  -0.681893  0  1.628584  0
O  O220  1  0.21357288  0.00001271  0.03255169  1  -0.844618  0  -0.525351  -0.681918  0  1.628565  0
O  O221  1  0.99998662  0.78642676  0.96744844  1  -0.84452  0  -0.525336  -0.681895  0  1.628615  0
O  O222  1  0.80465589  0.09628731  0.75642141  1  -1.076816  0  -0.601994  -0.923706  0  2.204382  0
O  O223  1  0.90371330  0.19534196  0.24357850  1  -1.076754  0  -0.602042  -0.923811  0  2.204365  0
O  O224  1  0.19534250  0.90370871  0.24358046  1  -1.076786  0  -0.602036  -0.923768  0  2.2044  0
O  O225  1  0.09629059  0.80465702  0.75642109  1  -1.076761  0  -0.602013  -0.923748  0  2.20425  0
O  O226  1  0.01952116  0.22480850  0.78838537  1  -0.915843  0  -0.549952  -0.73288  0  1.943808  0
O  O227  1  0.77519362  0.98047485  0.21161501  1  -0.915854  0  -0.549975  -0.7329  0  1.943745  0
O  O228  1  0.98047726  0.77518895  0.21161612  1  -0.915895  0  -0.549976  -0.732917  0  1.943832  0
O  O229  1  0.22480874  0.01952492  0.78838500  1  -0.915888  0  -0.549965  -0.732872  0  1.943733  0
O  O230  1  0.81005468  0.92154563  0.77851556  1  -1.473594  0  -0.474828  -1.083831  0  2.368081  0
O  O231  1  0.07845458  0.18994375  0.22148405  1  -1.473705  0  -0.474853  -1.083933  0  2.368187  0
O  O232  1  0.18994685  0.07845238  0.22148569  1  -1.473657  0  -0.474841  -1.083937  0  2.368133  0
O  O233  1  0.92154775  0.81005390  0.77851488  1  -1.473653  0  -0.474855  -1.083878  0  2.368043  0
O  O234  1  0.71351883  0.71351710  0.75289217  1  -1.487491  0  -0.474854  -1.096937  0  2.366512  0
O  O235  1  0.28648348  0.28648123  0.24710868  1  -1.48748  0  -0.474855  -1.096941  0  2.366472  0
O  O236  1  0.72901196  0.72900740  0.55458460  1  -1.00911  0  -0.586714  -0.845267  0  1.955516  0
O  O237  1  0.27099193  0.27099227  0.44541644  1  -1.009149  0  -0.586696  -0.845267  0  1.955389  0
O  O238  1  0.69503685  0.98480104  0.84239104  1  -1.061335  0  -0.599328  -0.885608  0  2.073542  0
O  O239  1  0.01520121  0.30496277  0.15760710  1  -1.061374  0  -0.59934  -0.885618  0  2.073511  0
O  O240  1  0.30496306  0.01519350  0.15760942  1  -1.061443  0  -0.59924  -0.885573  0  2.073551  0
O  O241  1  0.98480505  0.69503859  0.84239232  1  -1.061393  0  -0.599279  -0.885612  0  2.073524  0
O  O242  1  0.82554520  0.93814299  0.57965541  1  -1.032287  0  -0.589539  -0.870145  0  2.030555  0
O  O243  1  0.06185875  0.17445616  0.42034402  1  -1.03226  0  -0.589549  -0.87009  0  2.030625  0
O  O244  1  0.17445484  0.06185725  0.42034495  1  -1.032257  0  -0.589526  -0.870096  0  2.030533  0
O  O245  1  0.93814209  0.82554511  0.57965646  1  -1.032192  0  -0.589557  -0.870095  0  2.030634  0
O  O246  1  0.58173516  0.82610869  0.74580383  1  -1.059833  0  -0.601699  -0.908278  0  2.154286  0
O  O247  1  0.17389029  0.41826698  0.25419526  1  -1.059842  0  -0.601646  -0.908216  0  2.154229  0
O  O248  1  0.41826556  0.17388898  0.25419923  1  -1.059756  0  -0.601718  -0.908232  0  2.154236  0
O  O249  1  0.82611135  0.58173393  0.74580288  1  -1.059671  0  -0.601688  -0.908225  0  2.154268  0
O  O250  1  0.55168356  0.55167829  0.69062641  1  -1.01382  0  -0.586959  -0.843539  0  1.95684  0
O  O251  1  0.44831794  0.44831830  0.30937475  1  -1.013833  0  -0.586943  -0.843457  0  1.956828  0
O  O252  1  0.40674663  0.64299831  0.69183809  1  -0.852737  0  -0.531314  -0.70481  0  1.626826  0
O  O253  1  0.35699711  0.59325408  0.30816164  1  -0.852335  0  -0.531271  -0.704767  0  1.62691  0
O  O254  1  0.59325562  0.35699856  0.30816455  1  -0.852362  0  -0.531238  -0.704687  0  1.62675  0
O  O255  1  0.64300370  0.40674437  0.69183629  1  -0.852374  0  -0.531256  -0.70472  0  1.626722  0
O  O256  1  0.70238631  0.81181558  0.87941691  1  -1.05642  0  -0.601254  -0.921757  0  2.13732  0
O  O257  1  0.18818541  0.29760968  0.12058307  1  -1.056454  0  -0.601301  -0.921803  0  2.137297  0
O  O258  1  0.29761510  0.18817882  0.12058694  1  -1.056474  0  -0.601374  -0.921861  0  2.137423  0
O  O259  1  0.81181923  0.70238610  0.87941305  1  -1.05644  0  -0.601358  -0.921856  0  2.137469  0
O  O260  1  0.61072615  0.84600675  0.53393488  1  -0.864433  0  -0.526904  -0.698567  0  1.65819  0
O  O261  1  0.15399210  0.38927217  0.46606681  1  -0.864448  0  -0.526895  -0.698615  0  1.658156  0
O  O262  1  0.38927298  0.15398746  0.46606551  1  -0.864501  0  -0.526905  -0.698609  0  1.658165  0
O  O263  1  0.84601572  0.61073121  0.53393520  1  -0.864428  0  -0.526896  -0.698624  0  1.658323  0
O  O264  1  0.61345469  0.61344122  0.92023827  1  -0.80932  0  -0.530821  -0.661406  0  1.525461  0
O  O265  1  0.38656281  0.38654421  0.07976178  1  -0.809328  0  -0.530796  -0.661402  0  1.525396  0
O  O266  1  0.59569948  0.73091222  0.63835475  1  -1.041084  0  -0.597874  -0.900298  0  2.106264  0
O  O267  1  0.26908631  0.40430068  0.36164578  1  -1.041062  0  -0.597891  -0.900285  0  2.106229  0
O  O268  1  0.40430122  0.26908403  0.36164775  1  -1.040673  0  -0.597965  -0.900339  0  2.106197  0
O  O269  1  0.73091761  0.59569972  0.63835390  1  -1.040662  0  -0.597926  -0.90029  0  2.106234  0
O  O270  1  0.54142555  0.65404376  0.80138036  1  -1.028355  0  -0.5916  -0.866249  0  2.003217  0
O  O271  1  0.34595640  0.45857403  0.19861837  1  -1.02836  0  -0.591564  -0.866226  0  2.003187  0
O  O272  1  0.45857904  0.34595266  0.19862099  1  -1.028312  0  -0.5915  -0.866184  0  2.003296  0
O  O273  1  0.65404823  0.54142313  0.80138114  1  -1.028252  0  -0.591521  -0.866225  0  2.003282  0
