# generated using pymatgen
data_AlH3C8N2O9
_symmetry_space_group_name_H-M   'P 1'
_cell_length_a   7.00607134
_cell_length_b   10.82939740
_cell_length_c   17.98897087
_cell_angle_alpha   89.99843814
_cell_angle_beta   89.09277853
_cell_angle_gamma   89.21519214
_symmetry_Int_Tables_number   1
_chemical_formula_structural   AlH3C8N2O9
_chemical_formula_sum   'Al4 H12 C32 N8 O36'
_cell_volume   1364.55162087
_cell_formula_units_Z   4
loop_
 _symmetry_equiv_pos_site_id
 _symmetry_equiv_pos_as_xyz
  1  'x, y, z'
loop_
 _atom_site_type_symbol
 _atom_site_label
 _atom_site_symmetry_multiplicity
 _atom_site_fract_x
 _atom_site_fract_y
 _atom_site_fract_z
 _atom_site_occupancy
 _atom_site_pbe_bader_charge
 _atom_site_pbe_bader_spin_density
 _atom_site_pbe_cm5_charge
 _atom_site_pbe_ddec_charge
 _atom_site_pbe_ddec_spin_density
 _atom_site_pbe_ddec_sum_bond_order
 _atom_site_pbe_magmom
Al  Al0  1  0.00809045  0.99709806  0.50105048  1  2.507353  0  0.415395  1.64262  0  2.518273  0
Al  Al1  1  0.50797595  0.00247086  0.49987195  1  2.507869  0  0.409222  1.652992  0  2.522717  0
Al  Al2  1  0.99192605  0.49746151  0.00082229  1  2.509096  0  0.409347  1.652937  0  2.523135  0
Al  Al3  1  0.49175956  0.50272265  0.99985740  1  2.508541  0  0.415202  1.643112  0  2.517619  0
H  H4  1  0.26458467  0.83788592  0.48566684  1  0.629466  0  0.339891  0.424977  0  0.867088  0
H  H5  1  0.76014742  0.16279966  0.48932492  1  0.624755  0  0.340907  0.42622  0  0.864595  0
H  H6  1  0.23617642  0.65982846  0.98081735  1  0.632168  0  0.339822  0.42497  0  0.867661  0
H  H7  1  0.74011279  0.33561989  0.00121959  1  0.606094  0  0.342829  0.428728  0  0.858982  0
H  H8  1  0.44778503  0.72296464  0.82152345  1  0.213597  0  0.117898  0.122823  0  1.081418  0
H  H9  1  0.05228234  0.77634816  0.67833197  1  0.216947  0  0.12003  0.126804  0  1.07804  0
H  H10  1  0.94385210  0.31405636  0.19340904  1  0.198463  0  0.11843  0.122146  0  1.085611  0
H  H11  1  0.55498489  0.19030154  0.30873695  1  0.197771  0  0.117867  0.121326  0  1.085539  0
H  H12  1  0.55177941  0.31353878  0.80832008  1  0.16972  0  0.118273  0.123838  0  1.083381  0
H  H13  1  0.94883657  0.18166389  0.69375116  1  0.184213  0  0.118727  0.124172  0  1.082786  0
H  H14  1  0.44301370  0.68958417  0.19486550  1  0.196277  0  0.118805  0.124047  0  1.081684  0
H  H15  1  0.05704922  0.81231553  0.30455086  1  0.190289  0  0.117674  0.121676  0  1.083218  0
C  C16  1  0.76424001  0.86728531  0.39581162  1  1.620785  0  0.27892  0.663708  0  4.069614  0
C  C17  1  0.75345047  0.86561438  0.60365789  1  1.622785  0  0.281362  0.664645  0  4.065218  0
C  C18  1  0.24741192  0.13005317  0.60531089  1  1.600962  0  0.279926  0.663679  0  4.067919  0
C  C19  1  0.25999488  0.13411319  0.39674123  1  1.624732  0  0.279031  0.663632  0  4.071159  0
C  C20  1  0.73615588  0.63375183  0.10394331  1  1.625256  0  0.279525  0.661734  0  4.073274  0
C  C21  1  0.74603021  0.63340953  0.89623226  1  1.618604  0  0.28131  0.666768  0  4.062253  0
C  C22  1  0.25288750  0.36528543  0.89683650  1  1.615075  0  0.277087  0.661088  0  4.074718  0
C  C23  1  0.23931378  0.37012204  0.10545052  1  1.620279  0  0.280625  0.664921  0  4.067107  0
C  C24  1  0.74945415  0.80202918  0.67765245  1  0.065822  0  0.011481  -0.048886  0  3.900775  0
C  C25  1  0.75050790  0.69742399  0.82239837  1  0.059416  0  0.010179  -0.049998  0  3.902895  0
C  C26  1  0.58136143  0.78503083  0.71908823  1  0.20592  0  0.097826  0.072904  0  3.919939  0
C  C27  1  0.91871274  0.71450332  0.78092996  1  0.169332  0  0.09712  0.072373  0  3.915837  0
C  C28  1  0.57984859  0.73497833  0.79000432  1  0.010293  0  -0.063525  -0.116896  0  3.908027  0
C  C29  1  0.92031786  0.76450943  0.71000245  1  0.052535  0  -0.0627  -0.116122  0  3.900984  0
C  C30  1  0.25238982  0.19621946  0.32242204  1  0.063425  0  0.009622  -0.048082  0  3.904129  0
C  C31  1  0.24656462  0.30813111  0.17976199  1  0.097063  0  0.010957  -0.04784  0  3.905498  0
C  C32  1  0.08198900  0.23056994  0.28824913  1  0.177948  0  0.095937  0.069267  0  3.920768  0
C  C33  1  0.41696011  0.27379172  0.21390545  1  0.153814  0  0.095997  0.069139  0  3.922399  0
C  C34  1  0.07701257  0.28554279  0.21876340  1  0.025942  0  -0.064445  -0.117974  0  3.913367  0
C  C35  1  0.42185112  0.21880798  0.28338814  1  0.071314  0  -0.064787  -0.117959  0  3.913441  0
C  C36  1  0.25103983  0.19184942  0.67967536  1  0.069312  0  0.009431  -0.050067  0  3.912062  0
C  C37  1  0.24958882  0.30336003  0.82245316  1  0.117518  0  0.00848  -0.049828  0  3.90918  0
C  C38  1  0.41914994  0.22851548  0.71360210  1  0.146255  0  0.096517  0.070058  0  3.921969  0
C  C39  1  0.08149527  0.26682596  0.78844741  1  0.075295  0  0.096109  0.071969  0  3.91849  0
C  C40  1  0.42039344  0.28334243  0.78316503  1  0.081893  0  -0.065773  -0.118048  0  3.905209  0
C  C41  1  0.08021459  0.21184213  0.71894188  1  0.130802  0  -0.064327  -0.116745  0  3.903627  0
C  C42  1  0.75557092  0.80592478  0.32136944  1  0.050417  0  0.009221  -0.04848  0  3.905991  0
C  C43  1  0.74477356  0.69518543  0.17840233  1  0.057483  0  0.010211  -0.046245  0  3.902596  0
C  C44  1  0.58414793  0.77202077  0.28865812  1  0.149965  0  0.09605  0.069093  0  3.918774  0
C  C45  1  0.91612346  0.72923641  0.21100659  1  0.192699  0  0.096601  0.067788  0  3.920479  0
C  C46  1  0.57679806  0.71769763  0.21905605  1  0.08441  0  -0.064294  -0.119202  0  3.914885  0
C  C47  1  0.92328404  0.78371975  0.28059816  1  0.033113  0  -0.065473  -0.119334  0  3.91899  0
N  N48  1  0.39408266  0.81541246  0.68748155  1  0.393362  0  0.06223  0.519952  0  4.215046  0
N  N49  1  0.10530085  0.68301469  0.81281265  1  0.405238  0  0.063218  0.520985  0  4.209821  0
N  N50  1  0.89671657  0.20435469  0.32411804  1  0.403369  0  0.062977  0.521959  0  4.214923  0
N  N51  1  0.60244348  0.29929044  0.17798471  1  0.416253  0  0.062881  0.52104  0  4.216841  0
N  N52  1  0.60656651  0.20511436  0.67775275  1  0.417959  0  0.062567  0.519887  0  4.216809  0
N  N53  1  0.89417050  0.29112870  0.82415675  1  0.399917  0  0.062933  0.522174  0  4.212476  0
N  N54  1  0.39920401  0.79794316  0.32583088  1  0.40959  0  0.06266  0.521384  0  4.217755  0
N  N55  1  0.10198886  0.70476213  0.17416865  1  0.4088  0  0.063815  0.52349  0  4.216753  0
O  O56  1  0.92809041  0.89220120  0.42040352  1  -1.240815  0  -0.224207  -0.577824  0  2.350732  0
O  O57  1  0.59245714  0.89884085  0.57856839  1  -1.250904  0  -0.225257  -0.591201  0  2.419898  0
O  O58  1  0.40834124  0.11390303  0.57263452  1  -1.248844  0  -0.228444  -0.595106  0  2.388186  0
O  O59  1  0.10007448  0.11322710  0.42844674  1  -1.251437  0  -0.229006  -0.597978  0  2.392055  0
O  O60  1  0.08522927  0.09989762  0.58145783  1  -1.236812  0  -0.220065  -0.567818  0  2.353447  0
O  O61  1  0.42509498  0.10850264  0.42098783  1  -1.249912  0  -0.224603  -0.579717  0  2.360802  0
O  O62  1  0.60335706  0.88836345  0.42748219  1  -1.250691  0  -0.22974  -0.601836  0  2.406787  0
O  O63  1  0.91626270  0.88196836  0.57343809  1  -1.238836  0  -0.222362  -0.568528  0  2.328041  0
O  O64  1  0.26053011  0.92468752  0.49935477  1  -1.425984  0  -0.451672  -0.977684  0  2.096503  0
O  O65  1  0.75811362  0.07487128  0.49989350  1  -1.422083  0  -0.451426  -0.978291  0  2.096287  0
O  O66  1  0.89687413  0.61318468  0.07210590  1  -1.248741  0  -0.228734  -0.594688  0  2.399068  0
O  O67  1  0.58287912  0.61684388  0.92627644  1  -1.24162  0  -0.224098  -0.574775  0  2.328684  0
O  O68  1  0.41541837  0.39471345  0.92084024  1  -1.24398  0  -0.223689  -0.574739  0  2.353469  0
O  O69  1  0.07471218  0.39555211  0.08080035  1  -1.250141  0  -0.221529  -0.574095  0  2.360643  0
O  O70  1  0.09133085  0.38234462  0.92902233  1  -1.251827  0  -0.230994  -0.601949  0  2.390503  0
O  O71  1  0.39911015  0.39116453  0.07383659  1  -1.249893  0  -0.225838  -0.591393  0  2.394062  0
O  O72  1  0.57245425  0.60843394  0.07951551  1  -1.239439  0  -0.221668  -0.570106  0  2.350193  0
O  O73  1  0.90695237  0.59992653  0.92137206  1  -1.253979  0  -0.226863  -0.598364  0  2.426065  0
O  O74  1  0.23949861  0.57527209  0.99889413  1  -1.429409  0  -0.451447  -0.977157  0  2.094098  0
O  O75  1  0.74180189  0.42523750  0.00092465  1  -1.403285  0  -0.451381  -0.980247  0  2.098274  0
O  O76  1  0.31167682  0.91023413  0.71003973  1  -0.436217  0  -0.103404  -0.302578  0  1.944023  0
O  O77  1  0.32906071  0.73923955  0.64373995  1  -0.429719  0  -0.098355  -0.285724  0  1.932579  0
O  O78  1  0.16946594  0.75754459  0.85802435  1  -0.459406  0  -0.104786  -0.301442  0  1.935552  0
O  O79  1  0.18790569  0.58867999  0.78989352  1  -0.43047  0  -0.098515  -0.29514  0  1.941257  0
O  O80  1  0.82371200  0.10519178  0.30655245  1  -0.445315  0  -0.096836  -0.291512  0  1.957704  0
O  O81  1  0.82380029  0.28370903  0.36530710  1  -0.431839  0  -0.105273  -0.298103  0  1.891607  0
O  O82  1  0.67503022  0.21919739  0.13732439  1  -0.422002  0  -0.103724  -0.294125  0  1.890581  0
O  O83  1  0.67586113  0.39850859  0.19524372  1  -0.462342  0  -0.097585  -0.292276  0  1.95822  0
O  O84  1  0.68399527  0.10500020  0.69330281  1  -0.453603  0  -0.099862  -0.297704  0  1.975508  0
O  O85  1  0.67660008  0.28736112  0.63905257  1  -0.415409  0  -0.104229  -0.291054  0  1.885472  0
O  O86  1  0.82395960  0.20996961  0.86372962  1  -0.423774  0  -0.10691  -0.29684  0  1.885303  0
O  O87  1  0.81695155  0.39091792  0.80780607  1  -0.445884  0  -0.099609  -0.297465  0  1.971207  0
O  O88  1  0.33173699  0.71879624  0.36768638  1  -0.424042  0  -0.105853  -0.299419  0  1.89025  0
O  O89  1  0.32016884  0.89646824  0.30819003  1  -0.456501  0  -0.096567  -0.292019  0  1.964236  0
O  O90  1  0.18054476  0.60548058  0.19089004  1  -0.450343  0  -0.101391  -0.299323  0  1.963815  0
O  O91  1  0.17101189  0.78622049  0.13466753  1  -0.422084  0  -0.101882  -0.287098  0  1.885338  0
