# generated using pymatgen
data_AgH10C9NO3
_symmetry_space_group_name_H-M   'P 1'
_cell_length_a   6.99239600
_cell_length_b   7.36221708
_cell_length_c   9.14997133
_cell_angle_alpha   101.59875594
_cell_angle_beta   90.00032557
_cell_angle_gamma   89.99993785
_symmetry_Int_Tables_number   1
_chemical_formula_structural   AgH10C9NO3
_chemical_formula_sum   'Ag2 H20 C18 N2 O6'
_cell_volume   461.41754792
_cell_formula_units_Z   2
loop_
 _symmetry_equiv_pos_site_id
 _symmetry_equiv_pos_as_xyz
  1  'x, y, z'
loop_
 _atom_site_type_symbol
 _atom_site_label
 _atom_site_symmetry_multiplicity
 _atom_site_fract_x
 _atom_site_fract_y
 _atom_site_fract_z
 _atom_site_occupancy
 _atom_site_hle17_bader_spin_density
 _atom_site_hle17_ddec_charge
 _atom_site_hle17_ddec_spin_density
 _atom_site_hle17_ddec_sum_bond_order
 _atom_site_hle17_magmom
 _atom_site_hse06_10hf_bader_spin_density
 _atom_site_hse06_10hf_ddec_charge
 _atom_site_hse06_10hf_ddec_spin_density
 _atom_site_hse06_10hf_ddec_sum_bond_order
 _atom_site_hse06_10hf_magmom
 _atom_site_hse06_bader_spin_density
 _atom_site_hse06_ddec_charge
 _atom_site_hse06_ddec_spin_density
 _atom_site_hse06_ddec_sum_bond_order
 _atom_site_hse06_magmom
 _atom_site_pbe_bader_spin_density
 _atom_site_pbe_cm5_charge
 _atom_site_pbe_ddec_charge
 _atom_site_pbe_ddec_spin_density
 _atom_site_pbe_ddec_sum_bond_order
 _atom_site_pbe_magmom
Ag  Ag0  1  0.42779654  0.04525678  0.11638527  1  0  0.534793  0  1.349433  0  0  0.409322  0  1.765291  0  0  0.438388  0  1.723584  0  0  0.446483  0.389537  0  1.793916  0
Ag  Ag1  1  0.92779630  0.95474404  0.88361328  1  0  0.534791  0  1.349413  0  0  0.409313  0  1.76525  0  0  0.438377  0  1.723549  0  0  0.44648  0.389526  0  1.793872  0
H  H2  1  0.05854730  0.41152425  0.29015994  1  0  0.40227  0  0.885904  0  0  0.376849  0  0.958178  0  0  0.386964  0  0.943638  0  0  0.306002  0.369831  0  0.966038  0
H  H3  1  0.55853903  0.58847239  0.70983963  1  0  0.402288  0  0.88592  0  0  0.3769  0  0.95813  0  0  0.387019  0  0.943585  0  0  0.306006  0.369878  0  0.966027  0
H  H4  1  0.24157135  0.77683337  0.21730027  1  0  0.286032  0  0.893606  0  0  0.282215  0  0.942729  0  0  0.286278  0  0.941978  0  0  0.296341  0.279675  0  0.942916  0
H  H5  1  0.74156834  0.22316744  0.78269857  1  0  0.285972  0  0.893662  0  0  0.282161  0  0.942778  0  0  0.286223  0  0.94203  0  0  0.296318  0.279622  0  0.942965  0
H  H6  1  0.25363095  0.71789177  0.03582171  1  0  0.303031  0  0.925141  0  0  0.289715  0  0.98391  0  0  0.296738  0  0.979311  0  0  0.286697  0.284877  0  0.986804  0
H  H7  1  0.75363208  0.28210765  0.96417696  1  0  0.303022  0  0.925158  0  0  0.28971  0  0.983924  0  0  0.296731  0  0.979329  0  0  0.2867  0.284873  0  0.986815  0
H  H8  1  0.59096465  0.63731895  0.05420332  1  0  0.074114  0  0.936902  0  0  0.085294  0  0.99776  0  0  0.086642  0  0.997528  0  0  0.109224  0.084333  0  0.997762  0
H  H9  1  0.09096212  0.36268325  0.94579837  1  0  0.074125  0  0.936929  0  0  0.085284  0  0.997789  0  0  0.086632  0  0.997553  0  0  0.109221  0.084327  0  0.997789  0
H  H10  1  0.49151782  0.70677872  0.38792706  1  0  0.086443  0  0.960965  0  0  0.10109  0  1.025925  0  0  0.10182  0  1.02699  0  0  0.093577  0.100524  0  1.02494  0
H  H11  1  0.99151775  0.29322211  0.61207287  1  0  0.086437  0  0.960965  0  0  0.101087  0  1.025923  0  0  0.101818  0  1.026987  0  0  0.093577  0.100522  0  1.024935  0
H  H12  1  0.70356936  0.60052371  0.30699701  1  0  0.10863  0  0.953094  0  0  0.120992  0  1.015718  0  0  0.123215  0  1.014514  0  0  0.099801  0.119197  0  1.016779  0
H  H13  1  0.20356920  0.39947850  0.69300516  1  0  0.108672  0  0.952991  0  0  0.120966  0  1.015696  0  0  0.12319  0  1.014492  0  0  0.099792  0.119175  0  1.016752  0
H  H14  1  0.91801165  0.79418541  0.16160973  1  0  0.094936  0  0.967957  0  0  0.10409  0  1.029788  0  0  0.107706  0  1.027709  0  0  0.09622  0.101392  0  1.031535  0
H  H15  1  0.41801136  0.20580849  0.83839095  1  0  0.094955  0  0.967946  0  0  0.104112  0  1.029779  0  0  0.107725  0  1.027702  0  0  0.096231  0.101413  0  1.031524  0
H  H16  1  0.07315009  0.10347961  0.18486346  1  0  0.071486  0  1.037612  0  0  0.072326  0  1.129764  0  0  0.078618  0  1.121567  0  0  0.078048  0.067477  0  1.13629  0
H  H17  1  0.57314940  0.89651427  0.81513792  1  0  0.071524  0  1.037549  0  0  0.072349  0  1.129712  0  0  0.078642  0  1.121517  0  0  0.078048  0.0675  0  1.136236  0
H  H18  1  0.63396744  0.34715312  0.49225839  1  0  0.12236  0  0.956025  0  0  0.130318  0  1.018727  0  0  0.134657  0  1.015976  0  0  0.104806  0.127243  0  1.020624  0
H  H19  1  0.13396275  0.65284907  0.50773911  1  0  0.122345  0  0.956057  0  0  0.130332  0  1.018743  0  0  0.134674  0  1.015986  0  0  0.104792  0.127256  0  1.020638  0
H  H20  1  0.48275758  0.03819700  0.47231072  1  0  0.093469  0  0.983075  0  0  0.103127  0  1.046093  0  0  0.104277  0  1.04803  0  0  0.094318  0.102  0  1.045494  0
H  H21  1  0.98275467  0.96180659  0.52768742  1  0  0.093448  0  0.983023  0  0  0.103079  0  1.046079  0  0  0.104231  0  1.048015  0  0  0.094304  0.101954  0  1.045474  0
C  C22  1  0.41487809  0.44494472  0.14110497  1  0  0.64596  0  3.844745  0  0  0.595147  0  4.140155  0  0  0.628535  0  4.134134  0  0  0.210417  0.572451  0  4.143575  0
C  C23  1  0.91487812  0.55505887  0.85889397  1  0  0.646071  0  3.844398  0  0  0.595225  0  4.139823  0  0  0.628611  0  4.133799  0  0  0.210426  0.572542  0  4.143232  0
C  C24  1  0.49052016  0.64155681  0.14721106  1  0  0.058613  0  3.606032  0  0  0.042782  0  3.840881  0  0  0.042012  0  3.854642  0  0  -0.005363  0.043147  0  3.831578  0
C  C25  1  0.99052181  0.35844402  0.85278886  1  0  0.058538  0  3.60615  0  0  0.042781  0  3.840897  0  0  0.042013  0  3.854655  0  0  -0.005376  0.043128  0  3.831619  0
C  C26  1  0.59511145  0.70548073  0.29740698  1  0  -0.195131  0  3.670249  0  0  -0.237549  0  3.909722  0  0  -0.239372  0  3.92269  0  0  -0.163597  -0.236078  0  3.900969  0
C  C27  1  0.09511148  0.29451870  0.70259647  1  0  -0.195137  0  3.670292  0  0  -0.237504  0  3.909689  0  0  -0.239326  0  3.922656  0  0  -0.163572  -0.236056  0  3.900984  0
C  C28  1  0.68843706  0.89279847  0.31443028  1  0  0.063408  0  3.789139  0  0  0.081552  0  4.026571  0  0  0.080321  0  4.050755  0  0  -0.037399  0.08179  0  4.010746  0
C  C29  1  0.18843861  0.10720374  0.68557292  1  0  0.063472  0  3.789188  0  0  0.081617  0  4.026589  0  0  0.080385  0  4.050775  0  0  -0.037353  0.081853  0  4.010761  0
C  C30  1  0.85560549  0.91490494  0.23503364  1  0  -0.127406  0  3.805868  0  0  -0.143141  0  4.056709  0  0  -0.143457  0  4.075952  0  0  -0.107079  -0.143022  0  4.043776  0
C  C31  1  0.35560337  0.08509450  0.76496766  1  0  -0.127522  0  3.805847  0  0  -0.143267  0  4.0567  0  0  -0.143581  0  4.075943  0  0  -0.107161  -0.143142  0  4.043758  0
C  C32  1  0.94257906  0.08773015  0.24690707  1  0  -0.232724  0  3.819186  0  0  -0.245601  0  4.070049  0  0  -0.253289  0  4.090395  0  0  -0.124134  -0.240199  0  4.056209  0
C  C33  1  0.44257732  0.91226791  0.75309329  1  0  -0.232736  0  3.81902  0  0  -0.245604  0  4.06989  0  0  -0.253298  0  4.090233  0  0  -0.124099  -0.240206  0  4.056045  0
C  C34  1  0.86391244  0.24448391  0.34024206  1  0  0.342903  0  3.824134  0  0  0.333476  0  4.082554  0  0  0.345341  0  4.098932  0  0  0.077864  0.325519  0  4.070632  0
C  C35  1  0.36390875  0.75551553  0.65975818  1  0  0.342891  0  3.824009  0  0  0.333508  0  4.08238  0  0  0.345372  0  4.098767  0  0  0.077921  0.325559  0  4.070444  0
C  C36  1  0.69780803  0.22518868  0.42180528  1  0  -0.190778  0  3.726425  0  0  -0.213853  0  3.98557  0  0  -0.218447  0  4.001846  0  0  -0.112341  -0.210906  0  3.974353  0
C  C37  1  0.19780229  0.77481213  0.57819228  1  0  -0.190818  0  3.726371  0  0  -0.213951  0  3.985535  0  0  -0.21854  0  4.0018  0  0  -0.112372  -0.211012  0  3.97432  0
C  C38  1  0.61171456  0.05133994  0.40798563  1  0  -0.127743  0  3.793732  0  0  -0.139426  0  4.041542  0  0  -0.13963  0  4.061053  0  0  -0.106648  -0.139161  0  4.029051  0
C  C39  1  0.11171301  0.94866086  0.59201374  1  0  -0.127609  0  3.793529  0  0  -0.139264  0  4.04134  0  0  -0.13947  0  4.060852  0  0  -0.106596  -0.138993  0  4.028836  0
N  N40  1  0.33405434  0.77045366  0.12949836  1  0  -0.618196  0  3.205019  0  0  -0.552049  0  3.455024  0  0  -0.574294  0  3.457066  0  0  -0.638342  -0.536715  0  3.452951  0
N  N41  1  0.83405198  0.22954716  0.87050088  1  0  -0.61812  0  3.20502  0  0  -0.551999  0  3.455006  0  0  -0.57424  0  3.457046  0  0  -0.638326  -0.53666  0  3.452933  0
O  O42  1  0.53572213  0.31326670  0.09802479  1  0  -0.623989  0  2.121202  0  0  -0.536982  0  2.381476  0  0  -0.569723  0  2.373371  0  0  -0.328149  -0.514143  0  2.386081  0
O  O43  1  0.03572605  0.68673411  0.90197535  1  0  -0.624037  0  2.121206  0  0  -0.536991  0  2.381441  0  0  -0.569735  0  2.373339  0  0  -0.32812  -0.514151  0  2.386038  0
O  O44  1  0.24481207  0.42180185  0.17793047  1  0  -0.644486  0  2.000518  0  0  -0.585426  0  2.231417  0  0  -0.610346  0  2.22013  0  0  -0.320877  -0.567937  0  2.237827  0
O  O45  1  0.74481180  0.57819895  0.82206510  1  0  -0.644536  0  2.000222  0  0  -0.585493  0  2.231149  0  0  -0.610413  0  2.219857  0  0  -0.320913  -0.568004  0  2.237557  0
O  O46  1  0.94387354  0.41571085  0.35526745  1  0  -0.527997  0  2.103104  0  0  -0.474265  0  2.306905  0  0  -0.49296  0  2.294838  0  0  -0.355861  -0.460819  0  2.312605  0
O  O47  1  0.44386565  0.58428305  0.64473335  1  0  -0.528032  0  2.103049  0  0  -0.474358  0  2.306798  0  0  -0.493033  0  2.294681  0  0  -0.355934  -0.460913  0  2.312521  0
