# generated using pymatgen
data_MnH6(C2O3)2
_symmetry_space_group_name_H-M   'P 1'
_cell_length_a   9.58812449
_cell_length_b   9.79093925
_cell_length_c   13.54447782
_cell_angle_alpha   70.99361994
_cell_angle_beta   69.33368644
_cell_angle_gamma   60.69461640
_symmetry_Int_Tables_number   1
_chemical_formula_structural   MnH6(C2O3)2
_chemical_formula_sum   'Mn6 H36 C24 O36'
_cell_volume   1019.05267958
_cell_formula_units_Z   6
loop_
 _symmetry_equiv_pos_site_id
 _symmetry_equiv_pos_as_xyz
  1  'x, y, z'
loop_
 _atom_site_type_symbol
 _atom_site_label
 _atom_site_symmetry_multiplicity
 _atom_site_fract_x
 _atom_site_fract_y
 _atom_site_fract_z
 _atom_site_occupancy
 _atom_site_hle17_ddec_charge
 _atom_site_hle17_ddec_spin_density
 _atom_site_hle17_ddec_sum_bond_order
 _atom_site_hle17_magmom
 _atom_site_hse06_10hf_ddec_charge
 _atom_site_hse06_10hf_ddec_spin_density
 _atom_site_hse06_10hf_ddec_sum_bond_order
 _atom_site_hse06_10hf_magmom
 _atom_site_hse06_ddec_charge
 _atom_site_hse06_ddec_spin_density
 _atom_site_hse06_ddec_sum_bond_order
 _atom_site_hse06_magmom
 _atom_site_pbe_bader_charge
 _atom_site_pbe_bader_spin_density
 _atom_site_pbe_cm5_charge
 _atom_site_pbe_ddec_charge
 _atom_site_pbe_ddec_spin_density
 _atom_site_pbe_ddec_sum_bond_order
 _atom_site_pbe_magmom
Mn  Mn0  1  0.00444453  0.75000498  0.24994683  1  1.206963  -4.816792  1.573351  -4.698  1.028033  -4.757671  2.038129  -4.573  1.098701  -4.79477  1.965681  -4.629  1.490787  -4.616005  0.588044  0.97254  -4.718988  2.091571  -4.516
Mn  Mn1  1  0.99554756  0.24999371  0.75005285  1  1.206941  -4.816812  1.573282  -4.698  1.027995  -4.757693  2.038029  -4.573  1.098678  -4.794796  1.965572  -4.629  1.491067  -4.616126  0.588235  0.972807  -4.719254  2.09137  -4.516
Mn  Mn2  1  0.03942314  0.66040741  0.80006109  1  1.307355  -4.80693  1.635591  -4.702  1.157094  -4.733734  2.122863  -4.567  1.208901  -4.770921  2.052216  -4.622  1.552261  -4.574021  0.602241  1.11898  -4.692814  2.174176  -4.51
Mn  Mn3  1  0.49994668  0.83956082  0.69987559  1  1.305969  -4.805457  1.63849  -4.702  1.156127  -4.731125  2.125789  -4.567  1.207728  -4.768473  2.055394  -4.622  1.55308  -4.572455  0.602032  1.118404  -4.689513  2.176864  -4.509
Mn  Mn4  1  0.96058530  0.33959963  0.19995212  1  1.30724  -4.807053  1.635596  -4.702  1.157034  -4.733816  2.122814  -4.567  1.208842  -4.77102  2.052177  -4.622  1.552214  -4.574002  0.60219  1.118919  -4.692816  2.174059  -4.51
Mn  Mn5  1  0.50003120  0.16044145  0.30013517  1  1.305959  -4.805489  1.638474  -4.702  1.156104  -4.731139  2.125765  -4.567  1.207701  -4.768487  2.055377  -4.622  1.553189  -4.572495  0.601985  1.118337  -4.689567  2.176838  -4.509
H  H6  1  0.78622753  0.89391770  0.73097242  1  0.434611  0.000407  0.861277  -0.001  0.40454  -0.000489  0.922351  -0.002  0.415725  -0.000134  0.905954  -0.001  0.646681  -0.001748  0.30335  0.396444  -0.00087  0.934215  -0.002
H  H7  1  0.41111638  0.60618884  0.76896185  1  0.436197  0.000402  0.858893  -0.001  0.404986  -0.000493  0.921637  -0.002  0.416174  -0.000138  0.905259  -0.001  0.654802  -0.001718  0.303783  0.39692  -0.000882  0.933439  -0.002
H  H8  1  0.21377336  0.10608695  0.26902738  1  0.434596  0.000407  0.861302  -0.001  0.404523  -0.00049  0.922379  -0.002  0.415708  -0.000135  0.905984  -0.001  0.646631  -0.001748  0.303343  0.396418  -0.00087  0.934255  -0.002
H  H9  1  0.58889515  0.39379673  0.23103917  1  0.436177  0.000394  0.858937  -0.001  0.405005  -0.000492  0.921613  -0.002  0.416191  -0.000137  0.905242  -0.001  0.654816  -0.001718  0.303805  0.396931  -0.000881  0.933424  -0.002
H  H10  1  0.90288698  0.99122280  0.68985311  1  0.441798  -0.000276  0.856108  -0.002  0.409925  -0.000972  0.919727  -0.003  0.42077  -0.000583  0.904171  -0.003  0.668569  -0.002817  0.297437  0.402327  -0.001331  0.930598  -0.003
H  H11  1  0.58404464  0.50877285  0.81011228  1  0.443395  -0.000285  0.854144  -0.002  0.411704  -0.000977  0.917463  -0.003  0.422566  -0.000589  0.901864  -0.003  0.659556  -0.00288  0.298273  0.404115  -0.001336  0.92833  -0.003
H  H12  1  0.09710406  0.00878424  0.31014738  1  0.441819  -0.000279  0.856064  -0.002  0.40996  -0.000972  0.919653  -0.003  0.420802  -0.000583  0.904101  -0.003  0.668593  -0.002818  0.297465  0.402355  -0.001331  0.930533  -0.003
H  H13  1  0.41595590  0.49121988  0.18989012  1  0.443406  -0.000288  0.854132  -0.002  0.411688  -0.000976  0.917494  -0.003  0.422551  -0.000588  0.901895  -0.003  0.659617  -0.002879  0.298248  0.404089  -0.001334  0.928373  -0.003
H  H14  1  0.99655744  0.88610644  0.89945442  1  0.436269  0.00052  0.862748  -0.001  0.404166  -7.1e-05  0.928538  -0.002  0.414715  0.000183  0.913238  -0.001  0.661115  -0.001209  0.29977  0.396773  -0.000307  0.939221  -0.002
H  H15  1  0.78218044  0.61393452  0.60056252  1  0.436054  0.000524  0.863035  -0.001  0.403951  -6.7e-05  0.928734  -0.002  0.414484  0.000188  0.913475  -0.001  0.661531  -0.001221  0.299916  0.396577  -0.000301  0.939395  -0.002
H  H16  1  0.00345516  0.11389344  0.10054527  1  0.436352  0.000521  0.862651  -0.001  0.404244  -7e-05  0.928458  -0.002  0.414794  0.000184  0.913155  -0.001  0.661054  -0.001208  0.299798  0.396844  -0.000306  0.939148  -0.002
H  H17  1  0.21781433  0.38606536  0.39942824  1  0.436119  0.000522  0.86293  -0.001  0.404061  -6.7e-05  0.928572  -0.002  0.414596  0.000187  0.913305  -0.001  0.661586  -0.001221  0.29997  0.396684  -0.000301  0.939236  -0.002
H  H18  1  0.00552181  0.74412656  0.99423393  1  0.423511  0.000187  0.867119  -0.001  0.395347  -0.000547  0.930376  -0.002  0.405369  -0.000204  0.915803  -0.002  0.655763  -0.002222  0.303544  0.388157  -0.000897  0.940858  -0.003
H  H19  1  0.74394161  0.75594659  0.50578596  1  0.423695  0.000185  0.866446  -0.001  0.395197  -0.000551  0.930324  -0.002  0.405242  -0.000208  0.915741  -0.002  0.627549  -0.00241  0.303546  0.388027  -0.000894  0.940748  -0.003
H  H20  1  0.99449160  0.25586855  0.00576987  1  0.42341  0.000186  0.867198  -0.001  0.395248  -0.000546  0.930503  -0.002  0.405269  -0.000203  0.915934  -0.002  0.655827  -0.00222  0.303486  0.388046  -0.000897  0.941002  -0.003
H  H21  1  0.25604463  0.24406402  0.49421398  1  0.423695  0.000181  0.866462  -0.001  0.395227  -0.000551  0.930294  -0.002  0.405272  -0.000208  0.915711  -0.002  0.627554  -0.00241  0.303546  0.388043  -0.000894  0.94074  -0.003
H  H22  1  0.17529134  0.34783776  0.87590332  1  0.415514  0.000398  0.893729  -0.001  0.384319  -0.000378  0.95795  -0.002  0.39461  -4e-05  0.943202  -0.002  0.640912  -0.00177  0.294552  0.37705  -0.000759  0.968313  -0.002
H  H23  1  0.39902838  0.15218543  0.62403911  1  0.416652  0.000397  0.892293  -0.001  0.385866  -0.000378  0.956045  -0.002  0.396168  -4e-05  0.94127  -0.002  0.646744  -0.001761  0.294833  0.378572  -0.000761  0.96646  -0.002
H  H24  1  0.82471283  0.65216331  0.12408963  1  0.415513  0.000399  0.89374  -0.001  0.384335  -0.000377  0.957942  -0.002  0.394629  -3.9e-05  0.943191  -0.002  0.640905  -0.001769  0.294545  0.377058  -0.000758  0.968317  -0.002
H  H25  1  0.60096000  0.84780968  0.37596517  1  0.416675  0.000394  0.892259  -0.001  0.385874  -0.000379  0.956019  -0.002  0.396173  -4e-05  0.94125  -0.002  0.646887  -0.001761  0.294905  0.378576  -0.000761  0.96644  -0.002
H  H26  1  0.19166458  0.42110455  0.95771961  1  0.420344  0.000414  0.886095  -0.001  0.390992  -0.000276  0.947361  -0.002  0.401466  2.1e-05  0.932356  -0.002  0.63614  -0.001912  0.293925  0.383632  -0.000599  0.957921  -0.002
H  H27  1  0.57037602  0.07894965  0.54232017  1  0.421199  0.000411  0.884663  -0.001  0.392225  -0.000277  0.945363  -0.002  0.402699  2.1e-05  0.930353  -0.002  0.651222  -0.001835  0.294242  0.384897  -0.000603  0.95588  -0.002
H  H28  1  0.80834195  0.57889653  0.04228102  1  0.420322  0.000414  0.886135  -0.001  0.39097  -0.000276  0.947398  -0.002  0.401444  2.1e-05  0.932393  -0.002  0.636174  -0.001911  0.293918  0.383605  -0.000598  0.957962  -0.002
H  H29  1  0.42962737  0.92104547  0.45768027  1  0.421158  0.000413  0.884727  -0.001  0.392174  -0.000277  0.945434  -0.002  0.402648  2.1e-05  0.930424  -0.002  0.651207  -0.001834  0.294237  0.384844  -0.000602  0.955952  -0.002
H  H30  1  0.14837139  0.91983282  0.47895736  1  0.139117  0.000112  0.94004  0.0  0.145576  -0.000155  1.004097  0.0  0.150187  1.7e-05  1.000807  0.0  0.141833  -0.001485  0.117412  0.141736  -0.000438  1.007743  0.0
H  H31  1  0.54727453  0.58016284  0.02100786  1  0.138221  0.000109  0.940236  0.0  0.144452  -0.000156  1.004592  0.0  0.14906  1.6e-05  1.001369  0.0  0.143326  -0.001485  0.117319  0.140591  -0.000441  1.008235  0.0
H  H32  1  0.85162962  0.08017303  0.52104053  1  0.139083  0.000114  0.940235  0.0  0.145617  -0.000155  1.004214  0.0  0.15023  1.7e-05  1.000919  0.0  0.141928  -0.001485  0.11739  0.141767  -0.000438  1.007863  0.0
H  H33  1  0.45273774  0.41983466  0.97899462  1  0.138146  0.000128  0.940205  0.0  0.14441  -0.000157  1.004552  0.0  0.149019  1.5e-05  1.001327  0.0  0.144108  -0.001484  0.117297  0.140534  -0.000441  1.008209  0.0
H  H34  1  0.36266855  0.42964792  0.48581915  1  0.114758  0.000218  0.948005  0.0  0.123826  5.2e-05  1.015873  0.0  0.126859  0.000209  1.013771  0.0  0.082421  -0.001233  0.106942  0.121303  -0.000198  1.017943  -0.001
H  H35  1  0.27835641  0.07032280  0.01423819  1  0.114227  0.000228  0.94697  0.0  0.123415  4.8e-05  1.015108  0.0  0.126426  0.000206  1.013034  0.0  0.060729  -0.001263  0.106415  0.120924  -0.000205  1.017142  -0.001
H  H36  1  0.63731827  0.57036508  0.51417217  1  0.11468  0.000255  0.947921  0.0  0.123723  5.2e-05  1.015848  0.0  0.126755  0.000209  1.013747  0.0  0.082111  -0.001234  0.106914  0.121186  -0.000199  1.017928  -0.001
H  H37  1  0.72164633  0.92967231  0.98576401  1  0.114245  0.000213  0.946951  0.0  0.123431  4.8e-05  1.015074  0.0  0.126443  0.000207  1.013001  0.0  0.060649  -0.001263  0.106415  0.120929  -0.000205  1.017116  -0.001
H  H38  1  0.37635022  0.48935261  0.59173847  1  0.129398  7.8e-05  0.926746  0.0  0.145062  -0.000238  0.980154  -0.001  0.147381  -5.7e-05  0.979564  0.0  0.086222  -0.001478  0.113383  0.143418  -0.000443  0.980557  -0.001
H  H39  1  0.45744925  0.01058950  0.90836970  1  0.128739  7.1e-05  0.927376  0.0  0.145118  -0.000238  0.980359  -0.001  0.147396  -5.7e-05  0.979838  0.0  0.095395  -0.001466  0.113075  0.143489  -0.000444  0.980744  -0.001
H  H40  1  0.62364812  0.51064966  0.40824960  1  0.129434  9.4e-05  0.926774  0.0  0.145072  -0.000239  0.980191  -0.001  0.147395  -5.7e-05  0.979599  0.0  0.085901  -0.001478  0.113405  0.143421  -0.000442  0.980592  -0.001
H  H41  1  0.54255402  0.98940800  0.09163174  1  0.128765  9.3e-05  0.927303  0.0  0.145132  -0.000238  0.980292  -0.001  0.147411  -5.7e-05  0.979767  0.0  0.095417  -0.001465  0.113061  0.143496  -0.000443  0.980676  -0.001
C  C42  1  0.20345460  0.79927041  0.52385696  1  -0.209878  -0.000281  3.585704  -0.001  -0.244562  -0.002786  3.851701  -0.002  -0.247211  -0.001145  3.860896  -0.001  0.005554  -0.008442  -0.072634  -0.244255  -0.00588  3.848514  -0.004
C  C43  1  0.52663825  0.70076698  0.97619760  1  -0.205209  -0.000171  3.588838  -0.001  -0.239945  -0.002729  3.854568  -0.002  -0.24263  -0.001093  3.863776  -0.001  -0.043558  -0.008154  -0.071064  -0.239541  -0.005623  3.85132  -0.004
C  C44  1  0.79654831  0.20073186  0.47613658  1  -0.209768  -0.000147  3.586  -0.001  -0.244704  -0.002789  3.851871  -0.002  -0.247341  -0.001154  3.861049  -0.001  0.005857  -0.008445  -0.072673  -0.244373  -0.005884  3.848682  -0.004
C  C45  1  0.47337076  0.29923291  0.02380679  1  -0.204994  -3e-05  3.588538  0.0  -0.239799  -0.002733  3.854305  -0.002  -0.242484  -0.001088  3.863509  -0.001  -0.044199  -0.008156  -0.070983  -0.239366  -0.005624  3.851078  -0.004
C  C46  1  0.20946984  0.67548620  0.49643375  1  0.028758  -0.001518  3.670214  -0.002  0.041589  -0.004285  3.919614  -0.003  0.038405  -0.002263  3.937977  -0.002  -0.054936  -0.011771  -0.001597  0.042005  -0.008384  3.909317  -0.006
C  C47  1  0.38149809  0.82447845  0.00363158  1  0.026236  -0.001593  3.6712  -0.002  0.039188  -0.004312  3.921036  -0.004  0.03604  -0.002296  3.939355  -0.002  0.024401  -0.011688  -0.002551  0.039567  -0.008386  3.910779  -0.006
C  C48  1  0.79052944  0.32452203  0.50355672  1  0.028546  -0.001622  3.670737  -0.002  0.041748  -0.004282  3.919657  -0.003  0.038566  -0.002257  3.938019  -0.002  -0.054941  -0.011773  -0.001528  0.042143  -0.008386  3.909371  -0.006
C  C49  1  0.61850621  0.17551905  0.99637218  1  0.026151  -0.001756  3.671189  -0.002  0.039128  -0.004305  3.921039  -0.004  0.035987  -0.002301  3.939344  -0.002  0.024166  -0.011698  -0.002609  0.039482  -0.008395  3.910796  -0.006
C  C50  1  0.29170242  0.50360152  0.54783311  1  -0.312062  0.0007  3.714704  0.0  -0.356009  -0.000567  3.959458  0.0  -0.36155  5.2e-05  3.966881  0.0  -0.032569  -0.002308  -0.162092  -0.351858  -0.001226  3.955232  -0.001
C  C51  1  0.34325159  0.99635002  0.95222918  1  -0.310464  0.000725  3.712155  0.0  -0.355955  -0.000548  3.959514  0.0  -0.361466  6.9e-05  3.966934  0.0  -0.041275  -0.002285  -0.161273  -0.351799  -0.001202  3.955231  0.0
C  C52  1  0.70829142  0.49640433  0.45215746  1  -0.311961  0.000558  3.714714  0.0  -0.355987  -0.000567  3.959399  0.0  -0.361531  5e-05  3.966824  0.0  -0.032335  -0.00231  -0.162096  -0.351837  -0.001228  3.955187  -0.001
C  C53  1  0.65675220  0.00364629  0.04777241  1  -0.3105  0.000698  3.712069  0.0  -0.355979  -0.000548  3.959345  0.0  -0.361492  6.9e-05  3.966762  0.0  -0.041315  -0.002286  -0.161277  -0.351806  -0.001202  3.955047  0.0
C  C54  1  0.17305653  0.43632285  0.62993050  1  0.739585  -0.008335  3.750608  -0.008  0.685374  -0.014738  4.049292  -0.013  0.720789  -0.010999  4.041574  -0.01  1.565624  -0.019044  0.237139  0.660602  -0.018856  4.053776  -0.016
C  C55  1  0.23931175  0.06365623  0.87008999  1  0.740263  -0.008308  3.749316  -0.008  0.6857  -0.014715  4.048701  -0.013  0.721075  -0.010986  4.04102  -0.01  1.555623  -0.019141  0.237396  0.660975  -0.018809  4.05313  -0.016
C  C56  1  0.82693683  0.56368777  0.37006789  1  0.739584  -0.008326  3.750426  -0.008  0.685396  -0.014743  4.049077  -0.013  0.720809  -0.011001  4.041356  -0.01  1.566052  -0.019049  0.237056  0.660603  -0.018863  4.053564  -0.016
C  C57  1  0.76069161  0.93633770  0.12991338  1  0.74015  -0.008314  3.749562  -0.008  0.685683  -0.014711  4.048795  -0.013  0.721057  -0.010983  4.041113  -0.01  1.555879  -0.019138  0.23736  0.660932  -0.018806  4.053228  -0.016
C  C58  1  0.27761814  0.78094239  0.60953537  1  0.729752  -0.008148  3.821518  -0.009  0.676376  -0.015528  4.115083  -0.014  0.713016  -0.011008  4.104557  -0.011  1.526356  -0.022974  0.235531  0.650547  -0.021252  4.122529  -0.019
C  C59  1  0.66796718  0.71905565  0.89053764  1  0.7268  -0.008217  3.826286  -0.009  0.675077  -0.015608  4.118306  -0.014  0.711726  -0.011054  4.107755  -0.011  1.535042  -0.022981  0.234856  0.649214  -0.021304  4.125717  -0.019
C  C60  1  0.72238675  0.21905153  0.39045866  1  0.729362  -0.008175  3.821809  -0.009  0.676137  -0.015524  4.115234  -0.014  0.71277  -0.011004  4.104727  -0.011  1.525748  -0.022971  0.235437  0.650299  -0.02125  4.122678  -0.019
C  C61  1  0.33203775  0.28094423  0.10946637  1  0.726859  -0.008228  3.826033  -0.009  0.675113  -0.015611  4.118106  -0.014  0.711766  -0.011057  4.107548  -0.011  1.534803  -0.022994  0.234926  0.649223  -0.021313  4.125538  -0.019
C  C62  1  0.13225670  0.70567003  0.40843025  1  0.641042  -0.004385  3.860434  -0.003  0.590017  -0.009105  4.147138  -0.006  0.624554  -0.00676  4.141869  -0.004  1.540783  -0.011298  0.217499  0.565967  -0.011913  4.150386  -0.007
C  C63  1  0.24658231  0.79429939  0.09159226  1  0.639656  -0.00435  3.860087  -0.003  0.58905  -0.00903  4.146185  -0.006  0.623548  -0.006702  4.14092  -0.004  1.529784  -0.011118  0.2173  0.565088  -0.011733  4.149343  -0.007
C  C64  1  0.86773638  0.29433820  0.59156307  1  0.640954  -0.004389  3.860499  -0.003  0.589851  -0.009103  4.147123  -0.006  0.624388  -0.00676  4.141858  -0.004  1.540753  -0.011296  0.217464  0.565827  -0.011912  4.150367  -0.007
C  C65  1  0.75341823  0.20569930  0.90841124  1  0.639655  -0.004331  3.860104  -0.003  0.589023  -0.009031  4.146232  -0.006  0.62352  -0.006702  4.140966  -0.004  1.529939  -0.011117  0.217266  0.565087  -0.011733  4.149393  -0.007
O  O66  1  0.13801225  0.58744945  0.38363970  1  -0.63323  -0.023247  2.038149  -0.017  -0.56296  -0.02826  2.275108  -0.021  -0.593438  -0.024305  2.265206  -0.017  -1.179336  -0.047831  -0.293396  -0.541074  -0.032827  2.281461  -0.025
O  O67  1  0.10941672  0.91251401  0.11625613  1  -0.631742  -0.023137  2.035773  -0.017  -0.561246  -0.02815  2.272089  -0.021  -0.591682  -0.024205  2.262185  -0.017  -1.185927  -0.047707  -0.292499  -0.539288  -0.032654  2.278296  -0.025
O  O68  1  0.86197788  0.41255878  0.61635657  1  -0.633029  -0.023262  2.038129  -0.017  -0.562772  -0.028255  2.275122  -0.021  -0.593252  -0.024301  2.265225  -0.017  -1.179305  -0.047844  -0.293292  -0.540892  -0.032832  2.281468  -0.025
O  O69  1  0.89058435  0.08748111  0.88374551  1  -0.631691  -0.023142  2.035735  -0.017  -0.561209  -0.028152  2.272094  -0.021  -0.591657  -0.024203  2.262205  -0.017  -1.185938  -0.047726  -0.292446  -0.539254  -0.032667  2.278296  -0.025
O  O70  1  0.05843394  0.84693925  0.35820063  1  -0.640037  -0.024305  1.997281  -0.017  -0.571194  -0.0302  2.232889  -0.021  -0.60222  -0.026185  2.221833  -0.017  -1.198344  -0.050451  -0.299087  -0.548458  -0.034485  2.239977  -0.025
O  O71  1  0.26388449  0.65307190  0.14187388  1  -0.640973  -0.02414  1.997628  -0.017  -0.572433  -0.030099  2.232829  -0.021  -0.603448  -0.026095  2.221817  -0.017  -1.196147  -0.050284  -0.300222  -0.549675  -0.034366  2.239837  -0.025
O  O72  1  0.94155376  0.15306779  0.64179874  1  -0.640062  -0.024293  1.997111  -0.017  -0.571204  -0.030203  2.232738  -0.021  -0.602235  -0.026184  2.221681  -0.017  -1.198227  -0.050469  -0.299087  -0.548476  -0.034498  2.239829  -0.025
O  O73  1  0.73611405  0.34692798  0.85813095  1  -0.640964  -0.024158  1.99765  -0.017  -0.572423  -0.030101  2.232868  -0.021  -0.603439  -0.026097  2.221857  -0.017  -1.196252  -0.050301  -0.300164  -0.549676  -0.034379  2.239876  -0.025
O  O74  1  0.26047252  0.68387219  0.69752860  1  -0.663292  -0.027859  2.074511  -0.014  -0.583146  -0.034141  2.317105  -0.017  -0.614137  -0.030996  2.303491  -0.015  -1.197868  -0.052798  -0.289297  -0.560724  -0.036977  2.326497  -0.019
O  O75  1  0.64162391  0.81619024  0.80254189  1  -0.660778  -0.027806  2.074203  -0.014  -0.583233  -0.034114  2.318208  -0.017  -0.614285  -0.030986  2.304631  -0.015  -1.20166  -0.05297  -0.289712  -0.560691  -0.036883  2.327527  -0.019
O  O76  1  0.73953687  0.31611458  0.30246384  1  -0.662908  -0.027822  2.074483  -0.014  -0.582999  -0.034142  2.317187  -0.017  -0.613993  -0.030994  2.303596  -0.015  -1.198018  -0.052806  -0.28926  -0.560564  -0.036971  2.326563  -0.019
O  O77  1  0.35837748  0.18380607  0.19745988  1  -0.660825  -0.027783  2.074322  -0.014  -0.58327  -0.034116  2.318337  -0.017  -0.614321  -0.030984  2.304756  -0.015  -1.201222  -0.052967  -0.289761  -0.560707  -0.036878  2.32766  -0.019
O  O78  1  0.35950827  0.86195247  0.58975293  1  -0.653866  -0.030905  2.01326  -0.019  -0.58487  -0.04108  2.259835  -0.026  -0.613424  -0.036398  2.243696  -0.023  -1.177485  -0.062624  -0.288745  -0.564889  -0.045819  2.271277  -0.03
O  O79  1  0.81115021  0.63788460  0.91024890  1  -0.654554  -0.030842  2.014352  -0.019  -0.585356  -0.041114  2.259317  -0.026  -0.613848  -0.036393  2.243209  -0.023  -1.180721  -0.062611  -0.288367  -0.565364  -0.045953  2.270763  -0.03
O  O80  1  0.64049439  0.13804384  0.41024532  1  -0.65371  -0.030903  2.013339  -0.019  -0.58473  -0.041075  2.259825  -0.026  -0.613285  -0.036397  2.243701  -0.023  -1.177143  -0.062615  -0.288656  -0.564736  -0.045811  2.271259  -0.03
O  O81  1  0.18885725  0.36211647  0.08975303  1  -0.654565  -0.030842  2.014071  -0.019  -0.585339  -0.041113  2.259016  -0.026  -0.613832  -0.036394  2.242908  -0.023  -1.18093  -0.062623  -0.288347  -0.565339  -0.045954  2.270465  -0.03
O  O82  1  0.20113933  0.29316729  0.62949947  1  -0.689992  -0.031318  2.088671  -0.021  -0.608156  -0.038311  2.329605  -0.026  -0.64134  -0.033566  2.317356  -0.022  -1.20841  -0.060916  -0.300886  -0.58373  -0.042558  2.33741  -0.03
O  O83  1  0.12377529  0.20677244  0.87059348  1  -0.690313  -0.031388  2.090027  -0.021  -0.607393  -0.038265  2.330288  -0.026  -0.640598  -0.033534  2.318055  -0.022  -1.204391  -0.060632  -0.301252  -0.58298  -0.042434  2.338164  -0.03
O  O84  1  0.79886312  0.70683379  0.37050078  1  -0.689907  -0.031322  2.088701  -0.021  -0.60808  -0.038314  2.329625  -0.026  -0.641253  -0.03357  2.317369  -0.022  -1.208588  -0.060925  -0.300858  -0.58365  -0.042558  2.33743  -0.03
O  O85  1  0.87622597  0.79321910  0.12941111  1  -0.690221  -0.03137  2.090205  -0.021  -0.607396  -0.038269  2.330488  -0.026  -0.640601  -0.033535  2.318253  -0.022  -1.204511  -0.060636  -0.301236  -0.58298  -0.042433  2.338385  -0.03
O  O86  1  0.05493307  0.51520334  0.69751590  1  -0.636103  -0.032497  1.999783  -0.016  -0.568507  -0.045462  2.261979  -0.025  -0.597949  -0.040359  2.247964  -0.021  -1.206491  -0.068979  -0.279539  -0.546892  -0.050621  2.271173  -0.029
O  O87  1  0.26753084  0.98489724  0.80240250  1  -0.636499  -0.032492  1.99794  -0.016  -0.568116  -0.045453  2.25907  -0.025  -0.597322  -0.040336  2.244867  -0.021  -1.197154  -0.069059  -0.27889  -0.54666  -0.050647  2.268394  -0.029
O  O88  1  0.94506437  0.48480370  0.30248378  1  -0.636177  -0.03252  1.999819  -0.016  -0.568576  -0.04548  2.261984  -0.025  -0.598048  -0.040379  2.248021  -0.021  -1.206383  -0.068964  -0.279538  -0.546952  -0.05064  2.271168  -0.029
O  O89  1  0.73247934  0.01509549  0.19759919  1  -0.636548  -0.032496  1.997995  -0.016  -0.568176  -0.045447  2.259023  -0.025  -0.597376  -0.040333  2.244816  -0.021  -1.197191  -0.069055  -0.278944  -0.54671  -0.050638  2.268337  -0.029
O  O90  1  0.89907145  0.88522885  0.71434919  1  -0.879516  -0.033457  1.893412  -0.02  -0.818429  -0.042193  2.107884  -0.024  -0.843481  -0.037912  2.071082  -0.021  -1.309224  -0.063427  -0.576459  -0.799146  -0.046211  2.133778  -0.027
O  O91  1  0.49885656  0.61479780  0.78546440  1  -0.882217  -0.033495  1.88977  -0.02  -0.820453  -0.042238  2.105718  -0.024  -0.845552  -0.037947  2.068836  -0.021  -1.310133  -0.06344  -0.577842  -0.80115  -0.04621  2.131599  -0.027
O  O92  1  0.10092954  0.11477342  0.28564962  1  -0.879529  -0.03346  1.893483  -0.02  -0.818423  -0.042201  2.107938  -0.024  -0.843471  -0.037917  2.071141  -0.021  -1.309176  -0.063431  -0.576471  -0.799143  -0.046218  2.133844  -0.027
O  O93  1  0.50114206  0.38519850  0.21454236  1  -0.8823  -0.033481  1.889886  -0.02  -0.820502  -0.04224  2.105815  -0.024  -0.845603  -0.03795  2.068931  -0.021  -1.310253  -0.063447  -0.57786  -0.801198  -0.046209  2.131715  -0.027
O  O94  1  0.04742248  0.76752457  0.91593793  1  -0.840516  -0.030427  1.851393  -0.02  -0.783931  -0.039527  2.053834  -0.025  -0.806497  -0.035071  2.019238  -0.022  -1.308587  -0.060005  -0.57301  -0.76686  -0.04371  2.078101  -0.029
O  O95  1  0.73091601  0.73251758  0.58410558  1  -0.840362  -0.030374  1.850748  -0.02  -0.783166  -0.039479  2.054412  -0.025  -0.805654  -0.03502  2.019624  -0.022  -1.282057  -0.059774  -0.57333  -0.766123  -0.043702  2.078652  -0.029
O  O96  1  0.95258738  0.23247293  0.08406473  1  -0.840489  -0.030412  1.851293  -0.02  -0.783923  -0.03951  2.053753  -0.025  -0.806487  -0.035055  2.019159  -0.022  -1.308686  -0.059995  -0.573011  -0.766852  -0.043692  2.078037  -0.029
O  O97  1  0.26907733  0.26748588  0.41589462  1  -0.840366  -0.030375  1.850781  -0.02  -0.783241  -0.039487  2.054263  -0.025  -0.805733  -0.035028  2.019493  -0.022  -1.282138  -0.059794  -0.573333  -0.766201  -0.043709  2.078541  -0.029
O  O98  1  0.19504368  0.43600687  0.88037750  1  -0.846119  -0.031616  1.871723  -0.02  -0.786258  -0.039595  2.071712  -0.024  -0.810667  -0.035528  2.037642  -0.021  -1.282285  -0.060517  -0.579779  -0.767512  -0.043176  2.095427  -0.027
O  O99  1  0.51134880  0.06397340  0.61959745  1  -0.848385  -0.03161  1.86987  -0.02  -0.788985  -0.039607  2.068498  -0.024  -0.813395  -0.035546  2.034447  -0.021  -1.301306  -0.060419  -0.580319  -0.770247  -0.04316  2.092209  -0.027
O  O100  1  0.80494547  0.56399898  0.11962332  1  -0.846092  -0.031607  1.871694  -0.02  -0.786232  -0.039584  2.071631  -0.024  -0.810619  -0.035518  2.037523  -0.021  -1.282326  -0.060506  -0.579769  -0.767501  -0.043163  2.09538  -0.027
O  O101  1  0.48864182  0.93602291  0.38040170  1  -0.848363  -0.031608  1.869865  -0.02  -0.788935  -0.039607  2.068565  -0.024  -0.813341  -0.035547  2.034518  -0.021  -1.301497  -0.060427  -0.580383  -0.770197  -0.043157  2.092281  -0.027
