# generated using pymatgen
data_Mn3H10(C5O6)2
_symmetry_space_group_name_H-M   'P 1'
_cell_length_a   10.11661813
_cell_length_b   11.48387620
_cell_length_c   15.07213472
_cell_angle_alpha   91.68576578
_cell_angle_beta   90.00002635
_cell_angle_gamma   89.99970843
_symmetry_Int_Tables_number   1
_chemical_formula_structural   Mn3H10(C5O6)2
_chemical_formula_sum   'Mn12 H40 C40 O48'
_cell_volume   1750.29246466
_cell_formula_units_Z   4
loop_
 _symmetry_equiv_pos_site_id
 _symmetry_equiv_pos_as_xyz
  1  'x, y, z'
loop_
 _atom_site_type_symbol
 _atom_site_label
 _atom_site_symmetry_multiplicity
 _atom_site_fract_x
 _atom_site_fract_y
 _atom_site_fract_z
 _atom_site_occupancy
 _atom_site_pbe_bader_charge
 _atom_site_pbe_bader_spin_density
 _atom_site_pbe_cm5_charge
 _atom_site_pbe_ddec_charge
 _atom_site_pbe_ddec_spin_density
 _atom_site_pbe_ddec_sum_bond_order
 _atom_site_pbe_magmom
Mn  Mn0  1  0.91365229  0.74228233  0.86829869  1  1.517041  4.587334  0.603775  1.006196  4.68782  2.288322  4.515
Mn  Mn1  1  0.41365899  0.75772097  0.63169931  1  1.516998  4.587353  0.603822  1.006333  4.687838  2.288163  4.515
Mn  Mn2  1  0.08634041  0.25772542  0.13169834  1  1.516948  4.587351  0.6038  1.006207  4.687839  2.288266  4.515
Mn  Mn3  1  0.58634854  0.24227110  0.36830071  1  1.517034  4.587332  0.603809  1.006307  4.68779  2.288252  4.515
Mn  Mn4  1  0.99999228  0.00000474  0.00000157  1  1.539883  4.572531  0.601113  1.018519  4.701355  2.301178  4.507
Mn  Mn5  1  0.49999882  0.49999603  0.49999769  1  1.539919  4.572554  0.601103  1.018543  4.701377  2.301113  4.507
Mn  Mn6  1  0.09457707  0.76292141  0.68371439  1  1.526515  4.573381  0.605132  1.009382  4.684726  2.296154  4.504
Mn  Mn7  1  0.59457531  0.73707549  0.81628936  1  1.526469  4.5734  0.605141  1.009443  4.684752  2.296052  4.504
Mn  Mn8  1  0.90542848  0.23707328  0.31628635  1  1.526437  4.573398  0.605109  1.009362  4.684727  2.296234  4.504
Mn  Mn9  1  0.40542135  0.26291746  0.18371134  1  1.526437  4.573393  0.605091  1.009327  4.684759  2.296205  4.504
Mn  Mn10  1  0.00000646  0.50000352  0.00000854  1  1.539251  4.573303  0.600402  1.014544  4.702935  2.314585  4.506
Mn  Mn11  1  0.49999829  0.99999777  0.50000054  1  1.539292  4.573283  0.600386  1.014453  4.702927  2.314747  4.506
H  H12  1  0.00046671  0.03673130  0.72759211  1  0.121499  0.005998  0.123131  0.035668  0.003353  0.969897  0.002
H  H13  1  0.50046460  0.46327033  0.77240208  1  0.121571  0.005997  0.123154  0.035672  0.003352  0.969933  0.002
H  H14  1  0.99953093  0.96326773  0.27240341  1  0.121579  0.005999  0.123092  0.035605  0.003354  0.969874  0.002
H  H15  1  0.49953601  0.53672173  0.22758998  1  0.121476  0.005999  0.123116  0.035662  0.003353  0.969866  0.002
H  H16  1  0.60243507  0.95255268  0.95848316  1  0.089101  0.005806  0.118595  0.028771  0.003237  1.004027  0.002
H  H17  1  0.10243798  0.54745114  0.54151476  1  0.089149  0.005806  0.118621  0.028755  0.003237  1.004051  0.002
H  H18  1  0.39755763  0.04745679  0.04150727  1  0.089316  0.005806  0.118672  0.028818  0.003238  1.003969  0.002
H  H19  1  0.89756757  0.45254181  0.45848660  1  0.089139  0.005807  0.118604  0.028744  0.003238  1.004001  0.002
H  H20  1  0.73468270  0.61288210  0.63672252  1  0.137793  0.005108  0.123439  0.033997  0.002116  1.010331  0.002
H  H21  1  0.23467992  0.88712899  0.86328090  1  0.137977  0.005108  0.123431  0.034107  0.002116  1.010018  0.002
H  H22  1  0.26532384  0.38712045  0.36328501  1  0.137703  0.005109  0.123389  0.034046  0.002116  1.010148  0.002
H  H23  1  0.76532563  0.11288137  0.13671353  1  0.137821  0.005108  0.123381  0.034055  0.002117  1.010129  0.002
H  H24  1  0.69146182  0.50719043  0.00763482  1  0.138182  0.005999  0.126603  0.038941  0.003171  0.962978  0.002
H  H25  1  0.19146444  0.99281350  0.49236740  1  0.138187  0.005998  0.126571  0.038933  0.00317  0.963068  0.002
H  H26  1  0.30854275  0.49280862  0.99236601  1  0.138184  0.006  0.126597  0.038934  0.003171  0.963005  0.002
H  H27  1  0.80853715  0.00718730  0.50763545  1  0.138143  0.005999  0.126613  0.039024  0.00317  0.962992  0.002
H  H28  1  0.18361351  0.51037823  0.75517824  1  0.087661  0.006455  0.119201  0.029427  0.003327  0.973078  0.003
H  H29  1  0.68362012  0.98961477  0.74482080  1  0.087634  0.006456  0.119198  0.029464  0.003327  0.973094  0.003
H  H30  1  0.81638018  0.48962516  0.24482069  1  0.087586  0.006456  0.119166  0.029411  0.003327  0.973079  0.003
H  H31  1  0.31638049  0.01036946  0.25517640  1  0.087444  0.006457  0.119132  0.029349  0.003328  0.973099  0.003
H  H32  1  0.17357051  0.80934239  0.07182804  1  0.135649  0.004836  0.121789  0.035346  0.002539  1.015876  0.002
H  H33  1  0.67356415  0.69066334  0.42817090  1  0.135718  0.004836  0.121838  0.035403  0.002539  1.015876  0.002
H  H34  1  0.82643208  0.19067755  0.92816991  1  0.135812  0.004836  0.121846  0.035429  0.002539  1.015851  0.002
H  H35  1  0.32643942  0.30932961  0.57183047  1  0.135828  0.004836  0.121862  0.035412  0.002539  1.015863  0.002
H  H36  1  0.42259575  0.81034908  0.99758513  1  0.245876  0.000525  0.126994  0.204086  -0.000221  1.060939  0.0
H  H37  1  0.92259503  0.68966207  0.50242764  1  0.245858  0.000525  0.127036  0.204135  -0.000221  1.060754  0.0
H  H38  1  0.57739695  0.18966390  0.00241268  1  0.245917  0.000525  0.126982  0.204031  -0.000221  1.060991  0.0
H  H39  1  0.07742337  0.31033613  0.49757981  1  0.246023  0.000525  0.126962  0.204031  -0.000221  1.060934  0.0
H  H40  1  0.45492841  0.80970596  0.21923115  1  0.173423  0.00023  0.134357  0.210263  1.8e-05  1.00786  0.0
H  H41  1  0.95492196  0.69028114  0.28078009  1  0.173649  0.00023  0.134313  0.210237  1.8e-05  1.007981  0.0
H  H42  1  0.54507417  0.19029657  0.78076709  1  0.173388  0.00023  0.134354  0.210217  1.8e-05  1.007847  0.0
H  H43  1  0.04507470  0.30971008  0.71922456  1  0.173531  0.00023  0.134361  0.210308  1.8e-05  1.007919  0.0
H  H44  1  0.28104859  0.68419158  0.37276335  1  0.202193  0.000121  0.139234  0.2147  -0.000412  0.993384  0.0
H  H45  1  0.78102647  0.81580759  0.12723880  1  0.203308  0.000121  0.139194  0.214603  -0.000412  0.993268  0.0
H  H46  1  0.71895992  0.31579092  0.62724178  1  0.202389  0.000121  0.139202  0.214602  -0.000412  0.993311  0.0
H  H47  1  0.21895338  0.18422019  0.87275533  1  0.202429  0.000121  0.139192  0.214563  -0.000412  0.993402  0.0
H  H48  1  0.19889280  0.61580854  0.16214846  1  0.222953  0.000254  0.130298  0.205907  -0.000558  1.040609  0.0
H  H49  1  0.69889514  0.88418665  0.33785690  1  0.22279  0.000254  0.130278  0.205844  -0.000558  1.040559  0.0
H  H50  1  0.80111176  0.38418442  0.83785622  1  0.222811  0.000254  0.130318  0.205954  -0.000558  1.040514  0.0
H  H51  1  0.30110546  0.11582197  0.66214214  1  0.222799  0.000254  0.130317  0.205996  -0.000558  1.04046  0.0
C  C52  1  0.98915307  0.98641372  0.78857666  1  1.516356  0.025216  0.177681  0.519715  0.02339  4.156939  0.021
C  C53  1  0.48915432  0.51358402  0.71142125  1  1.516391  0.02521  0.17767  0.519734  0.023385  4.157237  0.021
C  C54  1  0.01084160  0.01358705  0.21141823  1  1.516472  0.025215  0.177682  0.519726  0.023391  4.157009  0.021
C  C55  1  0.51084727  0.48640544  0.28857739  1  1.516503  0.025214  0.177669  0.519705  0.023391  4.157003  0.021
C  C56  1  0.70720138  0.92629628  0.95321208  1  1.573127  0.022571  0.176515  0.51921  0.021192  4.142861  0.019
C  C57  1  0.20720513  0.57370707  0.54678586  1  1.573167  0.022563  0.176484  0.519231  0.021186  4.14291  0.019
C  C58  1  0.29278836  0.07371059  0.04678360  1  1.573142  0.022566  0.176379  0.51916  0.02119  4.142926  0.019
C  C59  1  0.79279548  0.42629024  0.45321427  1  1.573216  0.022563  0.176514  0.519282  0.021186  4.142696  0.019
C  C60  1  0.81290141  0.65735507  0.67587577  1  1.534832  0.023106  0.181836  0.528935  0.020778  4.111418  0.019
C  C61  1  0.31290380  0.84264869  0.82412752  1  1.534465  0.023108  0.18195  0.529039  0.020777  4.110939  0.019
C  C62  1  0.18710018  0.34263876  0.32412893  1  1.535063  0.023108  0.181978  0.52912  0.020781  4.11092  0.019
C  C63  1  0.68709681  0.15735905  0.17586885  1  1.534936  0.023104  0.18199  0.529069  0.020777  4.110721  0.019
C  C64  1  0.70963602  0.57401162  0.95775746  1  1.518002  0.021889  0.181389  0.528969  0.019606  4.12929  0.018
C  C65  1  0.20963970  0.92599520  0.54224122  1  1.517476  0.021891  0.181459  0.529001  0.019603  4.129563  0.018
C  C66  1  0.29036657  0.42598917  0.04224539  1  1.518062  0.021892  0.181456  0.529037  0.019608  4.129455  0.018
C  C67  1  0.79036091  0.07400210  0.45775958  1  1.51754  0.021891  0.181411  0.528897  0.019605  4.129533  0.018
C  C68  1  0.11662267  0.54263002  0.80865146  1  1.567855  0.019362  0.175231  0.523268  0.017828  4.156854  0.016
C  C69  1  0.61662251  0.95736503  0.69135027  1  1.568432  0.019359  0.175254  0.523171  0.017832  4.156627  0.016
C  C70  1  0.88337893  0.45737513  0.19135149  1  1.56797  0.01937  0.175244  0.523144  0.017836  4.156701  0.016
C  C71  1  0.38337909  0.04262094  0.30864963  1  1.568227  0.019365  0.175305  0.523227  0.017832  4.156638  0.016
C  C72  1  0.11073146  0.75608267  0.02679265  1  1.528023  0.025355  0.181427  0.52836  0.023385  4.103278  0.021
C  C73  1  0.61072780  0.74392161  0.47320624  1  1.527772  0.025357  0.181426  0.528373  0.023385  4.103388  0.021
C  C74  1  0.88927013  0.24393380  0.97320722  1  1.527305  0.025361  0.181452  0.52832  0.023386  4.103393  0.021
C  C75  1  0.38927775  0.25607221  0.52679315  1  1.527588  0.025364  0.181481  0.528519  0.02339  4.103229  0.021
C  C76  1  0.43337471  0.81011326  0.06871124  1  -0.553815  0.001236  -0.151065  -0.238008  0.000315  3.876119  0.0
C  C77  1  0.93337133  0.68988874  0.43130030  1  -0.554289  0.001236  -0.15119  -0.238082  0.000315  3.875673  0.0
C  C78  1  0.56661601  0.18989362  0.93128776  1  -0.553724  0.001236  -0.151147  -0.237972  0.000315  3.87627  0.0
C  C79  1  0.06664114  0.31010858  0.56870381  1  -0.554148  0.001236  -0.150955  -0.237781  0.000314  3.875732  0.0
C  C80  1  0.44455931  0.81082696  0.14863404  1  0.132634  0.001606  -0.136988  -0.204625  0.001171  3.874054  0.001
C  C81  1  0.94455785  0.68916889  0.35137539  1  0.132909  0.001606  -0.136858  -0.204606  0.001171  3.87385  0.001
C  C82  1  0.55544328  0.18917731  0.85136425  1  0.132514  0.001606  -0.136892  -0.204575  0.001171  3.874075  0.001
C  C83  1  0.05544869  0.31082756  0.64863135  1  0.132696  0.001606  -0.137059  -0.204851  0.001171  3.873902  0.001
C  C84  1  0.25429265  0.66219817  0.30568550  1  -0.564547  0.000765  -0.132846  -0.197715  -5.7e-05  3.838442  0.0
C  C85  1  0.75428330  0.83779852  0.19432124  1  -0.56544  0.000765  -0.132859  -0.197691  -5.7e-05  3.838689  0.0
C  C86  1  0.74570795  0.33778696  0.69432234  1  -0.56459  0.000765  -0.132686  -0.197495  -5.7e-05  3.838578  0.0
C  C87  1  0.24569852  0.16222665  0.80567416  1  -0.565141  0.000765  -0.132736  -0.197536  -5.7e-05  3.839044  0.0
C  C88  1  0.22595221  0.63552220  0.22987269  1  0.152022  0.000778  -0.139459  -0.212509  3.8e-05  3.828563  0.0
C  C89  1  0.72594868  0.86446764  0.27013124  1  0.151989  0.000777  -0.139397  -0.212386  3.8e-05  3.828875  0.0
C  C90  1  0.77404642  0.36446205  0.77013513  1  0.15205  0.000778  -0.139591  -0.212665  3.8e-05  3.828879  0.0
C  C91  1  0.27404303  0.13554447  0.72986787  1  0.152594  0.000778  -0.139541  -0.212627  3.8e-05  3.829197  0.0
O  O92  1  0.99147828  0.87455342  0.77873944  1  -1.214504  0.113158  -0.309479  -0.562031  0.082809  2.509523  0.052
O  O93  1  0.49148186  0.62544344  0.72125645  1  -1.214439  0.113151  -0.309485  -0.562032  0.082805  2.50951  0.052
O  O94  1  0.00852134  0.12544736  0.22125678  1  -1.214503  0.113153  -0.309449  -0.561956  0.082806  2.509449  0.052
O  O95  1  0.50851677  0.37454428  0.27874215  1  -1.214625  0.11314  -0.309385  -0.561968  0.082806  2.509714  0.052
O  O96  1  0.73457931  0.84890643  0.89224681  1  -1.231973  0.113407  -0.303298  -0.55687  0.08319  2.473831  0.052
O  O97  1  0.23458166  0.65109594  0.60775377  1  -1.231987  0.113394  -0.303314  -0.556884  0.083186  2.473752  0.052
O  O98  1  0.26541241  0.15109523  0.10775407  1  -1.231873  0.113375  -0.303275  -0.556812  0.083182  2.473789  0.052
O  O99  1  0.76541993  0.34889614  0.39224757  1  -1.232061  0.113402  -0.303374  -0.55694  0.08319  2.473652  0.052
O  O100  1  0.78706170  0.68425277  0.75711912  1  -1.227922  0.10679  -0.30057  -0.551363  0.077757  2.498663  0.05
O  O101  1  0.28705727  0.81574936  0.74288214  1  -1.227798  0.106781  -0.300681  -0.551571  0.077755  2.498455  0.05
O  O102  1  0.21294286  0.31574279  0.24288163  1  -1.227917  0.106783  -0.300688  -0.55159  0.077758  2.498402  0.05
O  O103  1  0.71294136  0.18425491  0.25711615  1  -1.227861  0.106789  -0.300739  -0.551643  0.077761  2.498401  0.05
O  O104  1  0.83111229  0.60481988  0.94710399  1  -1.216444  0.114457  -0.300437  -0.554564  0.084382  2.46018  0.052
O  O105  1  0.33111122  0.89518379  0.55289465  1  -1.215994  0.114439  -0.30047  -0.554589  0.084387  2.460475  0.052
O  O106  1  0.16888832  0.39518701  0.05289766  1  -1.21642  0.114446  -0.30049  -0.554581  0.084394  2.460392  0.052
O  O107  1  0.66889038  0.10481089  0.44710409  1  -1.216059  0.114465  -0.300491  -0.554585  0.08439  2.46048  0.052
O  O108  1  0.07531211  0.64789083  0.80191648  1  -1.233513  0.107496  -0.301658  -0.554173  0.078789  2.480681  0.05
O  O109  1  0.57530861  0.85210703  0.69808662  1  -1.233588  0.107495  -0.301645  -0.554139  0.078791  2.480682  0.05
O  O110  1  0.92469245  0.35211433  0.19808713  1  -1.23366  0.107507  -0.301619  -0.554063  0.078792  2.480607  0.05
O  O111  1  0.42469397  0.14788330  0.30191204  1  -1.233576  0.107501  -0.3016  -0.554067  0.078786  2.480522  0.05
O  O112  1  0.03168349  0.81159281  0.97597572  1  -1.23625  0.116767  -0.303161  -0.553367  0.085219  2.495927  0.05
O  O113  1  0.53168180  0.68841133  0.52402352  1  -1.236257  0.116778  -0.303192  -0.553465  0.085226  2.495948  0.05
O  O114  1  0.96831712  0.18841842  0.02402139  1  -1.236166  0.116787  -0.303164  -0.553344  0.085219  2.495943  0.05
O  O115  1  0.46832375  0.31158249  0.47597521  1  -1.236292  0.116785  -0.303199  -0.5535  0.085226  2.495918  0.05
O  O116  1  0.97533601  0.04059742  0.86126882  1  -1.19638  0.06964  -0.29343  -0.50791  0.048818  2.383912  0.034
O  O117  1  0.47534253  0.45940384  0.63872948  1  -1.19651  0.069636  -0.293401  -0.5079  0.048817  2.384081  0.034
O  O118  1  0.02465274  0.95940510  0.13872678  1  -1.19649  0.069641  -0.293379  -0.50784  0.04882  2.384101  0.034
O  O119  1  0.52465709  0.54059345  0.36126866  1  -1.1963  0.069643  -0.293468  -0.507971  0.048823  2.38385  0.034
O  O120  1  0.78900789  0.97292152  0.00565890  1  -1.205008  0.066101  -0.293078  -0.505848  0.046036  2.373012  0.031
O  O121  1  0.28900827  0.52708023  0.49434198  1  -1.205018  0.066091  -0.293067  -0.50583  0.046032  2.37304  0.031
O  O122  1  0.21097888  0.02708275  0.99434071  1  -1.20516  0.066089  -0.293062  -0.505884  0.046038  2.373169  0.031
O  O123  1  0.71099135  0.47292056  0.50565822  1  -1.205009  0.066088  -0.293035  -0.505813  0.046032  2.373003  0.031
O  O124  1  0.61191055  0.61248491  0.91648735  1  -1.192694  0.074416  -0.298144  -0.500976  0.05101  2.333348  0.035
O  O125  1  0.11191547  0.88751800  0.58351255  1  -1.192544  0.074408  -0.29816  -0.500972  0.051006  2.333216  0.035
O  O126  1  0.38809006  0.38751501  0.08351416  1  -1.192704  0.074425  -0.298152  -0.500995  0.05101  2.33341  0.035
O  O127  1  0.88808118  0.11247930  0.41648692  1  -1.192526  0.074398  -0.298119  -0.500945  0.051009  2.333277  0.035
O  O128  1  0.08777431  0.47465017  0.86927720  1  -1.192927  0.064395  -0.297588  -0.509261  0.044787  2.33797  0.031
O  O129  1  0.58777068  0.02534760  0.63072556  1  -1.193371  0.064404  -0.297621  -0.509236  0.044792  2.33779  0.031
O  O130  1  0.91223124  0.52535672  0.13072645  1  -1.192859  0.064411  -0.2976  -0.509179  0.044795  2.337916  0.031
O  O131  1  0.41222993  0.97463838  0.36927433  1  -1.193037  0.064398  -0.297669  -0.509232  0.044792  2.337883  0.031
O  O132  1  0.12168010  0.64734331  0.02812923  1  -1.191801  0.068831  -0.292366  -0.508698  0.047579  2.399619  0.031
O  O133  1  0.62167086  0.85265919  0.47187560  1  -1.191645  0.068827  -0.292365  -0.508657  0.047577  2.399795  0.031
O  O134  1  0.87833138  0.35267143  0.97187591  1  -1.19134  0.06881  -0.29242  -0.508715  0.047584  2.399739  0.031
O  O135  1  0.37832975  0.14733376  0.52812377  1  -1.191526  0.068823  -0.292424  -0.508794  0.047583  2.399797  0.031
O  O136  1  0.92060235  0.67743255  0.63690585  1  -1.202631  0.073701  -0.293863  -0.499834  0.050681  2.359269  0.034
O  O137  1  0.42059994  0.82256901  0.86310273  1  -1.202596  0.073698  -0.293867  -0.499905  0.050681  2.359319  0.034
O  O138  1  0.07939727  0.32256564  0.36310027  1  -1.202748  0.073701  -0.293811  -0.499864  0.050682  2.359281  0.034
O  O139  1  0.57939671  0.17743090  0.13689546  1  -1.202858  0.073702  -0.293784  -0.499801  0.05068  2.359108  0.034
