# generated using pymatgen
data_CdH11C13N9
_symmetry_space_group_name_H-M   'P 1'
_cell_length_a   8.07568718
_cell_length_b   9.98061745
_cell_length_c   10.15002574
_cell_angle_alpha   91.01771348
_cell_angle_beta   83.78288041
_cell_angle_gamma   87.65140727
_symmetry_Int_Tables_number   1
_chemical_formula_structural   CdH11C13N9
_chemical_formula_sum   'Cd2 H22 C26 N18'
_cell_volume   812.39793200
_cell_formula_units_Z   2
loop_
 _symmetry_equiv_pos_site_id
 _symmetry_equiv_pos_as_xyz
  1  'x, y, z'
loop_
 _atom_site_type_symbol
 _atom_site_label
 _atom_site_symmetry_multiplicity
 _atom_site_fract_x
 _atom_site_fract_y
 _atom_site_fract_z
 _atom_site_occupancy
 _atom_site_hle17_bader_spin_density
 _atom_site_hle17_ddec_charge
 _atom_site_hle17_ddec_spin_density
 _atom_site_hle17_ddec_sum_bond_order
 _atom_site_hle17_magmom
 _atom_site_hse06_10hf_bader_spin_density
 _atom_site_hse06_10hf_ddec_charge
 _atom_site_hse06_10hf_ddec_spin_density
 _atom_site_hse06_10hf_ddec_sum_bond_order
 _atom_site_hse06_10hf_magmom
 _atom_site_hse06_bader_spin_density
 _atom_site_hse06_ddec_charge
 _atom_site_hse06_ddec_spin_density
 _atom_site_hse06_ddec_sum_bond_order
 _atom_site_hse06_magmom
 _atom_site_pbe_bader_spin_density
 _atom_site_pbe_cm5_charge
 _atom_site_pbe_ddec_charge
 _atom_site_pbe_ddec_spin_density
 _atom_site_pbe_ddec_sum_bond_order
 _atom_site_pbe_magmom
Cd  Cd0  1  0.69852240  0.41063087  0.46071022  1  0  1.06206  0  1.919455  0  0  0.886345  0  2.397371  0  0  0.929611  0  2.357756  0  0  0.812679  0.855752  0  2.424564  0
Cd  Cd1  1  0.30148537  0.58936778  0.53928732  1  0  1.062108  0  1.919455  0  0  0.886392  0  2.397379  0  0  0.929658  0  2.357764  0  0  0.812658  0.855798  0  2.424575  0
H  H2  1  0.44816880  0.24362605  0.62673892  1  0  0.313731  0  0.879296  0  0  0.303915  0  0.934061  0  0  0.309676  0  0.929765  0  0  0.303952  0.299648  0  0.937376  0
H  H3  1  0.55183496  0.75637966  0.37325713  1  0  0.313649  0  0.879381  0  0  0.303816  0  0.934158  0  0  0.309576  0  0.929868  0  0  0.303934  0.299553  0  0.937472  0
H  H4  1  0.47446417  0.21558790  0.46402704  1  0  0.303297  0  0.913674  0  0  0.289292  0  0.976923  0  0  0.293639  0  0.975957  0  0  0.296192  0.28603  0  0.977889  0
H  H5  1  0.52553726  0.78441487  0.53597123  1  0  0.303273  0  0.913701  0  0  0.289292  0  0.97692  0  0  0.293639  0  0.975953  0  0  0.296221  0.286034  0  0.977885  0
H  H6  1  0.82016684  0.93067458  0.20851419  1  0  0.312667  0  0.85605  0  0  0.304528  0  0.902201  0  0  0.310678  0  0.89826  0  0  0.337864  0.299617  0  0.905786  0
H  H7  1  0.17983485  0.06932322  0.79148699  1  0  0.312619  0  0.856002  0  0  0.304489  0  0.902148  0  0  0.310638  0  0.898208  0  0  0.337852  0.299577  0  0.90573  0
H  H8  1  0.52935063  0.07920769  0.76951557  1  0  0.102122  0  0.938475  0  0  0.117014  0  0.989607  0  0  0.120311  0  0.988586  0  0  0.104778  0.114849  0  0.990237  0
H  H9  1  0.47064311  0.92080020  0.23048161  1  0  0.102096  0  0.938492  0  0  0.116986  0  0.989635  0  0  0.120285  0  0.988611  0  0  0.104769  0.114827  0  0.990258  0
H  H10  1  0.92723524  0.88369518  0.40385357  1  0  0.088673  0  0.969439  0  0  0.097337  0  1.037187  0  0  0.099924  0  1.036031  0  0  0.10094  0.095584  0  1.03738  0
H  H11  1  0.07275927  0.11630082  0.59615433  1  0  0.088733  0  0.969321  0  0  0.097351  0  1.037115  0  0  0.099936  0  1.035962  0  0  0.100943  0.095597  0  1.037311  0
H  H12  1  0.85647078  0.99872110  0.92861765  1  0  0.102176  0  0.973639  0  0  0.112328  0  1.034746  0  0  0.114903  0  1.034111  0  0  0.099183  0.110792  0  1.034799  0
H  H13  1  0.14352836  0.00127572  0.07138184  1  0  0.102152  0  0.973729  0  0  0.112302  0  1.034832  0  0  0.114879  0  1.034194  0  0  0.099165  0.110764  0  1.034881  0
H  H14  1  0.89079926  0.76928974  0.61780997  1  0  0.099691  0  0.954483  0  0  0.106661  0  1.019566  0  0  0.109118  0  1.019872  0  0  0.100507  0.104981  0  1.019635  0
H  H15  1  0.10918888  0.23071138  0.38219866  1  0  0.099722  0  0.954409  0  0  0.106705  0  1.019488  0  0  0.109163  0  1.01979  0  0  0.100542  0.105017  0  1.019557  0
H  H16  1  0.68993699  0.86619044  0.80133077  1  0  0.096717  0  0.957547  0  0  0.106104  0  1.018794  0  0  0.109308  0  1.015911  0  0  0.102782  0.103891  0  1.020236  0
H  H17  1  0.31005075  0.13381662  0.19867201  1  0  0.096667  0  0.957691  0  0  0.10609  0  1.018893  0  0  0.109291  0  1.016017  0  0  0.102785  0.103871  0  1.020333  0
H  H18  1  0.77219258  0.46330721  0.13643379  1  0  0.113338  0  0.950467  0  0  0.122838  0  1.011037  0  0  0.125877  0  1.009463  0  0  0.105002  0.120423  0  1.012379  0
H  H19  1  0.22782025  0.53668834  0.86356318  1  0  0.113404  0  0.950436  0  0  0.122856  0  1.011059  0  0  0.125892  0  1.009488  0  0  0.105017  0.120443  0  1.012405  0
H  H20  1  0.82319475  0.43009227  0.89143770  1  0  0.095678  0  0.976978  0  0  0.1027  0  1.041995  0  0  0.105042  0  1.041629  0  0  0.096252  0.100761  0  1.042894  0
H  H21  1  0.17681681  0.56990431  0.10855941  1  0  0.095701  0  0.976969  0  0  0.102734  0  1.041968  0  0  0.105078  0  1.0416  0  0  0.096244  0.100796  0  1.042867  0
H  H22  1  0.85927077  0.20342793  0.78907006  1  0  0.082901  0  0.99025  0  0  0.08885  0  1.062664  0  0  0.091118  0  1.062534  0  0  0.089106  0.087608  0  1.061683  0
H  H23  1  0.14073214  0.79656781  0.21092900  1  0  0.082867  0  0.990224  0  0  0.08883  0  1.062643  0  0  0.091098  0  1.062516  0  0  0.089102  0.087588  0  1.061661  0
C  C24  1  0.78744839  0.24894108  0.16989360  1  0  0.151066  0  3.821095  0  0  0.149758  0  4.063171  0  0  0.152464  0  4.088059  0  0  0.086196  0.147752  0  4.046666  0
C  C25  1  0.21253923  0.75105988  0.83010227  1  0  0.151126  0  3.821246  0  0  0.149789  0  4.063327  0  0  0.152502  0  4.088206  0  0  0.086209  0.147785  0  4.046829  0
C  C26  1  0.62933329  0.09906068  0.56598051  1  0  0.283417  0  3.779908  0  0  0.272897  0  4.029032  0  0  0.282625  0  4.049477  0  0  0.097646  0.264429  0  4.016467  0
C  C27  1  0.37067435  0.90094601  0.43401904  1  0  0.283477  0  3.780004  0  0  0.272887  0  4.029193  0  0  0.282616  0  4.049639  0  0  0.097693  0.264417  0  4.016632  0
C  C28  1  0.76631983  0.10535904  0.33160411  1  0  0.379055  0  3.746206  0  0  0.340515  0  4.022228  0  0  0.359656  0  4.034251  0  0  0.228394  0.327445  0  4.014033  0
C  C29  1  0.23368302  0.89463871  0.66839497  1  0  0.379183  0  3.746044  0  0  0.340592  0  4.022125  0  0  0.359733  0  4.034144  0  0  0.228477  0.327526  0  4.013936  0
C  C30  1  0.61559974  0.03560804  0.68847242  1  0  -0.178532  0  3.735322  0  0  -0.196221  0  3.991003  0  0  -0.202397  0  4.010733  0  0  -0.101728  -0.192051  0  3.977067  0
C  C31  1  0.38439541  0.96439685  0.31152656  1  0  -0.178494  0  3.735367  0  0  -0.196177  0  3.991102  0  0  -0.202355  0  4.010831  0  0  -0.101765  -0.192015  0  3.977165  0
C  C32  1  0.83523356  0.92454128  0.48231853  1  0  -0.08293  0  3.776454  0  0  -0.109438  0  4.035507  0  0  -0.10753  0  4.055082  0  0  -0.092065  -0.108027  0  4.0203  0
C  C33  1  0.16476193  0.07545866  0.51768532  1  0  -0.083028  0  3.776426  0  0  -0.109518  0  4.035464  0  0  -0.107608  0  4.055039  0  0  -0.092093  -0.108105  0  4.020248  0
C  C34  1  0.74303696  0.04317503  0.46094965  1  0  -0.133236  0  3.775093  0  0  -0.11376  0  4.012168  0  0  -0.121931  0  4.03516  0  0  -0.020593  -0.109012  0  3.99741  0
C  C35  1  0.25696473  0.95682277  0.53905153  1  0  -0.133279  0  3.77526  0  0  -0.11371  0  4.012274  0  0  -0.121884  0  4.035271  0  0  -0.020596  -0.108969  0  3.997522  0
C  C36  1  0.81486638  0.11921197  0.11070634  1  0  0.158103  0  3.80833  0  0  0.152522  0  4.051149  0  0  0.156084  0  4.073905  0  0  0.090377  0.148598  0  4.038224  0
C  C37  1  0.18512021  0.88078705  0.88929358  1  0  0.157999  0  3.808325  0  0  0.152493  0  4.051063  0  0  0.156051  0  4.07382  0  0  0.090353  0.148566  0  4.038139  0
C  C38  1  0.84087208  0.09885840  0.97354470  1  0  -0.181171  0  3.805283  0  0  -0.198924  0  4.057881  0  0  -0.202675  0  4.079455  0  0  -0.109292  -0.197293  0  4.04469  0
C  C39  1  0.15912078  0.90114053  0.02645550  1  0  -0.181059  0  3.805315  0  0  -0.198831  0  4.057889  0  0  -0.202582  0  4.079462  0  0  -0.109275  -0.197199  0  4.044694  0
C  C40  1  0.81750388  0.86085405  0.60357308  1  0  -0.09452  0  3.777738  0  0  -0.113857  0  4.042235  0  0  -0.118512  0  4.063841  0  0  -0.106998  -0.112143  0  4.027301  0
C  C41  1  0.18248794  0.13914800  0.39643415  1  0  -0.094464  0  3.777606  0  0  -0.113799  0  4.042084  0  0  -0.118451  0  4.063686  0  0  -0.106987  -0.112075  0  4.027132  0
C  C42  1  0.70697181  0.91730572  0.70714809  1  0  -0.044836  0  3.768638  0  0  -0.061764  0  4.023972  0  0  -0.058754  0  4.041676  0  0  -0.089947  -0.061248  0  4.009736  0
C  C43  1  0.29301723  0.08269932  0.29285454  1  0  -0.044917  0  3.768743  0  0  -0.061873  0  4.024114  0  0  -0.05887  0  4.041831  0  0  -0.089981  -0.06135  0  4.009854  0
C  C44  1  0.79181102  0.36312543  0.09164205  1  0  -0.127329  0  3.72447  0  0  -0.145352  0  3.968444  0  0  -0.148447  0  3.989944  0  0  -0.087405  -0.14209  0  3.953442  0
C  C45  1  0.20818925  0.63687133  0.90835436  1  0  -0.127304  0  3.724411  0  0  -0.145269  0  3.968398  0  0  -0.148366  0  3.989897  0  0  -0.087398  -0.142014  0  3.953401  0
C  C46  1  0.82152139  0.34321031  0.95498224  1  0  -0.064563  0  3.763937  0  0  -0.078964  0  4.012267  0  0  -0.082118  0  4.036485  0  0  -0.096002  -0.077234  0  3.996023  0
C  C47  1  0.17848760  0.65678326  0.04501120  1  0  -0.064652  0  3.764025  0  0  -0.07907  0  4.012349  0  0  -0.082224  0  4.036565  0  0  -0.096012  -0.077338  0  3.996108  0
C  C48  1  0.84380846  0.21343022  0.89692365  1  0  -0.081169  0  3.800684  0  0  -0.098414  0  4.058597  0  0  -0.10081  0  4.082464  0  0  -0.105929  -0.095727  0  4.04156  0
C  C49  1  0.15618811  0.78656358  0.10307218  1  0  -0.081187  0  3.800496  0  0  -0.098451  0  4.058414  0  0  -0.100848  0  4.082278  0  0  -0.105942  -0.095766  0  4.041374  0
N  N50  1  0.96219507  0.61811644  0.38174193  1  0  0.410407  0  4.26715  0  0  0.444569  0  4.545137  0  0  0.46067  0  4.575478  0  0  0.082566  0.433745  0  4.524421  0
N  N51  1  0.03780415  0.38188040  0.61825953  1  0  0.410455  0  4.267138  0  0  0.444616  0  4.545131  0  0  0.460717  0  4.575469  0  0  0.082544  0.433792  0  4.524416  0
N  N52  1  0.53333700  0.21643903  0.54824185  1  0  -0.664482  0  3.174788  0  0  -0.616655  0  3.409542  0  0  -0.635912  0  3.410697  0  0  -0.599218  -0.602469  0  3.40909  0
N  N53  1  0.46666681  0.78356467  0.45175419  1  0  -0.66447  0  3.174973  0  0  -0.61659  0  3.409651  0  0  -0.635844  0  3.410802  0  0  -0.599257  -0.602407  0  3.409206  0
N  N54  1  0.38929200  0.41932755  0.27163112  1  0  0.408579  0  4.233876  0  0  0.440404  0  4.516878  0  0  0.456191  0  4.547029  0  0  0.082442  0.429646  0  4.496283  0
N  N55  1  0.61071994  0.58067623  0.72837977  1  0  0.408565  0  4.233985  0  0  0.440381  0  4.516986  0  0  0.456166  0  4.547128  0  0  0.082406  0.429623  0  4.496399  0
N  N56  1  0.82905402  0.58930117  0.35321808  1  0  -0.532148  0  2.573046  0  0  -0.513348  0  2.848528  0  0  -0.528985  0  2.854243  0  0  -0.282698  -0.502517  0  2.84489  0
N  N57  1  0.17095631  0.41069645  0.64678016  1  0  -0.532326  0  2.572735  0  0  -0.51352  0  2.848222  0  0  -0.52916  0  2.853935  0  0  -0.282799  -0.502687  0  2.844588  0
N  N58  1  0.75617452  0.23634195  0.30637316  1  0  -0.476622  0  3.142108  0  0  -0.410236  0  3.414912  0  0  -0.431544  0  3.429043  0  0  -0.349367  -0.395475  0  3.404811  0
N  N59  1  0.24382341  0.76365490  0.69362746  1  0  -0.476659  0  3.142254  0  0  -0.410304  0  3.415156  0  0  -0.431614  0  3.429284  0  0  -0.349374  -0.395538  0  3.405044  0
N  N60  1  0.80312353  0.03191516  0.21553292  1  0  -0.385082  0  3.36489  0  0  -0.331869  0  3.601049  0  0  -0.348691  0  3.611928  0  0  -0.378704  -0.321229  0  3.594942  0
N  N61  1  0.19687181  0.96808271  0.78446602  1  0  -0.385123  0  3.364793  0  0  -0.331923  0  3.600965  0  0  -0.348744  0  3.611844  0  0  -0.378769  -0.32128  0  3.594857  0
N  N62  1  0.44374243  0.46031624  0.37041300  1  0  -0.648835  0  2.791172  0  0  -0.600448  0  3.101358  0  0  -0.628382  0  3.109458  0  0  -0.349056  -0.581061  0  3.096053  0
N  N63  1  0.55626393  0.53968541  0.62958274  1  0  -0.649006  0  2.79062  0  0  -0.600605  0  3.100803  0  0  -0.628558  0  3.108915  0  0  -0.349095  -0.581206  0  3.095496  0
N  N64  1  0.09323342  0.65402939  0.40613777  1  0  -0.497559  0  2.613139  0  0  -0.472934  0  2.886721  0  0  -0.488892  0  2.894261  0  0  -0.259099  -0.461524  0  2.880843  0
N  N65  1  0.90677324  0.34597337  0.59386582  1  0  -0.497445  0  2.613426  0  0  -0.472837  0  2.887031  0  0  -0.488787  0  2.894565  0  0  -0.259006  -0.461432  0  2.881155  0
N  N66  1  0.33760854  0.37909786  0.17642195  1  0  -0.370637  0  2.367176  0  0  -0.376379  0  2.580586  0  0  -0.381296  0  2.589376  0  0  -0.188749  -0.372438  0  2.574452  0
N  N67  1  0.66239675  0.62089578  0.82357289  1  0  -0.370413  0  2.367875  0  0  -0.376138  0  2.581278  0  0  -0.381039  0  2.590057  0  0  -0.188572  -0.372204  0  2.575151  0
