# generated using pymatgen
data_SmH8(CO)9
_symmetry_space_group_name_H-M   'P 1'
_cell_length_a   7.75360823
_cell_length_b   8.46801473
_cell_length_c   9.68717358
_cell_angle_alpha   68.33878106
_cell_angle_beta   76.36600980
_cell_angle_gamma   76.27941522
_symmetry_Int_Tables_number   1
_chemical_formula_structural   SmH8(CO)9
_chemical_formula_sum   'Sm2 H16 C18 O18'
_cell_volume   566.46796939
_cell_formula_units_Z   2
loop_
 _symmetry_equiv_pos_site_id
 _symmetry_equiv_pos_as_xyz
  1  'x, y, z'
loop_
 _atom_site_type_symbol
 _atom_site_label
 _atom_site_symmetry_multiplicity
 _atom_site_fract_x
 _atom_site_fract_y
 _atom_site_fract_z
 _atom_site_occupancy
 _atom_site_hle17_bader_spin_density
 _atom_site_hle17_ddec_charge
 _atom_site_hle17_ddec_spin_density
 _atom_site_hle17_ddec_sum_bond_order
 _atom_site_hle17_magmom
 _atom_site_hse06_10hf_bader_spin_density
 _atom_site_hse06_10hf_ddec_charge
 _atom_site_hse06_10hf_ddec_spin_density
 _atom_site_hse06_10hf_ddec_sum_bond_order
 _atom_site_hse06_10hf_magmom
 _atom_site_hse06_bader_spin_density
 _atom_site_hse06_ddec_charge
 _atom_site_hse06_ddec_spin_density
 _atom_site_hse06_ddec_sum_bond_order
 _atom_site_hse06_magmom
 _atom_site_pbe_bader_spin_density
 _atom_site_pbe_cm5_charge
 _atom_site_pbe_ddec_charge
 _atom_site_pbe_ddec_spin_density
 _atom_site_pbe_ddec_sum_bond_order
 _atom_site_pbe_magmom
Sm  Sm0  1  0.25295953  0.27478619  0.45363222  1  0  2.326073  0  1.607737  0  0  2.233463  0  1.960049  0  0  2.275882  0  1.91696  0  0  1.493172  2.137416  0  2.111911  0
Sm  Sm1  1  0.74704191  0.72520879  0.54636307  1  0  2.326075  0  1.607772  0  0  2.233464  0  1.960089  0  0  2.275882  0  1.916999  0  0  1.493172  2.137442  0  2.111909  0
H  H2  1  0.01857122  0.31308953  0.23188015  1  0  0.426572  0  0.873061  0  0  0.394827  0  0.937528  0  0  0.405445  0  0.921868  0  0  0.305751  0.387596  0  0.947878  0
H  H3  1  0.98142021  0.68691054  0.76812076  1  0  0.426713  0  0.872866  0  0  0.394941  0  0.937373  0  0  0.405561  0  0.921709  0  0  0.305813  0.38771  0  0.947724  0
H  H4  1  0.89126367  0.38620093  0.36021398  1  0  0.437587  0  0.862525  0  0  0.404917  0  0.928804  0  0  0.416906  0  0.911206  0  0  0.303067  0.396378  0  0.941093  0
H  H5  1  0.10872890  0.61380042  0.63978732  1  0  0.437624  0  0.862483  0  0  0.404922  0  0.928787  0  0  0.416911  0  0.91119  0  0  0.30311  0.396388  0  0.941067  0
H  H6  1  0.84265436  0.59436070  0.02424226  1  0  0.406817  0  0.792492  0  0  0.392782  0  0.840817  0  0  0.400507  0  0.83274  0  0  0.350887  0.387249  0  0.846828  0
H  H7  1  0.15735421  0.40563414  0.97576605  1  0  0.406816  0  0.792564  0  0  0.392766  0  0.840898  0  0  0.400489  0  0.832822  0  0  0.350908  0.387235  0  0.846905  0
H  H8  1  0.68605645  0.74106058  0.19251986  1  0  0.121775  0  0.970657  0  0  0.127739  0  1.038515  0  0  0.131917  0  1.035353  0  0  0.11219  0.124832  0  1.040461  0
H  H9  1  0.31394573  0.25893947  0.80748295  1  0  0.121771  0  0.970648  0  0  0.127754  0  1.038499  0  0  0.131935  0  1.035332  0  0  0.112194  0.124846  0  1.040445  0
H  H10  1  0.99136968  0.97545221  0.75888072  1  0  0.124928  0  0.959688  0  0  0.134758  0  1.022718  0  0  0.138334  0  1.020095  0  0  0.119205  0.132253  0  1.024378  0
H  H11  1  0.00864658  0.02454395  0.24112453  1  0  0.124986  0  0.959611  0  0  0.134759  0  1.022707  0  0  0.138332  0  1.020087  0  0  0.119215  0.132254  0  1.024364  0
H  H12  1  0.63546023  0.29428281  0.00177494  1  0  0.122353  0  0.926093  0  0  0.130523  0  0.987634  0  0  0.135555  0  0.982844  0  0  0.112969  0.126667  0  0.991704  0
H  H13  1  0.36453995  0.70571216  0.99822268  1  0  0.122403  0  0.926052  0  0  0.130573  0  0.987589  0  0  0.135606  0  0.9828  0  0  0.11298  0.126717  0  0.991659  0
H  H14  1  0.32709628  0.91527421  0.48587884  1  0  0.428079  0  0.878351  0  0  0.39639  0  0.944234  0  0  0.407528  0  0.927885  0  0  0.299122  0.388924  0  0.954756  0
H  H15  1  0.67289722  0.08472198  0.51412495  1  0  0.428113  0  0.8783  0  0  0.396482  0  0.944131  0  0  0.407625  0  0.92777  0  0  0.299152  0.389016  0  0.954652  0
H  H16  1  0.12706971  0.88962902  0.57048271  1  0  0.453356  0  0.834749  0  0  0.428509  0  0.887028  0  0  0.438646  0  0.872218  0  0  0.303472  0.420713  0  0.898398  0
H  H17  1  0.87292311  0.11037103  0.42951998  1  0  0.453211  0  0.834948  0  0  0.428429  0  0.88713  0  0  0.438562  0  0.872322  0  0  0.303474  0.420633  0  0.898499  0
C  C18  1  0.52983484  0.03202711  0.25405303  1  0  0.718376  0  3.842122  0  0  0.670594  0  4.134673  0  0  0.705914  0  4.123386  0  0  0.239231  0.646445  0  4.136765  0
C  C19  1  0.47016512  0.96797686  0.74594279  1  0  0.718426  0  3.841737  0  0  0.670618  0  4.134358  0  0  0.705935  0  4.123071  0  0  0.239269  0.64647  0  4.136451  0
C  C20  1  0.64948399  0.01918528  0.11171556  1  0  -0.051709  0  3.764796  0  0  -0.025733  0  4.002023  0  0  -0.034379  0  4.02641  0  0  -0.011189  -0.020592  0  3.98652  0
C  C21  1  0.35051999  0.98081869  0.88828046  1  0  -0.051612  0  3.764607  0  0  -0.025635  0  4.001865  0  0  -0.03428  0  4.026249  0  0  -0.011166  -0.020497  0  3.986366  0
C  C22  1  0.72140408  0.85551525  0.10006122  1  0  -0.184499  0  3.705472  0  0  -0.221905  0  3.963748  0  0  -0.223419  0  3.982282  0  0  -0.087206  -0.220451  0  3.951244  0
C  C23  1  0.27859854  0.14448873  0.89993405  1  0  -0.184424  0  3.705407  0  0  -0.221868  0  3.963688  0  0  -0.22338  0  3.982217  0  0  -0.087152  -0.22042  0  3.951185  0
C  C24  1  0.84059383  0.84065392  0.97184692  1  0  0.321189  0  3.800416  0  0  0.313913  0  4.070323  0  0  0.321065  0  4.087741  0  0  0.081739  0.308458  0  4.059348  0
C  C25  1  0.15941430  0.15934228  0.02815484  1  0  0.321019  0  3.800671  0  0  0.31377  0  4.070537  0  0  0.320918  0  4.08796  0  0  0.081663  0.308324  0  4.05955  0
C  C26  1  0.89336513  0.98628258  0.85707247  1  0  -0.150882  0  3.660552  0  0  -0.186815  0  3.909121  0  0  -0.187904  0  3.928863  0  0  -0.080736  -0.18615  0  3.8968  0
C  C27  1  0.10664252  0.01371621  0.14292754  1  0  -0.150851  0  3.660501  0  0  -0.186756  0  3.909076  0  0  -0.187845  0  3.928821  0  0  -0.080713  -0.186092  0  3.896749  0
C  C28  1  0.81886822  0.14972916  0.86762592  1  0  -0.059238  0  3.753213  0  0  -0.031325  0  3.984272  0  0  -0.040205  0  4.008707  0  0  -0.013842  -0.026307  0  3.969901  0
C  C29  1  0.18113589  0.85026705  0.13237565  1  0  -0.059206  0  3.753168  0  0  -0.031293  0  3.98422  0  0  -0.040167  0  4.008658  0  0  -0.013853  -0.026278  0  3.969847  0
C  C30  1  0.69404630  0.16708551  0.99387419  1  0  -0.072258  0  3.679932  0  0  -0.115446  0  3.934095  0  0  -0.113417  0  3.952437  0  0  -0.078145  -0.116937  0  3.923301  0
C  C31  1  0.30595661  0.83291716  0.00612351  1  0  -0.072386  0  3.679855  0  0  -0.115577  0  3.934039  0  0  -0.113552  0  3.952383  0  0  -0.078169  -0.117067  0  3.923243  0
C  C32  1  0.87385818  0.30488391  0.74038409  1  0  0.730707  0  3.848439  0  0  0.684289  0  4.140838  0  0  0.719791  0  4.129  0  0  0.236169  0.659762  0  4.144492  0
C  C33  1  0.12614105  0.69511744  0.25961685  1  0  0.730671  0  3.848598  0  0  0.684261  0  4.140991  0  0  0.719753  0  4.129171  0  0  0.236158  0.65974  0  4.144631  0
C  C34  1  0.42421784  0.52787442  0.55868115  1  0  0.566541  0  3.896755  0  0  0.524169  0  4.193831  0  0  0.553682  0  4.184598  0  0  0.221653  0.504186  0  4.194457  0
C  C35  1  0.57578276  0.47212326  0.44130209  1  0  0.566748  0  3.8968  0  0  0.524363  0  4.193894  0  0  0.553877  0  4.184661  0  0  0.221769  0.504357  0  4.194543  0
O  O36  1  0.42458287  0.17171855  0.25277901  1  0  -0.697196  0  1.978466  0  0  -0.656321  0  2.224759  0  0  -0.679224  0  2.211725  0  0  -0.382328  -0.631854  0  2.235888  0
O  O37  1  0.57541414  0.82827901  0.74721637  1  0  -0.697221  0  1.978301  0  0  -0.656319  0  2.224584  0  0  -0.679219  0  2.211549  0  0  -0.382362  -0.631857  0  2.235713  0
O  O38  1  0.20926400  0.97566630  0.52311725  1  0  -0.935107  0  1.852229  0  0  -0.893902  0  2.043643  0  0  -0.91151  0  2.010293  0  0  -0.651994  -0.873281  0  2.071345  0
O  O39  1  0.79073050  0.02433121  0.47688281  1  0  -0.935041  0  1.852349  0  0  -0.893964  0  2.043566  0  0  -0.911563  0  2.010226  0  0  -0.65205  -0.873347  0  2.071263  0
O  O40  1  0.54068968  0.89765673  0.37291503  1  0  -0.786254  0  2.091623  0  0  -0.732514  0  2.339757  0  0  -0.758741  0  2.327654  0  0  -0.393752  -0.704391  0  2.347281  0
O  O41  1  0.45931188  0.10234595  0.62708191  1  0  -0.786294  0  2.091445  0  0  -0.73255  0  2.339594  0  0  -0.758795  0  2.327517  0  0  -0.393756  -0.70442  0  2.347111  0
O  O42  1  0.98760873  0.28936863  0.34202931  1  0  -0.902992  0  1.931858  0  0  -0.85406  0  2.120519  0  0  -0.873935  0  2.086909  0  0  -0.616931  -0.832285  0  2.146819  0
O  O43  1  0.01238326  0.71062883  0.65797542  1  0  -0.9032  0  1.931694  0  0  -0.854162  0  2.120435  0  0  -0.874054  0  2.086851  0  0  -0.617026  -0.832388  0  2.146726  0
O  O44  1  0.91461063  0.68108674  0.95558214  1  0  -0.529996  0  2.121554  0  0  -0.473949  0  2.32379  0  0  -0.490496  0  2.313179  0  0  -0.338811  -0.462377  0  2.331118  0
O  O45  1  0.08539328  0.31891197  0.04442591  1  0  -0.529944  0  2.121667  0  0  -0.473857  0  2.323861  0  0  -0.490407  0  2.31326  0  0  -0.338808  -0.462289  0  2.331188  0
O  O46  1  0.00087904  0.27983190  0.63613681  1  0  -0.76626  0  2.061904  0  0  -0.725697  0  2.335607  0  0  -0.749647  0  2.320459  0  0  -0.422891  -0.697514  0  2.346068  0
O  O47  1  0.99912224  0.72017330  0.36386454  1  0  -0.766241  0  2.061912  0  0  -0.725677  0  2.335599  0  0  -0.749624  0  2.320461  0  0  -0.422909  -0.697501  0  2.346053  0
O  O48  1  0.78992223  0.45265782  0.74176883  1  0  -0.734659  0  2.009515  0  0  -0.694074  0  2.258827  0  0  -0.717549  0  2.24514  0  0  -0.396041  -0.668957  0  2.270138  0
O  O49  1  0.21006220  0.54734357  0.25822899  1  0  -0.73466  0  2.009672  0  0  -0.694072  0  2.258974  0  0  -0.717546  0  2.245294  0  0  -0.396017  -0.668953  0  2.270281  0
O  O50  1  0.27411715  0.47793038  0.57888673  1  0  -0.688431  0  2.127681  0  0  -0.639475  0  2.367476  0  0  -0.663883  0  2.356923  0  0  -0.351777  -0.615237  0  2.374914  0
O  O51  1  0.72588612  0.52207218  0.42112125  1  0  -0.688532  0  2.127614  0  0  -0.639576  0  2.367391  0  0  -0.663989  0  2.356839  0  0  -0.351808  -0.61533  0  2.374843  0
O  O52  1  0.45663854  0.61693486  0.62520909  1  0  -0.624935  0  2.043332  0  0  -0.58575  0  2.277144  0  0  -0.606938  0  2.267635  0  0  -0.353059  -0.564647  0  2.285394  0
O  O53  1  0.54334499  0.38307169  0.37478727  1  0  -0.624902  0  2.043556  0  0  -0.585703  0  2.277377  0  0  -0.606889  0  2.267872  0  0  -0.353012  -0.564592  0  2.285636  0
