# generated using pymatgen
data_Zn8H59C72N7O31
_symmetry_space_group_name_H-M   'P 1'
_cell_length_a   18.23428679
_cell_length_b   18.25763679
_cell_length_c   18.19212974
_cell_angle_alpha   120.08061053
_cell_angle_beta   89.97089945
_cell_angle_gamma   120.36724189
_symmetry_Int_Tables_number   1
_chemical_formula_structural   Zn8H59C72N7O31
_chemical_formula_sum   'Zn8 H59 C72 N7 O31'
_cell_volume   4254.47241558
_cell_formula_units_Z   1
loop_
 _symmetry_equiv_pos_site_id
 _symmetry_equiv_pos_as_xyz
  1  'x, y, z'
loop_
 _atom_site_type_symbol
 _atom_site_label
 _atom_site_symmetry_multiplicity
 _atom_site_fract_x
 _atom_site_fract_y
 _atom_site_fract_z
 _atom_site_occupancy
 _atom_site_pbe_bader_charge
 _atom_site_pbe_bader_spin_density
 _atom_site_pbe_cm5_charge
 _atom_site_pbe_ddec_charge
 _atom_site_pbe_ddec_spin_density
 _atom_site_pbe_ddec_sum_bond_order
 _atom_site_pbe_magmom
Zn  Zn0  1  0.95354677  0.41329231  0.86775680  1  1.301528  0  0.672635  0.957294  0  2.379561  0
Zn  Zn1  1  0.13030698  0.58624970  0.04274486  1  1.309644  0  0.680726  0.961144  0  2.385801  0
Zn  Zn2  1  0.95261319  0.40845743  0.04346159  1  1.308488  0  0.675223  0.971638  0  2.332254  0
Zn  Zn3  1  0.95907581  0.59003042  0.04635886  1  1.301599  0  0.666415  0.946673  0  2.412969  0
Zn  Zn4  1  0.54285173  0.58534166  0.63481746  1  1.313025  0  0.680991  0.976022  0  2.322778  0
Zn  Zn5  1  0.54000495  0.58351057  0.45317477  1  1.311452  0  0.680283  0.968115  0  2.359718  0
Zn  Zn6  1  0.36626144  0.41113973  0.45565585  1  1.307297  0  0.675591  0.966926  0  2.374342  0
Zn  Zn7  1  0.54561352  0.41710052  0.46022040  1  1.308625  0  0.675945  0.954395  0  2.416631  0
H  H8  1  0.60670414  0.44972153  0.77899650  1  0.061538  0  0.103654  0.091911  0  0.985699  0
H  H9  1  0.65872457  0.56863906  0.25739264  1  0.033773  0  0.098499  0.102451  0  0.973993  0
H  H10  1  0.68915049  0.35011248  0.08962508  1  0.031322  0  0.100748  0.104569  0  0.969959  0
H  H11  1  0.59810942  0.38288214  0.17149618  1  0.088859  0  0.124199  0.111287  0  0.923282  0
H  H12  1  0.88971879  0.51429814  0.29503745  1  0.097247  0  0.099101  0.107739  0  1.00862  0
H  H13  1  0.90971142  0.63578416  0.33299797  1  0.028759  0  0.099083  0.104489  0  0.966786  0
H  H14  1  0.82034234  0.60855555  0.41992719  1  0.042722  0  0.113232  0.09826  0  0.940435  0
H  H15  1  0.74546578  0.35034912  0.16898789  1  0.074264  0  0.10639  0.119307  0  0.97407  0
H  H16  1  0.82349863  0.67551954  0.78306112  1  0.059278  0  0.099715  0.084173  0  0.994013  0
H  H17  1  0.11424064  0.90479057  0.11950951  1  0.046044  0  0.101469  0.109872  0  0.978749  0
H  H18  1  0.21213743  0.92577826  0.08935206  1  0.022973  0  0.103583  0.110344  0  0.965588  0
H  H19  1  0.77870247  0.08979259  0.67261697  1  0.063316  0  0.106246  0.123148  0  0.964902  0
H  H20  1  0.18810181  0.08065063  0.23669043  1  0.081812  0  0.121243  0.107664  0  0.93723  0
H  H21  1  0.10948616  0.91248738  0.26507613  1  0.046806  0  0.098348  0.105644  0  0.975011  0
H  H22  1  0.20865223  0.09301649  0.37117732  1  0.06974  0  0.112368  0.098569  0  0.949774  0
H  H23  1  0.31659299  0.91904681  0.25949428  1  0.031468  0  0.098099  0.103372  0  0.968986  0
H  H24  1  0.31922249  0.90818452  0.15796168  1  0.032217  0  0.100132  0.106991  0  0.969006  0
H  H25  1  0.39863461  0.08925843  0.23282179  1  0.079248  0  0.099645  0.111082  0  0.978026  0
H  H26  1  0.89621419  0.55702395  0.72614467  1  0.07413  0  0.10158  0.08827  0  0.990531  0
H  H27  1  0.41625339  0.09931857  0.33296907  1  0.065695  0  0.10018  0.109284  0  0.972401  0
H  H28  1  0.18546635  0.90253659  0.31384613  1  0.070352  0  0.098803  0.105473  0  0.993193  0
H  H29  1  0.29760704  0.66746988  0.28539246  1  0.056357  0  0.105843  0.117105  0  0.96406  0
H  H30  1  0.67071902  0.91144721  0.59637179  1  0.091401  0  0.122755  0.121316  0  0.946867  0
H  H31  1  0.32079240  0.60466964  0.18763849  1  0.085918  0  0.108677  0.124747  0  0.971986  0
H  H32  1  0.40396574  0.58036558  0.25745435  1  0.100053  0  0.124856  0.115572  0  0.929845  0
H  H33  1  0.15599395  0.56228350  0.31243347  1  0.028924  0  0.100405  0.102711  0  0.96455  0
H  H34  1  0.26108519  0.58160853  0.40610619  1  0.027909  0  0.098346  0.100824  0  0.974164  0
H  H35  1  0.12556464  0.33269829  0.10957317  1  0.112917  0  0.123534  0.113262  0  0.939519  0
H  H36  1  0.72393487  0.37752738  0.59370203  1  0.084467  0  0.104305  0.095505  0  0.984322  0
H  H37  1  0.30328673  0.38827105  0.17480395  1  0.077411  0  0.106979  0.115389  0  0.968187  0
H  H38  1  0.20822082  0.33095830  0.20461002  1  0.060481  0  0.107841  0.117887  0  0.960162  0
H  H39  1  0.09436289  0.42530086  0.24465358  1  0.055057  0  0.099946  0.104589  0  0.974914  0
H  H40  1  0.19080555  0.44519229  0.34955525  1  0.045461  0  0.100082  0.107834  0  0.978174  0
H  H41  1  0.82550632  0.08444052  0.89987403  1  0.125113  0  0.132291  0.131984  0  0.935885  0
H  H42  1  0.28334206  0.66518134  0.88777785  1  0.085934  0  0.099796  0.107377  0  0.98194  0
H  H43  1  0.20563998  0.60921178  0.78548419  1  0.032052  0  0.094072  0.09341  0  0.971418  0
H  H44  1  0.33211808  0.64931546  0.73744607  1  0.029646  0  0.097322  0.102108  0  0.971046  0
H  H45  1  0.39207441  0.65789155  0.82088480  1  0.048742  0  0.099753  0.106521  0  0.97549  0
H  H46  1  0.67905986  0.33096700  0.72191346  1  0.056967  0  0.102207  0.08803  0  0.989217  0
H  H47  1  0.38439797  0.49925488  0.78484151  1  0.05445  0  0.104845  0.11398  0  0.978473  0
H  H48  1  0.11295113  0.33288135  0.68623140  1  0.034081  0  0.095122  0.09453  0  0.971405  0
H  H49  1  0.08292688  0.40922042  0.68366167  1  0.040548  0  0.097216  0.103105  0  0.979626  0
H  H50  1  0.18793103  0.46468305  0.61516779  1  0.019133  0  0.09305  0.092372  0  0.971598  0
H  H51  1  0.18409231  0.35412507  0.58327328  1  0.049276  0  0.09247  0.09551  0  0.990303  0
H  H52  1  0.86735949  0.08256746  0.69660012  1  0.101589  0  0.104533  0.118063  0  0.980554  0
H  H53  1  0.22744371  0.40572305  0.82440351  1  0.103028  0  0.123956  0.112376  0  0.930107  0
H  H54  1  0.28188506  0.37515512  0.70513535  1  0.035171  0  0.09949  0.102379  0  0.970215  0
H  H55  1  0.66648387  0.06478447  0.75637685  1  0.042297  0  0.104558  0.111862  0  0.963755  0
H  H56  1  0.69671978  0.08610272  0.86148927  1  0.062274  0  0.107595  0.120615  0  0.958843  0
H  H57  1  0.63583756  0.91076277  0.79419447  1  0.08269  0  0.113558  0.105505  0  0.959943  0
H  H58  1  0.54747575  0.88969881  0.63272763  1  0.091871  0  0.105054  0.0438  0  0.985522  0
H  H59  1  0.83454482  0.83776496  0.72300769  1  0.085024  0  0.117702  0.061177  0  0.944717  0
H  H60  1  0.74805048  0.80899449  0.53958014  1  0.044323  0  0.095158  0.026264  0  0.990741  0
H  H61  1  0.73866407  0.44388215  0.41296793  1  0.111498  0  0.106263  0.049889  0  0.981976  0
H  H62  1  0.35196030  0.18031111  0.48464681  1  0.111557  0  0.101199  0.031338  0  0.956035  0
H  H63  1  0.72268323  0.52929502  0.14337208  1  0.040943  0  0.093885  0.093344  0  0.971597  0
H  H64  1  0.77896213  0.62936682  0.91116385  1  0.063631  0  0.104252  0.095802  0  0.983698  0
H  H65  1  0.82564765  0.64504813  0.22819466  1  0.056138  0  0.098371  0.105897  0  0.978238  0
H  H66  1  0.76402038  0.65961364  0.34369519  1  0.049883  0  0.099024  0.104577  0  0.971194  0
C  C67  1  0.14199406  0.78146590  0.13427713  1  1.526586  0  0.236793  0.604569  0  4.097974  0
C  C68  1  0.83819383  0.06439713  0.83562061  1  0.065536  0  -0.039695  -0.079854  0  3.812626  0
C  C69  1  0.79740388  0.09800057  0.79418565  1  0.050907  0  -0.005841  0.017259  0  3.796847  0
C  C70  1  0.85070724  0.21748399  0.85589067  1  1.578447  0  0.235015  0.597446  0  4.11437  0
C  C71  1  0.70377770  0.89353495  0.69513523  1  0.011745  0  0.008193  -0.040616  0  3.689268  0
C  C72  1  0.73397990  0.93687323  0.63768852  1  -0.023232  0  -0.086562  -0.105325  0  3.821671  0
C  C73  1  0.78779694  0.94171345  0.77287191  1  0.079626  0  0.02252  0.004032  0  3.76807  0
C  C74  1  0.76905950  0.56862496  0.20986509  1  -0.042107  0  -0.16411  -0.188585  0  3.899487  0
C  C75  1  0.72169074  0.58052022  0.28093254  1  -0.009404  0  -0.160703  -0.184643  0  3.899088  0
C  C76  1  0.72199874  0.39197216  0.16201681  1  -0.017737  0  -0.148295  -0.213678  0  3.830996  0
C  C77  1  0.85697419  0.55217398  0.29893674  1  -0.050001  0  -0.156768  -0.210402  0  3.839179  0
C  C78  1  0.79249774  0.59915496  0.77038748  1  -0.003763  0  -0.067469  -0.056282  0  3.614148  0
C  C79  1  0.80335279  0.50481873  0.20284701  1  0.061459  0  -0.015122  0.032998  0  3.814445  0
C  C80  1  0.70036525  0.50241771  0.30354143  1  0.061263  0  -0.000574  -0.01761  0  3.745868  0
C  C81  1  0.65194184  0.39261338  0.21135582  1  0.092698  0  -0.048553  -0.03307  0  3.845886  0
C  C82  1  0.13758749  0.49398914  0.85920859  1  1.551423  0  0.236452  0.598846  0  4.107421  0
C  C83  1  0.79251871  0.53453227  0.35300834  1  -0.029061  0  -0.079085  -0.090726  0  3.801755  0
C  C84  1  0.18681372  0.94280578  0.14636627  1  0.009239  0  -0.146239  -0.20827  0  3.821893  0
C  C85  1  0.23674166  0.06279138  0.21502188  1  0.099983  0  -0.04881  -0.029587  0  3.857416  0
C  C86  1  0.17962287  0.93775404  0.28177989  1  -0.058796  0  -0.156921  -0.209774  0  3.847607  0
C  C87  1  0.30373026  0.94313949  0.21940436  1  -0.005163  0  -0.162008  -0.185001  0  3.873066  0
C  C88  1  0.20343585  0.90022983  0.19443141  1  0.059958  0  -0.014366  0.032563  0  3.811157  0
C  C89  1  0.83121673  0.53297880  0.73696385  1  -0.056114  0  -0.071446  -0.063228  0  3.630099  0
C  C90  1  0.30476314  0.10343983  0.30104526  1  0.063641  0  -0.002225  -0.016583  0  3.764441  0
C  C91  1  0.24534202  0.05703432  0.34847644  1  -0.013646  0  -0.080462  -0.094258  0  3.826127  0
C  C92  1  0.36317865  0.06308511  0.27274215  1  -0.042575  0  -0.162508  -0.187367  0  3.864762  0
C  C93  1  0.29617366  0.59804189  0.24046856  1  -0.029284  0  -0.150755  -0.218027  0  3.831788  0
C  C94  1  0.86477483  0.50482937  0.14587909  1  1.553889  0  0.236607  0.605981  0  4.094735  0
C  C95  1  0.35846671  0.59275284  0.29351381  1  0.076048  0  -0.052312  -0.040333  0  3.856884  0
C  C96  1  0.16256815  0.49764594  0.27511464  1  -0.024826  0  -0.155123  -0.179114  0  3.866647  0
C  C97  1  0.19650746  0.40095512  0.14037607  1  0.054173  0  -0.046492  -0.034202  0  3.842353  0
C  C98  1  0.19856769  0.50074299  0.19923408  1  0.051478  0  -0.006429  0.006572  0  3.790896  0
C  C99  1  0.29964310  0.49890973  0.29946271  1  0.042224  0  -0.005585  0.004899  0  3.787573  0
C  C100  1  0.73658614  0.43315297  0.66447613  1  -0.028345  0  -0.075415  -0.066283  0  3.639679  0
C  C101  1  0.22739524  0.50686552  0.33921624  1  0.008772  0  -0.159106  -0.184107  0  3.868244  0
C  C102  1  0.25273633  0.39790602  0.20226360  1  -0.035572  0  -0.139712  -0.203765  0  3.797014  0
C  C103  1  0.25246539  0.60246602  0.81523774  1  -0.04777  0  -0.156813  -0.18149  0  3.861585  0
C  C104  1  0.32570170  0.61072802  0.77034780  1  -0.030667  0  -0.156799  -0.183499  0  3.856398  0
C  C105  1  0.26522086  0.47623605  0.82531595  1  0.072953  0  -0.045355  -0.034347  0  3.833106  0
C  C106  1  0.13713906  0.49886333  0.14011473  1  1.566768  0  0.236124  0.59559  0  4.115284  0
C  C107  1  0.14102748  0.40946503  0.69968173  1  -0.030621  0  -0.163266  -0.185607  0  3.904641  0
C  C108  1  0.19723726  0.49525000  0.80041389  1  0.058169  0  -0.006272  0.001902  0  3.777453  0
C  C109  1  0.30013335  0.50004016  0.70023605  1  0.061611  0  -0.015175  0.022736  0  3.809248  0
C  C110  1  0.31236199  0.45886190  0.75235891  1  -0.017043  0  -0.143213  -0.205044  0  3.808976  0
C  C111  1  0.71030138  0.40733233  0.73457045  1  -0.004297  0  -0.068485  -0.059803  0  3.619904  0
C  C112  1  0.20009325  0.42798713  0.64185686  1  -0.011913  0  -0.165482  -0.183649  0  3.903038  0
C  C113  1  0.64165454  0.50481970  0.36356947  1  1.546969  0  0.23412  0.590296  0  4.115695  0
C  C114  1  0.36132466  0.50297093  0.64319897  1  1.535927  0  0.240133  0.612966  0  4.077246  0
C  C115  1  0.64312747  0.77369857  0.63595107  1  1.600388  0  0.227445  0.572845  0  4.159963  0
C  C116  1  0.36091415  0.22220338  0.36371676  1  1.520639  0  0.231091  0.582429  0  4.159056  0
C  C117  1  0.35753675  0.49354348  0.35464583  1  1.553509  0  0.239608  0.605526  0  4.099628  0
C  C118  1  0.86231374  0.50654515  0.86461232  1  1.52782  0  0.225775  0.606158  0  4.180808  0
C  C119  1  0.63990880  0.49839297  0.63965543  1  1.524092  0  0.225762  0.605658  0  4.179666  0
C  C120  1  0.76633102  0.57340661  0.84052372  1  -0.008776  0  -0.074707  -0.066072  0  3.635704  0
C  C121  1  0.67162517  0.47357422  0.76807651  1  -0.022923  0  -0.069993  -0.060249  0  3.625301  0
C  C122  1  0.80558292  0.50816250  0.80825996  1  0.04142  0  -0.008724  -0.033789  0  3.662662  0
C  C123  1  0.69701907  0.49801861  0.69670383  1  0.015224  0  -0.009115  -0.035871  0  3.669048  0
C  C124  1  0.55203785  0.87070257  0.68134199  1  0.958024  0  0.10558  0.303805  0  3.887571  0
C  C125  1  0.93637326  0.12429393  0.86052350  1  0.866194  0  0.168245  0.246459  0  3.983183  0
C  C126  1  0.76270299  0.90595320  0.83104231  1  0.842224  0  0.164574  0.206274  0  4.014812  0
C  C127  1  0.84639153  0.90644354  0.72795266  1  0.980408  0  0.123515  0.270201  0  3.851281  0
C  C128  1  0.76895410  0.88869707  0.56484207  1  0.992238  0  0.099754  0.307174  0  3.910844  0
C  C129  1  0.78552362  0.46139340  0.37562789  1  0.91716  0  0.103126  0.293129  0  3.877533  0
C  C130  1  0.60776755  0.30229677  0.21488581  1  0.840246  0  0.169323  0.253413  0  3.976618  0
C  C131  1  0.28255444  0.11933200  0.17596824  1  0.846394  0  0.172155  0.256608  0  3.968902  0
C  C132  1  0.30489110  0.09363550  0.43483120  1  0.876556  0  0.11075  0.31039  0  3.895315  0
C  C133  1  0.69861423  0.04915803  0.79251294  1  -0.030762  0  -0.147563  -0.207808  0  3.83103  0
C  C134  1  0.41616774  0.69085782  0.38278520  1  0.877766  0  0.178693  0.270066  0  3.965956  0
C  C135  1  0.22953273  0.39796535  0.06641277  1  0.855658  0  0.172412  0.248603  0  3.961606  0
C  C136  1  0.33260237  0.56155443  0.91559833  1  0.89475  0  0.171791  0.263483  0  3.971163  0
C  C137  1  0.64638285  0.93008322  0.74501318  1  -0.045379  0  -0.082525  -0.101414  0  3.795838  0
C  C138  1  0.79865489  0.05697684  0.69786544  1  -0.05086  0  -0.161424  -0.223892  0  3.886649  0
N  N139  1  0.01511207  0.17797457  0.88714057  1  -1.105158  0  -0.305353  -0.348313  0  2.707528  0
N  N140  1  0.75316785  0.88704570  0.88425827  1  -1.089752  0  -0.310442  -0.337222  0  2.676996  0
N  N141  1  0.57237713  0.22561686  0.21063601  1  -1.134975  0  -0.323029  -0.375783  0  2.703843  0
N  N142  1  0.32008021  0.16667429  0.14673113  1  -1.151909  0  -0.33515  -0.392035  0  2.696106  0
N  N143  1  0.46130555  0.76948888  0.45407152  1  -1.174187  0  -0.329497  -0.401962  0  2.747989  0
N  N144  1  0.25676739  0.39790114  0.00839034  1  -1.128719  0  -0.318637  -0.372474  0  2.710429  0
N  N145  1  0.38943520  0.62956180  0.98588040  1  -1.177754  0  -0.337997  -0.394716  0  2.687432  0
O  O146  1  0.99738993  0.49682904  0.00001153  1  -1.19774  0  -0.5726  -1.030953  0  2.542753  0
O  O147  1  0.31750303  0.26244124  0.37824295  1  -1.16795  0  -0.314059  -0.553153  0  2.357584  0
O  O148  1  0.44121286  0.54101920  0.36371188  1  -1.166791  0  -0.308689  -0.543919  0  2.357243  0
O  O149  1  0.05710978  0.73854085  0.10988082  1  -1.166024  0  -0.317418  -0.550528  0  2.339918  0
O  O150  1  0.63369169  0.45493050  0.55641966  1  -1.172957  0  -0.319742  -0.552122  0  2.329812  0
O  O151  1  0.31723176  0.44038045  0.38538785  1  -1.168307  0  -0.305077  -0.532045  0  2.332201  0
O  O152  1  0.60224511  0.54337689  0.67847871  1  -1.16534  0  -0.318113  -0.550663  0  2.316829  0
O  O153  1  0.64107399  0.72898713  0.67217296  1  -1.167273  0  -0.295795  -0.526212  0  2.371042  0
O  O154  1  0.44535649  0.27039225  0.39689059  1  -1.161313  0  -0.302632  -0.525665  0  2.39092  0
O  O155  1  0.63120508  0.57790306  0.39694257  1  -1.177234  0  -0.309599  -0.540818  0  2.347654  0
O  O156  1  0.32326598  0.43471215  0.55807552  1  -1.182339  0  -0.315154  -0.551474  0  2.36921  0
O  O157  1  0.05241473  0.42733562  0.81951899  1  -1.177944  0  -0.308605  -0.535329  0  2.355215  0
O  O158  1  0.86884763  0.26348711  0.81756995  1  -1.160592  0  -0.301234  -0.519637  0  2.337232  0
O  O159  1  0.17839522  0.56126348  0.94404739  1  -1.170592  0  -0.303216  -0.532174  0  2.383997  0
O  O160  1  0.88017857  0.43620763  0.11916671  1  -1.181451  0  -0.31341  -0.544401  0  2.327685  0
O  O161  1  0.17522603  0.56931904  0.12664349  1  -1.166679  0  -0.300649  -0.521198  0  2.36646  0
O  O162  1  0.87522778  0.55704241  0.94913938  1  -1.180081  0  -0.31764  -0.546659  0  2.32986  0
O  O163  1  0.05280285  0.42658672  0.10968676  1  -1.178744  0  -0.310739  -0.546192  0  2.33098  0
O  O164  1  0.89242256  0.45271638  0.82288331  1  -1.171351  0  -0.321969  -0.555362  0  2.317543  0
O  O165  1  0.48429006  0.80646414  0.68348741  1  -1.076443  0  -0.257059  -0.339819  0  2.088586  0
O  O166  1  0.89890796  0.94794734  0.69788199  1  -1.052012  0  -0.211313  -0.283582  0  2.177369  0
O  O167  1  0.81328870  0.93188736  0.53142185  1  -1.077139  0  -0.263504  -0.341977  0  2.0925  0
O  O168  1  0.89648011  0.57386835  0.13050395  1  -1.181467  0  -0.310406  -0.538591  0  2.361791  0
O  O169  1  0.83045781  0.42694749  0.35803704  1  -1.078249  0  -0.260909  -0.346642  0  2.111203  0
O  O170  1  0.30342058  0.03677466  0.45234674  1  -1.072553  0  -0.257929  -0.34685  0  2.103916  0
O  O171  1  0.17945565  0.73454898  0.11438793  1  -1.166157  0  -0.305131  -0.531624  0  2.361877  0
O  O172  1  0.87053292  0.25899490  0.94037166  1  -1.17984  0  -0.309203  -0.544475  0  2.335061  0
O  O173  1  0.49856414  0.50122762  0.50179375  1  -1.209056  0  -0.57554  -1.033533  0  2.549576  0
O  O174  1  0.60853112  0.43396380  0.37657453  1  -1.17313  0  -0.297902  -0.53196  0  2.429678  0
O  O175  1  0.44615899  0.57289949  0.68508489  1  -1.163822  0  -0.308619  -0.537276  0  2.32531  0
O  O176  1  0.59721197  0.73032249  0.55615584  1  -1.175981  0  -0.298436  -0.52498  0  2.379861  0
