# generated using pymatgen
data_Cu3H9C15N16
_symmetry_space_group_name_H-M   'P 1'
_cell_length_a   24.24905124
_cell_length_b   26.87969009
_cell_length_c   26.86915425
_cell_angle_alpha   92.64840751
_cell_angle_beta   102.19556083
_cell_angle_gamma   90.68659608
_symmetry_Int_Tables_number   1
_chemical_formula_structural   Cu3H9C15N16
_chemical_formula_sum   'Cu12 H36 C60 N64'
_cell_volume   17095.73707536
_cell_formula_units_Z   4
loop_
 _symmetry_equiv_pos_site_id
 _symmetry_equiv_pos_as_xyz
  1  'x, y, z'
loop_
 _atom_site_type_symbol
 _atom_site_label
 _atom_site_symmetry_multiplicity
 _atom_site_fract_x
 _atom_site_fract_y
 _atom_site_fract_z
 _atom_site_occupancy
 _atom_site_pbe_bader_charge
 _atom_site_pbe_bader_spin_density
 _atom_site_pbe_cm5_charge
 _atom_site_pbe_ddec_charge
 _atom_site_pbe_ddec_spin_density
 _atom_site_pbe_ddec_sum_bond_order
 _atom_site_pbe_magmom
Cu  Cu0  1  0.57587664  0.41573437  0.65404937  1  0.544889  0  0.485156  0.203077  0  2.1144  0
Cu  Cu1  1  0.59211606  0.37107118  0.54890171  1  0.545741  0  0.495344  0.213886  0  2.128207  0
Cu  Cu2  1  0.55449182  0.29943244  0.62517657  1  0.548589  0  0.490567  0.212884  0  2.097991  0
Cu  Cu3  1  0.40243184  0.08385107  0.15339421  1  0.542774  0  0.489537  0.202672  0  2.138547  0
Cu  Cu4  1  0.31828717  0.12581646  0.05973148  1  0.55009  0  0.490148  0.217467  0  2.074825  0
Cu  Cu5  1  0.43858654  0.18178897  0.10950068  1  0.545841  0  0.489098  0.208094  0  2.103797  0
Cu  Cu6  1  0.07686830  0.58789132  0.80760191  1  0.547603  0  0.491835  0.212887  0  2.099171  0
Cu  Cu7  1  0.14842483  0.61735072  0.91994331  1  0.545742  0  0.484487  0.202419  0  2.103671  0
Cu  Cu8  1  0.02399329  0.65589379  0.88353703  1  0.549171  0  0.492823  0.217343  0  2.09504  0
Cu  Cu9  1  0.99178400  0.94050185  0.39530994  1  0.552154  0  0.493811  0.220213  0  2.09742  0
Cu  Cu10  1  0.91492305  0.89154967  0.45475407  1  0.538815  0  0.489603  0.203197  0  2.153123  0
Cu  Cu11  1  0.98511089  0.81710394  0.39963946  1  0.551196  0  0.484439  0.210061  0  2.068109  0
H  H12  1  0.64658873  0.51898246  0.65784638  1  0.071998  0  0.121076  0.11412  0  0.987047  0
H  H13  1  0.63242034  0.46683694  0.50050326  1  0.121603  0  0.127573  0.122089  0  0.977756  0
H  H14  1  0.47442818  0.27262841  0.70035104  1  0.150131  0  0.128467  0.123508  0  0.978104  0
H  H15  1  0.51044528  0.42886298  0.74359988  1  0.097294  0  0.119513  0.111149  0  0.989602  0
H  H16  1  0.62663117  0.29461120  0.46965671  1  0.104546  0  0.123729  0.117141  0  0.981982  0
H  H17  1  0.59192034  0.19374390  0.58113338  1  0.120102  0  0.127468  0.122238  0  0.978626  0
H  H18  1  0.33747347  0.98670900  0.17099899  1  0.087233  0  0.1204  0.112879  0  0.985797  0
H  H19  1  0.21738556  0.04260733  0.04386077  1  0.124685  0  0.128849  0.123923  0  0.977629  0
H  H20  1  0.55611093  0.20880816  0.18985709  1  0.114589  0  0.127042  0.122044  0  0.979053  0
H  H21  1  0.50272605  0.07238000  0.24763783  1  0.105206  0  0.120639  0.112407  0  0.988822  0
H  H22  1  0.27287772  0.19786082  0.97053850  1  0.122208  0  0.128951  0.124524  0  0.976835  0
H  H23  1  0.43590101  0.26788307  0.03440580  1  0.106792  0  0.119367  0.111038  0  0.990419  0
H  H24  1  0.15600561  0.50747422  0.77127545  1  0.093628  0  0.12883  0.123383  0  0.979899  0
H  H25  1  0.25054766  0.54396280  0.92460566  1  0.09256  0  0.118994  0.110259  0  0.991136  0
H  H26  1  0.90435499  0.67751378  0.81355138  1  0.102745  0  0.127379  0.122057  0  0.982458  0
H  H27  1  0.98006709  0.59048673  0.70667410  1  0.095127  0  0.124566  0.118889  0  0.979782  0
H  H28  1  0.18718330  0.68207389  0.02447814  1  0.119863  0  0.1198  0.111926  0  0.989222  0
H  H29  1  0.01373214  0.72753122  0.97816918  1  0.112211  0  0.128812  0.123803  0  0.978827  0
H  H30  1  0.94044101  0.05247666  0.38491013  1  0.117516  0  0.129477  0.125256  0  0.974931  0
H  H31  1  0.82979762  0.97673366  0.46563910  1  0.088829  0  0.120537  0.112642  0  0.98832  0
H  H32  1  0.05480625  0.78989679  0.31455744  1  0.091842  0  0.120441  0.113584  0  0.98767  0
H  H33  1  0.07865988  0.95025924  0.32763671  1  0.107833  0  0.126678  0.121064  0  0.982688  0
H  H34  1  0.85585779  0.81981206  0.51428972  1  0.095252  0  0.120757  0.112237  0  0.989256  0
H  H35  1  0.94438609  0.71105716  0.43821917  1  0.10813  0  0.128052  0.123501  0  0.977173  0
H  H36  1  0.27127072  0.89889440  0.16404885  1  0.159239  0  0.139133  0.149728  0  0.977937  0
H  H37  1  0.73996752  0.58384528  0.64094358  1  0.114512  0  0.137024  0.151662  0  0.98897  0
H  H38  1  0.74215474  0.02891036  0.40480682  1  0.142289  0  0.139818  0.149557  0  0.980691  0
H  H39  1  0.32485297  0.46172222  0.91103234  1  0.157721  0  0.13675  0.148976  0  0.98  0
H  H40  1  0.09505964  0.80258328  0.20980531  1  0.164274  0  0.137495  0.152838  0  0.987388  0
H  H41  1  0.44706509  0.41652596  0.82458651  1  0.12656  0  0.136796  0.149816  0  0.978897  0
H  H42  1  0.87603824  0.60717326  0.62829971  1  0.179164  0  0.139815  0.156326  0  0.995105  0
H  H43  1  0.60491741  0.07329777  0.32046983  1  0.139168  0  0.140919  0.151271  0  0.976541  0
H  H44  1  0.20216930  0.76796196  0.10107160  1  0.151862  0  0.139377  0.151454  0  0.977159  0
H  H45  1  0.68855569  0.21543641  0.43084753  1  0.176965  0  0.142026  0.156175  0  0.986781  0
H  H46  1  0.41845801  0.33178138  0.94955412  1  0.101655  0  0.136899  0.148882  0  0.980174  0
H  H47  1  0.79120478  0.74580730  0.54131506  1  0.124837  0  0.145216  0.15718  0  0.967514  0
C  C48  1  0.63856577  0.49879414  0.62101592  1  0.44856  0  0.005354  -0.055334  0  3.962352  0
C  C49  1  0.65292858  0.51149237  0.57520940  1  -0.016147  0  -0.034652  -0.042037  0  4.105322  0
C  C50  1  0.63063052  0.47219441  0.54038014  1  0.461418  0  0.015574  -0.029557  0  3.928986  0
C  C51  1  0.48960366  0.31103762  0.70502486  1  0.38125  0  0.017066  -0.029111  0  3.92268  0
C  C52  1  0.47715234  0.34949998  0.73777500  1  0.097298  0  -0.035308  -0.045246  0  4.111501  0
C  C53  1  0.50803215  0.39087277  0.72759752  1  0.378283  0  0.004796  -0.052717  0  3.965354  0
C  C54  1  0.61527332  0.27670850  0.50158642  1  0.414719  0  0.00853  -0.048389  0  3.959535  0
C  C55  1  0.61862119  0.22660771  0.51410280  1  0.029122  0  -0.034991  -0.044019  0  4.10856  0
C  C56  1  0.59715311  0.22524940  0.55863207  1  0.432764  0  0.016261  -0.031999  0  3.925189  0
C  C57  1  0.31455875  0.00684245  0.13926722  1  0.4394  0  0.005818  -0.052187  0  3.963864  0
C  C58  1  0.26157947  0.99624379  0.10748621  1  0.045433  0  -0.033324  -0.040069  0  4.098171  0
C  C59  1  0.25307557  0.03577010  0.07447393  1  0.399197  0  0.017044  -0.030828  0  3.918879  0
C  C60  1  0.53497960  0.17489302  0.19696398  1  0.434718  0  0.014888  -0.034776  0  3.924732  0
C  C61  1  0.55092421  0.14183314  0.23614851  1  0.044424  0  -0.034314  -0.042099  0  4.111884  0
C  C62  1  0.50808127  0.10493881  0.22654112  1  0.376531  0  0.00643  -0.052651  0  3.967977  0
C  C63  1  0.31436926  0.20886293  0.99262818  1  0.426448  0  0.01686  -0.029709  0  3.916421  0
C  C64  1  0.34977218  0.24854906  0.98580798  1  0.043083  0  -0.03456  -0.041736  0  4.105313  0
C  C65  1  0.39773249  0.24479673  0.02497366  1  0.401594  0  0.004653  -0.054795  0  3.969513  0
C  C66  1  0.17242912  0.52293051  0.80962593  1  0.480261  0  0.017702  -0.027162  0  3.92069  0
C  C67  1  0.22041898  0.50935860  0.84509518  1  -0.021937  0  -0.034284  -0.041325  0  4.104066  0
C  C68  1  0.22104765  0.54128981  0.88801975  1  0.415098  0  0.004937  -0.053743  0  3.963597  0
C  C69  1  0.93096615  0.65487848  0.79429274  1  0.465683  0  0.016622  -0.029847  0  3.931749  0
C  C70  1  0.92069655  0.63674848  0.74325705  1  0.015484  0  -0.036157  -0.049236  0  4.110009  0
C  C71  1  0.96934596  0.61038770  0.73929904  1  0.415022  0  0.00986  -0.046854  0  3.950126  0
C  C72  1  0.14357416  0.68780791  0.00597041  1  0.378245  0  0.005288  -0.054341  0  3.964264  0
C  C73  1  0.10336923  0.71930031  0.02052612  1  0.028647  0  -0.035187  -0.044938  0  4.105316  0
C  C74  1  0.05467994  0.71056596  0.98209738  1  0.435413  0  0.017424  -0.02828  0  3.921922  0
C  C75  1  0.91968014  0.02713588  0.40574025  1  0.413798  0  0.01634  -0.033954  0  3.923219  0
C  C76  1  0.86882575  0.03239265  0.42235762  1  0.054049  0  -0.032886  -0.03873  0  4.094023  0
C  C77  1  0.86277317  0.98811474  0.44653685  1  0.432796  0  0.004914  -0.056161  0  3.97293  0
C  C78  1  0.05492688  0.82966180  0.32375317  1  0.405042  0  0.005832  -0.053152  0  3.956805  0
C  C79  1  0.08089893  0.86912559  0.30435227  1  0.019954  0  -0.034446  -0.039547  0  4.098447  0
C  C80  1  0.06723157  0.91163574  0.33113416  1  0.466232  0  0.015074  -0.030751  0  3.934333  0
C  C81  1  0.88121263  0.79963653  0.49164414  1  0.426323  0  0.005016  -0.054254  0  3.974681  0
C  C82  1  0.88842992  0.74823385  0.48526535  1  0.04174  0  -0.034838  -0.044483  0  4.106421  0
C  C83  1  0.92683931  0.74419993  0.45285379  1  0.397281  0  0.015689  -0.033876  0  3.917733  0
C  C84  1  0.22415439  0.95469460  0.11052655  1  0.475503  0  0.091659  0.12945  0  4.09033  0
C  C85  1  0.23468902  0.91270047  0.13848696  1  0.287327  0  0.024523  -0.175294  0  3.906569  0
C  C86  1  0.68549028  0.55411455  0.56568110  1  0.435706  0  0.090607  0.132699  0  4.109517  0
C  C87  1  0.72455236  0.58374158  0.60011204  1  0.377933  0  0.014872  -0.192629  0  3.877477  0
C  C88  1  0.82610951  0.07015917  0.41322876  1  0.44298  0  0.090197  0.129087  0  4.094556  0
C  C89  1  0.76869057  0.06178898  0.40606069  1  0.319433  0  0.024186  -0.176716  0  3.897515  0
C  C90  1  0.25759930  0.46899886  0.83872399  1  0.551517  0  0.09064  0.129559  0  4.105317  0
C  C91  1  0.30330606  0.45094016  0.87245279  1  0.244461  0  0.016224  -0.188489  0  3.889173  0
C  C92  1  0.11328595  0.87061595  0.26487474  1  0.491297  0  0.091706  0.130912  0  4.098231  0
C  C93  1  0.11578664  0.83786484  0.22378453  1  0.26675  0  0.017806  -0.186231  0  3.866231  0
C  C94  1  0.43898947  0.34658127  0.77226626  1  0.441308  0  0.091592  0.132793  0  4.105687  0
C  C95  1  0.42927780  0.38035814  0.80976715  1  0.323282  0  0.015828  -0.190792  0  3.88895  0
C  C96  1  0.87179539  0.64681847  0.70415932  1  0.437111  0  0.090605  0.133803  0  4.092736  0
C  C97  1  0.85729995  0.63133679  0.65324507  1  0.291555  0  0.017213  -0.182323  0  3.850609  0
C  C98  1  0.59905554  0.14517698  0.27839882  1  0.488888  0  0.089168  0.126882  0  4.105618  0
C  C99  1  0.61816300  0.11064714  0.31415576  1  0.27664  0  0.023309  -0.173346  0  3.878021  0
C  C100  1  0.10981312  0.75611370  0.06247839  1  0.509083  0  0.090603  0.128793  0  4.096287  0
C  C101  1  0.15757214  0.77533866  0.09560168  1  0.256438  0  0.01979  -0.181632  0  3.880826  0
C  C102  1  0.63798788  0.18564752  0.48598989  1  0.449655  0  0.091264  0.132072  0  4.089679  0
C  C103  1  0.66892958  0.18647075  0.44832252  1  0.268839  0  0.022599  -0.169634  0  3.847122  0
C  C104  1  0.33936135  0.28427362  0.94646940  1  0.476815  0  0.090804  0.130567  0  4.101151  0
C  C105  1  0.37501654  0.32022865  0.93438735  1  0.332762  0  0.017163  -0.187335  0  3.891644  0
C  C106  1  0.86192832  0.71019849  0.50922586  1  0.443347  0  0.092521  0.129935  0  4.091012  0
C  C107  1  0.81799102  0.71546987  0.53442736  1  0.365163  0  0.03204  -0.162956  0  3.859985  0
N  N108  1  0.60517628  0.43831977  0.56394559  1  -0.770603  0  -0.341138  -0.14731  0  3.753966  0
N  N109  1  0.60993684  0.45483727  0.61394138  1  -0.772375  0  -0.337308  -0.138453  0  3.766639  0
N  N110  1  0.53680860  0.37795011  0.69133218  1  -0.765723  0  -0.336993  -0.140532  0  3.768742  0
N  N111  1  0.52537889  0.32840083  0.67741829  1  -0.779035  0  -0.333395  -0.137207  0  3.757708  0
N  N112  1  0.58235506  0.27145047  0.57169608  1  -0.775285  0  -0.333979  -0.139505  0  3.754919  0
N  N113  1  0.59343492  0.30327383  0.53623663  1  -0.769049  0  -0.339457  -0.141328  0  3.77591  0
N  N114  1  0.29806030  0.06746882  0.08590763  1  -0.752911  0  -0.331499  -0.13906  0  3.748633  0
N  N115  1  0.33609230  0.04947209  0.12606999  1  -0.784864  0  -0.339992  -0.139946  0  3.786971  0
N  N116  1  0.46947297  0.11528600  0.18463741  1  -0.768485  0  -0.339026  -0.137672  0  3.782633  0
N  N117  1  0.48607711  0.15857720  0.16627281  1  -0.767615  0  -0.333681  -0.136617  0  3.755374  0
N  N118  1  0.39137954  0.20567211  0.05306315  1  -0.771045  0  -0.336934  -0.139125  0  3.772511  0
N  N119  1  0.33967578  0.18333050  0.03293769  1  -0.7747  0  -0.33124  -0.139536  0  3.75108  0
N  N120  1  0.17640364  0.57154503  0.87882114  1  -0.769878  0  -0.335954  -0.138767  0  3.76688  0
N  N121  1  0.14629168  0.56006581  0.83018523  1  -0.77551  0  -0.33568  -0.14136  0  3.761253  0
N  N122  1  0.00591241  0.61282064  0.78478677  1  -0.769332  0  -0.333925  -0.136712  0  3.762851  0
N  N123  1  0.98204920  0.64034584  0.81882485  1  -0.776878  0  -0.334932  -0.140631  0  3.760895  0
N  N124  1  0.06536683  0.67657355  0.94713274  1  -0.778347  0  -0.334256  -0.139681  0  3.757049  0
N  N125  1  0.12045304  0.66235413  0.96190036  1  -0.760931  0  -0.334521  -0.136472  0  3.764256  0
N  N126  1  0.90654271  0.95846563  0.44416462  1  -0.793384  0  -0.342802  -0.140165  0  3.783252  0
N  N127  1  0.94182320  0.98247325  0.41877137  1  -0.761322  0  -0.333473  -0.142417  0  3.738068  0
N  N128  1  0.03512939  0.89854508  0.36380351  1  -0.764418  0  -0.336096  -0.14306  0  3.76056  0
N  N129  1  0.02749018  0.84757851  0.35945808  1  -0.774149  0  -0.332766  -0.141376  0  3.756926  0
N  N130  1  0.94106358  0.79016410  0.44071445  1  -0.749438  0  -0.328046  -0.135035  0  3.734928  0
N  N131  1  0.91278792  0.82438431  0.46493938  1  -0.771042  0  -0.34084  -0.13914  0  3.788167  0
N  N132  1  0.17288303  0.84660578  0.15563241  1  0.026638  0  0.04045  0.027662  0  3.342644  0
N  N133  1  0.77765995  0.65985303  0.58602143  1  0.054703  0  0.045637  0.040426  0  3.384104  0
N  N134  1  0.68940488  0.11605977  0.39220774  1  0.024842  0  0.037281  0.036376  0  3.577417  0
N  N135  1  0.36234855  0.37880836  0.86631019  1  0.041532  0  0.036248  0.020631  0  3.390041  0
N  N136  1  0.14296028  0.91309463  0.09750654  1  -0.047884  0  -0.085602  -0.105534  0  3.115497  0
N  N137  1  0.16794407  0.95261116  0.08564532  1  -0.50643  0  -0.18885  -0.184306  0  3.178388  0
N  N138  1  0.18385043  0.88803161  0.12905552  1  -0.448444  0  -0.042091  0.141545  0  3.849455  0
N  N139  1  0.71798034  0.60900432  0.52024753  1  -0.069749  0  -0.099031  -0.126804  0  3.142721  0
N  N140  1  0.68318835  0.57058496  0.51766629  1  -0.543349  0  -0.207184  -0.21117  0  3.188882  0
N  N141  1  0.74351235  0.61592823  0.56969896  1  -0.4541  0  -0.029835  0.172355  0  3.826579  0
N  N142  1  0.78764301  0.14389931  0.40169857  1  -0.053753  0  -0.090058  -0.117896  0  3.104283  0
N  N143  1  0.83546764  0.12070469  0.40988258  1  -0.517263  0  -0.193839  -0.190202  0  3.174884  0
N  N144  1  0.74655479  0.10786678  0.39903018  1  -0.436465  0  -0.035137  0.157133  0  3.86485  0
N  N145  1  0.28599141  0.40397239  0.79852962  1  -0.029264  0  -0.079625  -0.097172  0  3.128775  0
N  N146  1  0.24953183  0.43962207  0.79403856  1  -0.544579  0  -0.192817  -0.195287  0  3.185836  0
N  N147  1  0.31901212  0.41098432  0.84598734  1  -0.445339  0  -0.035424  0.156233  0  3.852126  0
N  N148  1  0.16776713  0.90744430  0.22134150  1  -0.053538  0  -0.094811  -0.122825  0  3.177725  0
N  N149  1  0.14560082  0.91224554  0.26169942  1  -0.540672  0  -0.204401  -0.209347  0  3.210068  0
N  N150  1  0.14889518  0.86320642  0.19806272  1  -0.461968  0  -0.028332  0.176974  0  3.789659  0
N  N151  1  0.37185270  0.31248019  0.80427476  1  -0.01621  0  -0.080397  -0.09925  0  3.137724  0
N  N152  1  0.40366458  0.30560770  0.77112732  1  -0.530333  0  -0.192692  -0.194071  0  3.186882  0
N  N153  1  0.38754983  0.35770928  0.82798311  1  -0.466964  0  -0.035123  0.157246  0  3.856901  0
N  N154  1  0.79321134  0.68557163  0.67308099  1  -0.063466  0  -0.092912  -0.125258  0  3.141072  0
N  N155  1  0.83091248  0.67918739  0.71431410  1  -0.50485  0  -0.194865  -0.194801  0  3.209397  0
N  N156  1  0.80861225  0.65637494  0.63553460  1  -0.444413  0  -0.040172  0.148471  0  3.843247  0
N  N157  1  0.67160226  0.18145273  0.33181621  1  -0.064102  0  -0.086387  -0.118331  0  3.137638  0
N  N158  1  0.63340764  0.18746774  0.29063933  1  -0.503372  0  -0.1929  -0.191648  0  3.18856  0
N  N159  1  0.66321953  0.13415727  0.34601907  1  -0.435395  0  -0.035145  0.15433  0  3.850361  0
N  N160  1  0.08005761  0.81558487  0.10924768  1  -0.037643  0  -0.07982  -0.108363  0  3.139188  0
N  N161  1  0.06380154  0.78124809  0.07334142  1  -0.507168  0  -0.187121  -0.184548  0  3.193701  0
N  N162  1  0.13748815  0.81160585  0.12401874  1  -0.464541  0  -0.03899  0.149196  0  3.830588  0
N  N163  1  0.64347305  0.10719948  0.46035054  1  -0.062644  0  -0.103186  -0.145958  0  3.153189  0
N  N164  1  0.62435655  0.13646259  0.49237027  1  -0.502629  0  -0.197792  -0.192822  0  3.211417  0
N  N165  1  0.67131897  0.13729972  0.43363495  1  -0.447758  0  -0.036166  0.158903  0  3.847353  0
N  N166  1  0.28973654  0.32094598  0.88034388  1  -0.038604  0  -0.080222  -0.099463  0  3.13324  0
N  N167  1  0.28778525  0.28685201  0.91294766  1  -0.517105  0  -0.192236  -0.192742  0  3.184395  0
N  N168  1  0.34254947  0.34167488  0.89362177  1  -0.471099  0  -0.036183  0.154424  0  3.858179  0
N  N169  1  0.84983651  0.63672372  0.53904081  1  -0.061561  0  -0.090674  -0.127813  0  3.14397  0
N  N170  1  0.87930841  0.66139748  0.51264901  1  -0.523882  0  -0.191908  -0.187965  0  3.180799  0
N  N171  1  0.81195068  0.66952489  0.55199889  1  -0.448649  0  -0.035208  0.157773  0  3.860045  0
