# generated using pymatgen
data_KCu6H12C18N18ClO12
_symmetry_space_group_name_H-M   'P 1'
_cell_length_a   10.42375474
_cell_length_b   12.66939657
_cell_length_c   13.11000000
_cell_angle_alpha   83.57882547
_cell_angle_beta   81.85312627
_cell_angle_gamma   68.05860634
_symmetry_Int_Tables_number   1
_chemical_formula_structural   KCu6H12C18N18ClO12
_chemical_formula_sum   'K2 Cu12 H24 C36 N36 Cl2 O24'
_cell_volume   1586.45530777
_cell_formula_units_Z   2
loop_
 _symmetry_equiv_pos_site_id
 _symmetry_equiv_pos_as_xyz
  1  'x, y, z'
loop_
 _atom_site_type_symbol
 _atom_site_label
 _atom_site_symmetry_multiplicity
 _atom_site_fract_x
 _atom_site_fract_y
 _atom_site_fract_z
 _atom_site_occupancy
 _atom_site_hle17_bader_spin_density
 _atom_site_hle17_ddec_charge
 _atom_site_hle17_ddec_spin_density
 _atom_site_hle17_ddec_sum_bond_order
 _atom_site_hle17_magmom
 _atom_site_hse06_10hf_bader_spin_density
 _atom_site_hse06_10hf_ddec_charge
 _atom_site_hse06_10hf_ddec_spin_density
 _atom_site_hse06_10hf_ddec_sum_bond_order
 _atom_site_hse06_10hf_magmom
 _atom_site_hse06_bader_spin_density
 _atom_site_hse06_ddec_charge
 _atom_site_hse06_ddec_spin_density
 _atom_site_hse06_ddec_sum_bond_order
 _atom_site_hse06_magmom
 _atom_site_pbe_bader_charge
 _atom_site_pbe_bader_spin_density
 _atom_site_pbe_cm5_charge
 _atom_site_pbe_ddec_charge
 _atom_site_pbe_ddec_spin_density
 _atom_site_pbe_ddec_sum_bond_order
 _atom_site_pbe_magmom
K  K0  1  0.33102724  0.45921396  0.02684060  1  0  0.955331  0  0.430512  0  0  0.922606  0  0.608558  0  0  0.935662  0  0.583697  0  0.91979  0  0.797633  0.9128  0  0.62659  0
K  K1  1  0.66897795  0.54078621  0.97316269  1  0  0.955335  0  0.430512  0  0  0.922607  0  0.608564  0  0  0.935665  0  0.583698  0  0.919812  0  0.797643  0.912804  0  0.626594  0
Cu  Cu2  1  0.93359651  0.75097050  0.47586948  1  0  0.443033  0  1.752649  0  0  0.309603  0  2.216551  0  0  0.314989  0  2.171818  0  0.622351  0  0.490206  0.310491  0  2.244539  0
Cu  Cu3  1  0.06640227  0.24902882  0.52413081  1  0  0.443076  0  1.752639  0  0  0.309646  0  2.216525  0  0  0.315016  0  2.171765  0  0.62229  0  0.490245  0.310539  0  2.244518  0
Cu  Cu4  1  0.66801866  0.97909208  0.36790737  1  0  0.415061  0  1.825315  0  0  0.291101  0  2.290122  0  0  0.300124  0  2.241133  0  0.611215  0  0.484757  0.287936  0  2.321765  0
Cu  Cu5  1  0.33198034  0.02090894  0.63209347  1  0  0.415077  0  1.825293  0  0  0.29111  0  2.290103  0  0  0.300117  0  2.24113  0  0.611181  0  0.484737  0.287945  0  2.321736  0
Cu  Cu6  1  0.54511472  0.09143282  0.61331399  1  0  0.420456  0  1.800006  0  0  0.294401  0  2.261026  0  0  0.30353  0  2.213548  0  0.611413  0  0.488917  0.291219  0  2.29157  0
Cu  Cu7  1  0.45488600  0.90856650  0.38668684  1  0  0.420451  0  1.799999  0  0  0.294383  0  2.261012  0  0  0.303496  0  2.213535  0  0.611364  0  0.488908  0.291197  0  2.291556  0
Cu  Cu8  1  0.81595334  0.86167337  0.71652420  1  0  0.430743  0  1.771582  0  0  0.300966  0  2.230332  0  0  0.305359  0  2.187636  0  0.623047  0  0.490956  0.301262  0  2.257592  0
Cu  Cu9  1  0.18404738  0.13832594  0.28347587  1  0  0.43078  0  1.771511  0  0  0.301034  0  2.230264  0  0  0.305433  0  2.187572  0  0.623054  0  0.490991  0.301329  0  2.25753  0
Cu  Cu10  1  0.92490345  0.05464839  0.67674498  1  0  0.451445  0  1.696668  0  0  0.321668  0  2.141625  0  0  0.333049  0  2.09331  0  0.615676  0  0.504608  0.315458  0  2.17411  0
Cu  Cu11  1  0.07509689  0.94535178  0.32325352  1  0  0.451464  0  1.696676  0  0  0.321681  0  2.141605  0  0  0.333053  0  2.093282  0  0.615669  0  0.504621  0.315482  0  2.174094  0
Cu  Cu12  1  0.79688183  0.17377164  0.44327917  1  0  0.462171  0  1.682731  0  0  0.330312  0  2.130059  0  0  0.33949  0  2.083399  0  0.629298  0  0.502196  0.326676  0  2.160538  0
Cu  Cu13  1  0.20311792  0.82622768  0.55671948  1  0  0.462201  0  1.682735  0  0  0.330337  0  2.130063  0  0  0.339509  0  2.0834  0  0.629296  0  0.502192  0.326696  0  2.160542  0
H  H14  1  0.05587073  0.61490931  0.27993644  1  0  0.12012  0  0.967875  0  0  0.119938  0  1.0461  0  0  0.123864  0  1.041115  0  0.184598  0  0.122935  0.11711  0  1.049672  0
H  H15  1  0.94412670  0.38509086  0.72006314  1  0  0.120131  0  0.967871  0  0  0.119956  0  1.046094  0  0  0.123883  0  1.04111  0  0.184542  0  0.122943  0.117128  0  1.049665  0
H  H16  1  0.74115288  0.91114505  0.14269935  1  0  0.120696  0  0.96327  0  0  0.126689  0  1.031413  0  0  0.129562  0  1.02793  0  0.171715  0  0.1244  0.124621  0  1.034005  0
H  H17  1  0.25884611  0.08885597  0.85730150  1  0  0.120732  0  0.963261  0  0  0.126684  0  1.031446  0  0  0.129557  0  1.027961  0  0.171746  0  0.124391  0.124617  0  1.034039  0
H  H18  1  0.47512947  0.17910866  0.23986486  1  0  0.128978  0  0.956538  0  0  0.126326  0  1.035243  0  0  0.130929  0  1.028494  0  0.177809  0  0.126105  0.123077  0  1.040012  0
H  H19  1  0.52487184  0.82089151  0.76013505  1  0  0.12896  0  0.956567  0  0  0.126323  0  1.035252  0  0  0.130927  0  1.028501  0  0.177808  0  0.12609  0.12307  0  1.040034  0
H  H20  1  0.32504785  0.31700655  0.54352449  1  0  0.125802  0  0.966142  0  0  0.128922  0  1.037376  0  0  0.132534  0  1.032273  0  0.194661  0  0.124216  0.126138  0  1.041491  0
H  H21  1  0.67495093  0.68299277  0.45647580  1  0  0.125785  0  0.966146  0  0  0.128872  0  1.037414  0  0  0.132485  0  1.032313  0  0.19466  0  0.124202  0.12609  0  1.041527  0
H  H22  1  0.42409448  0.22014803  0.81247496  1  0  0.122055  0  0.961962  0  0  0.120827  0  1.040023  0  0  0.124987  0  1.034677  0  0.181681  0  0.125665  0.117801  0  1.043848  0
H  H23  1  0.57590431  0.77985129  0.18752609  1  0  0.122035  0  0.961954  0  0  0.120817  0  1.040004  0  0  0.124979  0  1.034656  0  0.181669  0  0.125664  0.117796  0  1.043823  0
H  H24  1  0.75181410  0.92776750  0.94224239  1  0  0.124114  0  0.954976  0  0  0.130584  0  1.023268  0  0  0.133621  0  1.019196  0  0.161948  0  0.126504  0.128326  0  1.026381  0
H  H25  1  0.24818936  0.07223438  0.05775709  1  0  0.124122  0  0.954985  0  0  0.130583  0  1.023292  0  0  0.133618  0  1.019213  0  0.162054  0  0.126502  0.128325  0  1.026406  0
H  H26  1  0.00048086  0.65404803  0.84836697  1  0  0.123987  0  0.957829  0  0  0.123743  0  1.033347  0  0  0.128013  0  1.027475  0  0.168379  0  0.129374  0.120778  0  1.037383  0
H  H27  1  0.99951889  0.34595129  0.15163397  1  0  0.123989  0  0.957855  0  0  0.12375  0  1.033357  0  0  0.128017  0  1.027491  0  0.168384  0  0.129396  0.120786  0  1.037394  0
H  H28  1  0.16172290  0.52498321  0.54251884  1  0  0.120668  0  0.966044  0  0  0.128412  0  1.031773  0  0  0.13141  0  1.02755  0  0.21355  0  0.124551  0.126244  0  1.034827  0
H  H29  1  0.83827744  0.47501696  0.45748195  1  0  0.120679  0  0.966031  0  0  0.128426  0  1.031756  0  0  0.131423  0  1.027534  0  0.213556  0  0.124556  0.126261  0  1.034804  0
H  H30  1  0.32446565  0.69823982  0.75543919  1  0  0.124631  0  0.975361  0  0  0.125909  0  1.047262  0  0  0.129575  0  1.042877  0  0.207471  0  0.125672  0.123245  0  1.050439  0
H  H31  1  0.67553432  0.30176121  0.24455925  1  0  0.12466  0  0.975406  0  0  0.125947  0  1.047292  0  0  0.129616  0  1.042902  0  0.207489  0  0.125679  0.123281  0  1.050471  0
H  H32  1  0.99053009  0.98550265  0.89727314  1  0  0.124674  0  0.946115  0  0  0.13172  0  1.011969  0  0  0.134431  0  1.008482  0  0.16123  0  0.12745  0.129691  0  1.014737  0
H  H33  1  0.00947046  0.01449923  0.10272515  1  0  0.124649  0  0.946127  0  0  0.131693  0  1.011983  0  0  0.134402  0  1.008497  0  0.161239  0  0.127456  0.129666  0  1.014754  0
H  H34  1  0.74760923  0.25153916  0.81266323  1  0  0.124237  0  0.963314  0  0  0.123645  0  1.039014  0  0  0.127602  0  1.034238  0  0.202339  0  0.126103  0.120818  0  1.042428  0
H  H35  1  0.25239014  0.74846101  0.18733613  1  0  0.124232  0  0.963301  0  0  0.123643  0  1.039008  0  0  0.1276  0  1.034227  0  0.202312  0  0.126099  0.120814  0  1.042422  0
H  H36  1  0.58019451  0.40219678  0.52117447  1  0  0.120347  0  0.933783  0  0  0.130017  0  0.996256  0  0  0.132367  0  0.99323  0  0.135744  0  0.129011  0.128181  0  0.998683  0
H  H37  1  0.41980524  0.59780254  0.47882495  1  0  0.120353  0  0.933796  0  0  0.13002  0  0.996274  0  0  0.132372  0  0.993246  0  0.135759  0  0.129009  0.128185  0  0.9987  0
C  C38  1  0.97184441  0.69472501  0.26330699  1  0  0.024137  0  3.664651  0  0  -0.025182  0  3.938928  0  0  -0.016563  0  3.954198  0  0.489401  0  0.025528  -0.030223  0  3.928102  0
C  C39  1  0.02815302  0.30527517  0.73669260  1  0  0.024103  0  3.664622  0  0  -0.025229  0  3.938904  0  0  -0.016609  0  3.954155  0  0.489525  0  0.025483  -0.030272  0  3.928081  0
C  C40  1  0.91810694  0.74379933  0.16946379  1  0  -0.017929  0  3.760165  0  0  -0.040675  0  4.025009  0  0  -0.053432  0  4.050436  0  0.295336  0  0.060356  -0.032407  0  4.007694  0
C  C41  1  0.08189243  0.25620084  0.83053558  1  0  -0.01783  0  3.760145  0  0  -0.040587  0  4.024984  0  0  -0.053343  0  4.050414  0  0.294958  0  0.060394  -0.032318  0  4.00767  0
C  C42  1  0.80925244  0.84704794  0.19273557  1  0  0.021878  0  3.667001  0  0  -0.026113  0  3.937018  0  0  -0.016915  0  3.951757  0  0.524481  0  0.026908  -0.031607  0  3.926609  0
C  C43  1  0.19074520  0.15295393  0.80726380  1  0  0.021847  0  3.667115  0  0  -0.026108  0  3.937134  0  0  -0.016907  0  3.951868  0  0.524497  0  0.026914  -0.031595  0  3.926703  0
C  C44  1  0.45303396  0.19454585  0.32151594  1  0  0.021662  0  3.661534  0  0  -0.02529  0  3.937803  0  0  -0.013106  0  3.94533  0  0.507915  0  0.02667  -0.03341  0  3.93311  0
C  C45  1  0.54696676  0.80545346  0.67848489  1  0  0.021655  0  3.661562  0  0  -0.025316  0  3.937838  0  0  -0.013131  0  3.94536  0  0.508208  0  0.026642  -0.033436  0  3.933137  0
C  C46  1  0.35963651  0.29044765  0.37221542  1  0  -0.03484  0  3.778504  0  0  -0.04479  0  4.0499  0  0  -0.056763  0  4.071234  0  0.3276  0  0.060004  -0.037288  0  4.036244  0
C  C47  1  0.64035958  0.70955338  0.62778574  1  0  -0.034814  0  3.778515  0  0  -0.04476  0  4.049911  0  0  -0.056731  0  4.071248  0  0.327298  0  0.060033  -0.037259  0  4.036251  0
C  C48  1  0.37549127  0.26581839  0.47795281  1  0  0.012586  0  3.677378  0  0  -0.035619  0  3.951776  0  0  -0.023462  0  3.960129  0  0.46205  0  0.021888  -0.04374  0  3.946729  0
C  C49  1  0.62450848  0.73418092  0.52204814  1  0  0.012638  0  3.677391  0  0  -0.035542  0  3.951793  0  0  -0.023387  0  3.960146  0  0.462041  0  0.021907  -0.043662  0  3.946742  0
C  C50  1  0.50968856  0.14085078  0.82729034  1  0  0.028972  0  3.656777  0  0  -0.017489  0  3.927497  0  0  -0.008276  0  3.941742  0  0.440472  0  0.031232  -0.022893  0  3.917439  0
C  C51  1  0.49031157  0.85914769  0.17271065  1  0  0.029045  0  3.65674  0  0  -0.017444  0  3.927478  0  0  -0.008228  0  3.941713  0  0.440436  0  0.031252  -0.022849  0  3.917407  0
C  C52  1  0.57077250  0.09388261  0.91903086  1  0  -0.027415  0  3.764159  0  0  -0.047591  0  4.031016  0  0  -0.0609  0  4.057196  0  0.368997  0  0.059973  -0.038907  0  4.013387  0
C  C53  1  0.42922978  0.90611756  0.08096970  1  0  -0.02749  0  3.764205  0  0  -0.047645  0  4.031057  0  0  -0.060965  0  4.057252  0  0.368996  0  0.059944  -0.038959  0  4.013426  0
C  C54  1  0.67996063  0.99121059  0.89398510  1  0  0.02612  0  3.662443  0  0  -0.028582  0  3.941371  0  0  -0.018525  0  3.95484  0  0.520121  0  0.025334  -0.034909  0  3.932246  0
C  C55  1  0.32004068  0.00878958  0.10601633  1  0  0.026172  0  3.662371  0  0  -0.028522  0  3.94127  0  0  -0.018464  0  3.954751  0  0.520074  0  0.025353  -0.034844  0  3.932137  0
C  C56  1  0.02354412  0.64043730  0.76636597  1  0  0.042834  0  3.634219  0  0  -0.00451  0  3.903773  0  0  0.005371  0  3.917203  0  0.520295  0  0.037253  -0.010198  0  3.893935  0
C  C57  1  0.97645660  0.35956202  0.23363410  1  0  0.042894  0  3.634259  0  0  -0.004423  0  3.903829  0  0  0.005457  0  3.917259  0  0.520302  0  0.037292  -0.010112  0  3.893995  0
C  C58  1  0.12399630  0.54841272  0.71429543  1  0  -0.022206  0  3.759178  0  0  -0.042081  0  4.020869  0  0  -0.055513  0  4.046617  0  0.260047  0  0.063029  -0.03323  0  4.003348  0
C  C59  1  0.87600501  0.45158745  0.28570525  1  0  -0.022153  0  3.759266  0  0  -0.042092  0  4.021011  0  0  -0.055522  0  4.046759  0  0.260051  0  0.063023  -0.033242  0  4.003491  0
C  C60  1  0.10734595  0.57398079  0.60870030  1  0  0.023915  0  3.673924  0  0  -0.022965  0  3.941059  0  0  -0.012346  0  3.95337  0  0.503073  0  0.027693  -0.029635  0  3.932784  0
C  C61  1  0.89265439  0.42601938  0.39129971  1  0  0.023879  0  3.673937  0  0  -0.022989  0  3.94107  0  0  -0.012368  0  3.953382  0  0.503058  0  0.027682  -0.029659  0  3.932798  0
C  C62  1  0.23667365  0.77625291  0.77232908  1  0  0.030006  0  3.652  0  0  -0.016067  0  3.91811  0  0  -0.007108  0  3.932621  0  0.490131  0  0.031819  -0.021487  0  3.908016  0
C  C63  1  0.76332728  0.22374811  0.22767002  1  0  0.029957  0  3.652028  0  0  -0.016113  0  3.918139  0  0  -0.007151  0  3.932638  0  0.490474  0  0.031833  -0.021531  0  3.908046  0
C  C64  1  0.17542668  0.82271713  0.86771937  1  0  -0.022655  0  3.758009  0  0  -0.032342  0  4.026248  0  0  -0.045401  0  4.051582  0  0.344186  0  0.065487  -0.023906  0  4.00944  0
C  C65  1  0.82457463  0.17728304  0.13227978  1  0  -0.022609  0  3.757911  0  0  -0.032333  0  4.02619  0  0  -0.045389  0  4.051524  0  0.34421  0  0.065484  -0.023897  0  4.009382  0
C  C66  1  0.06384744  0.92367626  0.84581257  1  0  0.02784  0  3.66032  0  0  -0.021322  0  3.928068  0  0  -0.011126  0  3.941302  0  0.462501  0  0.029934  -0.02804  0  3.919547  0
C  C67  1  0.93615349  0.07632476  0.15418652  1  0  0.027864  0  3.660355  0  0  -0.021279  0  3.928121  0  0  -0.011087  0  3.94135  0  0.462469  0  0.029913  -0.028002  0  3.919605  0
C  C68  1  0.72227796  0.27077341  0.73340049  1  0  0.034758  0  3.645627  0  0  -0.010222  0  3.909688  0  0  -0.001418  0  3.92484  0  0.46272  0  0.033777  -0.015354  0  3.899188  0
C  C69  1  0.27772082  0.72922591  0.26659903  1  0  0.034768  0  3.645555  0  0  -0.010253  0  3.9096  0  0  -0.001448  0  3.924749  0  0.462729  0  0.033778  -0.015392  0  3.899135  0
C  C70  1  0.62370211  0.36763022  0.68854056  1  0  -0.02363  0  3.753032  0  0  -0.034331  0  4.022258  0  0  -0.04719  0  4.047184  0  0.348073  0  0.066097  -0.026303  0  4.006009  0
C  C71  1  0.37629608  0.63236825  0.31145912  1  0  -0.023655  0  3.753067  0  0  -0.034263  0  4.0222  0  0  -0.047113  0  4.047114  0  0.348077  0  0.066113  -0.026236  0  4.005948  0
C  C72  1  0.63633212  0.34898092  0.58319103  1  0  0.031589  0  3.664256  0  0  -0.017227  0  3.931642  0  0  -0.007059  0  3.944801  0  0.518887  0  0.031797  -0.024056  0  3.923383  0
C  C73  1  0.36366666  0.65101840  0.41680850  1  0  0.031632  0  3.664323  0  0  -0.017223  0  3.931685  0  0  -0.007063  0  3.944846  0  0.5189  0  0.031832  -0.024051  0  3.923422  0
N  N74  1  0.89935249  0.76478416  0.33758812  1  0  -0.223709  0  3.387129  0  0  -0.149996  0  3.697579  0  0  -0.160338  0  3.706078  0  -0.781948  0  -0.315755  -0.144129  0  3.692154  0
N  N75  1  0.10064456  0.23521686  0.66241141  1  0  -0.223665  0  3.386988  0  0  -0.149943  0  3.697419  0  0  -0.160273  0  3.705895  0  -0.782046  0  -0.315717  -0.144078  0  3.692002  0
N  N76  1  0.79853433  0.85863352  0.29397332  1  0  -0.211629  0  3.383504  0  0  -0.137793  0  3.687307  0  0  -0.149258  0  3.696213  0  -0.773681  0  -0.314546  -0.130987  0  3.681976  0
N  N77  1  0.20146408  0.14136666  0.70602692  1  0  -0.21176  0  3.383577  0  0  -0.137934  0  3.687385  0  0  -0.149398  0  3.696283  0  -0.773586  0  -0.314622  -0.131125  0  3.682052  0
N  N78  1  0.52166679  0.11819125  0.39289922  1  0  -0.221478  0  3.400347  0  0  -0.145588  0  3.700074  0  0  -0.155945  0  3.704926  0  -0.786143  0  -0.317827  -0.139584  0  3.697229  0
N  N79  1  0.47833161  0.88180892  0.60709949  1  0  -0.221525  0  3.400318  0  0  -0.145629  0  3.700047  0  0  -0.155982  0  3.704889  0  -0.786172  0  -0.317828  -0.139623  0  3.697194  0
N  N80  1  0.47384402  0.16216645  0.48938997  1  0  -0.218578  0  3.399682  0  0  -0.143151  0  3.700691  0  0  -0.15369  0  3.705907  0  -0.777923  0  -0.318212  -0.137085  0  3.697698  0
N  N81  1  0.52615573  0.83783287  0.51060945  1  0  -0.218544  0  3.399771  0  0  -0.143113  0  3.70075  0  0  -0.153644  0  3.70596  0  -0.777918  0  -0.318201  -0.137044  0  3.697753  0
N  N82  1  0.57799988  0.07034566  0.75263982  1  0  -0.207379  0  3.370771  0  0  -0.132425  0  3.669148  0  0  -0.144459  0  3.679219  0  -0.774129  0  -0.310628  -0.125483  0  3.663037  0
N  N83  1  0.42199987  0.92965366  0.24736036  1  0  -0.207424  0  3.370757  0  0  -0.132439  0  3.669113  0  0  -0.144468  0  3.679177  0  -0.774121  0  -0.310639  -0.125496  0  3.663002  0
N  N84  1  0.68333284  0.97798272  0.79373119  1  0  -0.221094  0  3.386999  0  0  -0.147497  0  3.695988  0  0  -0.157369  0  3.703453  0  -0.776302  0  -0.314917  -0.14166  0  3.691348  0
N  N85  1  0.31666944  0.02201745  0.20627014  1  0  -0.221104  0  3.386985  0  0  -0.147532  0  3.695994  0  0  -0.157405  0  3.703454  0  -0.776326  0  -0.314913  -0.141695  0  3.691358  0
N  N86  1  0.95275822  0.71629138  0.69592148  1  0  -0.214073  0  3.358625  0  0  -0.143019  0  3.666445  0  0  -0.154732  0  3.677266  0  -0.758479  0  -0.313696  -0.135858  0  3.659242  0
N  N87  1  0.04724347  0.28370794  0.30407847  1  0  -0.214079  0  3.358412  0  0  -0.143092  0  3.666294  0  0  -0.154801  0  3.677111  0  -0.758469  0  -0.313751  -0.135933  0  3.659097  0
N  N88  1  0.00461128  0.67505929  0.59839351  1  0  -0.230151  0  3.405961  0  0  -0.158799  0  3.720636  0  0  -0.168787  0  3.727836  0  -0.781009  0  -0.319016  -0.153299  0  3.716138  0
N  N89  1  0.99538906  0.32494088  0.40160727  1  0  -0.230223  0  3.405889  0  0  -0.158835  0  3.720548  0  0  -0.168822  0  3.727724  0  -0.781029  0  -0.319035  -0.153338  0  3.71606  0
N  N90  1  0.96353750  0.69856725  0.07199094  1  0  0.497131  0  4.01656  0  0  0.561615  0  4.260787  0  0  0.585034  0  4.270532  0  0.257621  0  0.044098  0.545897  0  4.254212  0
N  N91  1  0.03646322  0.30143207  0.92801066  1  0  0.497069  0  4.016654  0  0  0.561569  0  4.260871  0  0  0.584987  0  4.270619  0  0.258048  0  0.0441  0.54585  0  4.254296  0
N  N92  1  0.27287194  0.39244365  0.32583995  1  0  0.53115  0  3.954783  0  0  0.557877  0  4.248387  0  0  0.581472  0  4.258704  0  0.207734  0  0.038493  0.541879  0  4.241957  0
N  N93  1  0.72712743  0.60755652  0.67416018  1  0  0.531152  0  3.954808  0  0  0.557882  0  4.248417  0  0  0.581477  0  4.258735  0  0.207685  0  0.038547  0.541887  0  4.241984  0
N  N94  1  0.53156564  0.46359937  0.73881151  1  0  0.53191  0  3.948126  0  0  0.55895  0  4.243278  0  0  0.582537  0  4.252899  0  0.263703  0  0.040735  0.543075  0  4.23704  0
N  N95  1  0.46843373  0.53640080  0.26118938  1  0  0.531904  0  3.948194  0  0  0.558915  0  4.243333  0  0  0.582499  0  4.252956  0  0.263674  0  0.040738  0.543039  0  4.237093  0
N  N96  1  0.52873836  0.13958282  0.01633892  1  0  0.495601  0  4.009671  0  0  0.553441  0  4.256061  0  0  0.576348  0  4.266961  0  0.245365  0  0.038975  0.537953  0  4.248828  0
N  N97  1  0.47126101  0.86041735  0.98366197  1  0  0.495601  0  4.009677  0  0  0.553424  0  4.256081  0  0  0.576331  0  4.26698  0  0.24543  0  0.03899  0.537935  0  4.248848  0
N  N98  1  0.21883277  0.77761381  0.96491761  1  0  0.529145  0  3.958902  0  0  0.555173  0  4.256315  0  0  0.578637  0  4.266397  0  0.251888  0  0.040411  0.539323  0  4.249735  0
N  N99  1  0.78116816  0.22238721  0.03508149  1  0  0.529125  0  3.958887  0  0  0.555162  0  4.256311  0  0  0.578624  0  4.266394  0  0.251897  0  0.040437  0.539314  0  4.249728  0
N  N100  1  0.22199851  0.45111677  0.75839712  1  0  0.49179  0  4.012611  0  0  0.553869  0  4.259001  0  0  0.576807  0  4.270451  0  0.252808  0  0.040483  0.538468  0  4.251171  0
N  N101  1  0.77800221  0.54888255  0.24160295  1  0  0.491754  0  4.012599  0  0  0.553878  0  4.258971  0  0  0.576817  0  4.270422  0  0.252906  0  0.040483  0.538479  0  4.251139  0
N  N102  1  0.16634551  0.84569472  0.69813184  1  0  -0.217739  0  3.39155  0  0  -0.143992  0  3.700726  0  0  -0.154415  0  3.707521  0  -0.781651  0  -0.317063  -0.137934  0  3.696664  0
N  N103  1  0.83365542  0.15430631  0.30186726  1  0  -0.21771  0  3.391482  0  0  -0.143961  0  3.700654  0  0  -0.154392  0  3.707456  0  -0.782036  0  -0.317073  -0.137905  0  3.696593  0
N  N104  1  0.05887610  0.93623391  0.74359752  1  0  -0.229334  0  3.423383  0  0  -0.153457  0  3.733355  0  0  -0.163531  0  3.737767  0  -0.749283  0  -0.32077  -0.147616  0  3.731491  0
N  N105  1  0.94112483  0.06376712  0.25640158  1  0  -0.229356  0  3.423367  0  0  -0.153488  0  3.733338  0  0  -0.163549  0  3.737735  0  -0.749273  0  -0.320775  -0.147649  0  3.731478  0
N  N106  1  0.78872174  0.19901057  0.65927633  1  0  -0.219769  0  3.39914  0  0  -0.144989  0  3.70365  0  0  -0.156254  0  3.710689  0  -0.763939  0  -0.319073  -0.138166  0  3.69927  0
N  N107  1  0.21127763  0.80098960  0.34072303  1  0  -0.21976  0  3.399171  0  0  -0.144978  0  3.703655  0  0  -0.156242  0  3.710687  0  -0.763949  0  -0.319097  -0.138169  0  3.699284  0
N  N108  1  0.73516401  0.24688941  0.56668931  1  0  -0.230154  0  3.417081  0  0  -0.155666  0  3.728307  0  0  -0.164921  0  3.733064  0  -0.785643  0  -0.317896  -0.150514  0  3.725812  0
N  N109  1  0.26483477  0.75310991  0.43331022  1  0  -0.230211  0  3.417189  0  0  -0.155698  0  3.728404  0  0  -0.164945  0  3.733154  0  -0.785632  0  -0.3179  -0.150537  0  3.725904  0
Cl  Cl110  1  0.81222410  0.95854980  0.53048338  1  0  -0.590954  0  1.317441  0  0  -0.503387  0  1.750676  0  0  -0.505162  0  1.685006  0  -0.676088  0  -0.286485  -0.503867  0  1.796178  0
Cl  Cl111  1  0.18777468  0.04144952  0.46951691  1  0  -0.590958  0  1.317445  0  0  -0.503384  0  1.750663  0  0  -0.505156  0  1.684994  0  -0.676019  0  -0.286483  -0.503864  0  1.796163  0
O  O112  1  0.06273457  0.60480658  0.06509552  1  0  -0.42955  0  1.762623  0  0  -0.430015  0  1.969733  0  0  -0.442472  0  1.963572  0  -0.513791  0  -0.216493  -0.421805  0  1.974247  0
O  O113  1  0.93726404  0.39519530  0.93490527  1  0  -0.429563  0  1.762621  0  0  -0.430035  0  1.969725  0  0  -0.442497  0  1.963565  0  -0.513833  0  -0.21652  -0.421825  0  1.974236  0
O  O114  1  0.90339351  0.75362835  0.99579082  1  0  -0.39241  0  1.751087  0  0  -0.37417  0  1.943696  0  0  -0.387714  0  1.939046  0  -0.501767  0  -0.140086  -0.365683  0  1.947314  0
O  O115  1  0.09660393  0.24637182  0.00420952  1  0  -0.392376  0  1.751196  0  0  -0.374117  0  1.943768  0  0  -0.387658  0  1.939122  0  -0.501776  0  -0.140061  -0.365633  0  1.947389  0
O  O116  1  0.27491990  0.40137223  0.22955039  1  0  -0.440932  0  1.762596  0  0  -0.430944  0  1.993949  0  0  -0.442757  0  1.987855  0  -0.486743  0  -0.218435  -0.423352  0  1.998647  0
O  O117  1  0.72508081  0.59862709  0.77044891  1  0  -0.440925  0  1.762619  0  0  -0.430948  0  1.993984  0  0  -0.442762  0  1.98789  0  -0.486727  0  -0.218441  -0.423357  0  1.998679  0
O  O118  1  0.19676751  0.47087628  0.38241414  1  0  -0.406407  0  1.753412  0  0  -0.372314  0  1.966134  0  0  -0.38528  0  1.962284  0  -0.508915  0  -0.143566  -0.364413  0  1.969351  0
O  O119  1  0.80323186  0.52912390  0.61758447  1  0  -0.406405  0  1.753453  0  0  -0.372323  0  1.966192  0  0  -0.385284  0  1.962339  0  -0.508897  0  -0.143598  -0.364433  0  1.969418  0
O  O120  1  0.45867171  0.54683438  0.68483140  1  0  -0.406566  0  1.741113  0  0  -0.37431  0  1.952113  0  0  -0.388115  0  1.949449  0  -0.502691  0  -0.144237  -0.365439  0  1.954287  0
O  O121  1  0.54132804  0.45316494  0.31516802  1  0  -0.406535  0  1.741108  0  0  -0.374286  0  1.952129  0  0  -0.388089  0  1.94946  0  -0.502692  0  -0.144238  -0.365413  0  1.954301  0
O  O122  1  0.52567013  0.46240560  0.83530884  1  0  -0.467898  0  1.762198  0  0  -0.457953  0  1.992746  0  0  -0.470312  0  1.986361  0  -0.542416  0  -0.209941  -0.449639  0  1.997231  0
O  O123  1  0.47433059  0.53759372  0.16469046  1  0  -0.467928  0  1.76223  0  0  -0.457981  0  1.992782  0  0  -0.470343  0  1.986399  0  -0.542437  0  -0.209971  -0.449671  0  1.997277  0
O  O124  1  0.42518548  0.23023712  0.02552554  1  0  -0.431412  0  1.774875  0  0  -0.4256  0  1.985726  0  0  -0.437429  0  1.979291  0  -0.50636  0  -0.219698  -0.417875  0  1.990325  0
O  O125  1  0.57481487  0.76976305  0.97447524  1  0  -0.431396  0  1.774846  0  0  -0.425574  0  1.985703  0  0  -0.437405  0  1.979268  0  -0.506347  0  -0.219693  -0.41785  0  1.990302  0
O  O126  1  0.59570955  0.08727166  0.09064649  1  0  -0.398577  0  1.769683  0  0  -0.374339  0  1.968967  0  0  -0.388629  0  1.967449  0  -0.517154  0  -0.14447  -0.365341  0  1.970458  0
O  O127  1  0.40429020  0.91272766  0.90935368  1  0  -0.398604  0  1.769752  0  0  -0.374361  0  1.969036  0  0  -0.388651  0  1.967518  0  -0.5172  0  -0.144492  -0.365364  0  1.970529  0
O  O128  1  0.15571565  0.83211554  0.04271859  1  0  -0.411908  0  1.747834  0  0  -0.379775  0  1.960753  0  0  -0.393897  0  1.95832  0  -0.511245  0  -0.146641  -0.371072  0  1.962956  0
O  O129  1  0.84428351  0.16788292  0.95728098  1  0  -0.411942  0  1.747876  0  0  -0.3798  0  1.96079  0  0  -0.393925  0  1.958359  0  -0.511288  0  -0.146675  -0.37111  0  1.963  0
O  O130  1  0.31973191  0.68462142  0.97037118  1  0  -0.454733  0  1.758321  0  0  -0.444357  0  1.988358  0  0  -0.456592  0  1.982417  0  -0.524531  0  -0.202314  -0.436538  0  1.992848  0
O  O131  1  0.68026902  0.31537961  0.02962792  1  0  -0.454698  0  1.758378  0  0  -0.444326  0  1.988423  0  0  -0.456561  0  1.982484  0  -0.524522  0  -0.202285  -0.436504  0  1.992909  0
O  O132  1  0.22434485  0.44221377  0.85439244  1  0  -0.433678  0  1.776127  0  0  -0.433881  0  1.990545  0  0  -0.446976  0  1.985891  0  -0.523936  0  -0.220179  -0.424705  0  1.993672  0
O  O133  1  0.77565587  0.55778554  0.14560762  1  0  -0.433671  0  1.776157  0  0  -0.433881  0  1.990564  0  0  -0.446984  0  1.985913  0  -0.523944  0  -0.220184  -0.42471  0  1.99369  0
O  O134  1  0.30370618  0.37603012  0.70055918  1  0  -0.402814  0  1.774131  0  0  -0.378527  0  1.975398  0  0  -0.393183  0  1.973524  0  -0.513529  0  -0.147286  -0.368845  0  1.977023  0
O  O135  1  0.69629320  0.62397005  0.29943942  1  0  -0.402831  0  1.774065  0  0  -0.378543  0  1.975307  0  0  -0.393199  0  1.973434  0  -0.513608  0  -0.1473  -0.368861  0  1.976933  0
