# generated using pymatgen
data_CoH24C24S2(N3O4)2
_symmetry_space_group_name_H-M   'P 1'
_cell_length_a   5.66271311
_cell_length_b   7.01289780
_cell_length_c   15.51285085
_cell_angle_alpha   102.33225992
_cell_angle_beta   100.91640005
_cell_angle_gamma   93.74747733
_symmetry_Int_Tables_number   1
_chemical_formula_structural   CoH24C24S2(N3O4)2
_chemical_formula_sum   'Co1 H24 C24 S2 N6 O8'
_cell_volume   587.33555388
_cell_formula_units_Z   1
loop_
 _symmetry_equiv_pos_site_id
 _symmetry_equiv_pos_as_xyz
  1  'x, y, z'
loop_
 _atom_site_type_symbol
 _atom_site_label
 _atom_site_symmetry_multiplicity
 _atom_site_fract_x
 _atom_site_fract_y
 _atom_site_fract_z
 _atom_site_occupancy
 _atom_site_hse06_10hf_ddec_charge
 _atom_site_hse06_10hf_ddec_spin_density
 _atom_site_hse06_10hf_ddec_sum_bond_order
 _atom_site_hse06_10hf_magmom
 _atom_site_hse06_ddec_charge
 _atom_site_hse06_ddec_spin_density
 _atom_site_hse06_ddec_sum_bond_order
 _atom_site_hse06_magmom
 _atom_site_pbe_cm5_charge
 _atom_site_pbe_ddec_charge
 _atom_site_pbe_ddec_spin_density
 _atom_site_pbe_ddec_sum_bond_order
 _atom_site_pbe_magmom
Co  Co0  1  0.49999932  0.50000170  0.50000084  1  0.844873  1.027246  2.451764  0.971  0.946746  1.028753  2.358981  0.974  0.568986  0.782839  1.015228  2.512455  0.958
H  H1  1  0.76266321  0.35406663  0.75007682  1  0.114944  -4.1e-05  1.021234  0.0  0.117764  -4e-05  1.020551  0.0  0.105561  0.112784  -4.3e-05  1.021994  0.0
H  H2  1  0.23733796  0.64591890  0.24991959  1  0.115007  -4.1e-05  1.02122  0.0  0.117827  -4e-05  1.020537  0.0  0.105578  0.112845  -4.3e-05  1.021981  0.0
H  H3  1  0.84969498  0.30639731  0.55575929  1  0.407052  0.000336  0.91541  0.001  0.418027  0.000498  0.900434  0.001  0.307253  0.399341  0.000138  0.923353  0.0
H  H4  1  0.15030725  0.69360601  0.44424199  1  0.407007  0.000336  0.91537  0.001  0.41798  0.000498  0.900473  0.001  0.307228  0.399299  0.000138  0.923309  0.0
H  H5  1  0.11884352  0.28579518  0.45026590  1  0.298199  -0.000319  0.950287  0.0  0.30524  -0.00023  0.945898  0.0  0.30377  0.293119  -0.000313  0.953655  0.0
H  H6  1  0.88115307  0.71420673  0.54973423  1  0.298122  -0.000319  0.950372  0.0  0.30516  -0.00023  0.945993  0.0  0.303771  0.293044  -0.000313  0.953737  0.0
H  H7  1  0.33492747  0.14970376  0.42267135  1  0.317023  -0.000334  0.943419  0.0  0.324233  -0.000232  0.938898  0.0  0.306723  0.311774  -0.000389  0.947085  0.0
H  H8  1  0.66506959  0.85030108  0.57732906  1  0.317044  -0.000334  0.943324  0.0  0.324257  -0.000232  0.938802  0.0  0.306702  0.311794  -0.000389  0.946991  0.0
H  H9  1  0.67940677  0.38785155  0.18914052  1  0.107048  -1.3e-05  1.05069  0.0  0.10921  -1.5e-05  1.0504  0.0  0.104312  0.105366  -1.8e-05  1.051157  0.0
H  H10  1  0.32058891  0.61214454  0.81086032  1  0.107032  -1.3e-05  1.050635  0.0  0.109194  -1.5e-05  1.050347  0.0  0.104302  0.10535  -1.8e-05  1.051104  0.0
H  H11  1  0.71243702  0.19475623  0.45995290  1  0.395957  -7.7e-05  0.94525  0.0  0.407744  -4.7e-05  0.928372  0.0  0.300671  0.387805  -9.2e-05  0.956903  0.0
H  H12  1  0.28756363  0.80524856  0.54004776  1  0.395941  -7.6e-05  0.945267  0.0  0.407729  -4.7e-05  0.928388  0.0  0.300685  0.38779  -9.2e-05  0.956919  0.0
H  H13  1  0.31514648  0.14910776  0.11756663  1  0.107077  -0.0  1.035129  0.0  0.110163  -7e-06  1.032886  0.0  0.104523  0.104773  2e-06  1.037  0.0
H  H14  1  0.68484988  0.85089268  0.88243335  1  0.107056  0.0  1.035119  0.0  0.110142  -7e-06  1.032876  0.0  0.104511  0.104754  2e-06  1.036985  0.0
H  H15  1  0.48091030  0.15549624  0.27909849  1  0.115802  -4e-05  1.033406  0.0  0.118122  -3.6e-05  1.034095  0.0  0.102858  0.113963  -4.5e-05  1.033288  0.0
H  H16  1  0.51908988  0.84450558  0.72090123  1  0.115856  -4e-05  1.033386  0.0  0.118176  -3.6e-05  1.034074  0.0  0.102886  0.114018  -4.5e-05  1.033269  0.0
H  H17  1  0.92488385  0.37875036  0.91432673  1  0.109247  -8e-06  1.04076  0.0  0.111929  -6e-06  1.039889  0.0  0.105806  0.10719  -1.6e-05  1.041766  0.0
H  H18  1  0.07512713  0.62122904  0.08566788  1  0.10922  -8e-06  1.040763  0.0  0.111894  -6e-06  1.039894  0.0  0.105779  0.107162  -1.6e-05  1.041768  0.0
H  H19  1  0.22855831  0.14739676  0.94260524  1  0.10643  1.9e-05  1.044915  0.0  0.110366  1.2e-05  1.041904  0.0  0.104814  0.103467  2.1e-05  1.04752  0.0
H  H20  1  0.77144774  0.85260800  0.05739707  1  0.106402  1.9e-05  1.044908  0.0  0.110338  1.3e-05  1.041897  0.0  0.1048  0.103436  2.1e-05  1.047516  0.0
H  H21  1  0.84753869  0.40234356  0.35046784  1  0.125998  -0.00017  1.04683  0.0  0.12924  -0.000171  1.04545  0.0  0.106153  0.123394  -0.000165  1.048241  0.0
H  H22  1  0.15245270  0.59764818  0.64953233  1  0.126067  -0.00017  1.046754  0.0  0.129311  -0.000171  1.045371  0.0  0.106174  0.123463  -0.000165  1.048167  0.0
H  H23  1  0.06781907  0.11139401  0.77703116  1  0.108873  6e-06  1.041339  0.0  0.111151  2e-06  1.04177  0.0  0.102852  0.107095  1.3e-05  1.041278  0.0
H  H24  1  0.93217404  0.88861981  0.22297172  1  0.108878  6e-06  1.041376  0.0  0.111154  2e-06  1.04181  0.0  0.102832  0.107105  1.3e-05  1.041302  0.0
C  C25  1  0.64874964  0.30501789  0.79220360  1  -0.07765  0.000307  3.989511  0.0  -0.07641  0.000263  4.009196  0.0  -0.082486  -0.078525  0.000429  3.976848  0.001
C  C26  1  0.35125092  0.69497507  0.20779472  1  -0.07773  0.000307  3.989537  0.0  -0.076489  0.000262  4.009223  0.0  -0.082498  -0.078604  0.000429  3.97687  0.001
C  C27  1  0.17322996  0.27652805  0.32480458  1  0.290478  -1.6e-05  3.967048  0.0  0.300353  0.00042  3.98909  0.001  0.095064  0.283317  -0.000546  3.953078  0.0
C  C28  1  0.82677179  0.72347231  0.67519576  1  0.290554  -1.6e-05  3.966957  0.0  0.300432  0.000419  3.988996  0.001  0.09509  0.283393  -0.000546  3.952989  0.0
C  C29  1  0.85402312  0.33658563  0.20953545  1  -0.12134  0.000519  3.96997  0.001  -0.121383  0.00072  3.992854  0.001  -0.080599  -0.120986  0.000346  3.954232  0.0
C  C30  1  0.14597279  0.66341190  0.79046488  1  -0.121305  0.000519  3.969948  0.001  -0.12135  0.000719  3.992835  0.001  -0.080614  -0.120948  0.000346  3.954209  0.0
C  C31  1  0.40793006  0.22721296  0.75467173  1  -0.100481  0.0012  3.994006  0.002  -0.108631  0.00088  4.014997  0.001  -0.017795  -0.095631  0.001544  3.980408  0.002
C  C32  1  0.59206630  0.77278748  0.24532825  1  -0.100473  0.001199  3.994027  0.002  -0.108623  0.00088  4.015022  0.001  -0.017831  -0.09562  0.001544  3.980426  0.002
C  C33  1  0.58911376  0.25574824  0.93652402  1  0.171256  0.000402  4.052691  0.001  0.173572  0.000361  4.075383  0.001  0.091343  0.170042  0.000485  4.036966  0.001
C  C34  1  0.41088796  0.74425202  0.06347438  1  0.171257  0.000402  4.052774  0.001  0.173574  0.000361  4.075467  0.001  0.091404  0.170042  0.000485  4.037045  0.001
C  C35  1  0.21246362  0.20090612  0.16910418  1  -0.117559  0.00048  3.945413  0.001  -0.118565  0.00067  3.968313  0.001  -0.07363  -0.116751  0.000357  3.929877  0.001
C  C36  1  0.78753657  0.79909573  0.83089618  1  -0.117656  0.00048  3.945433  0.001  -0.118663  0.000668  3.968335  0.001  -0.073724  -0.116845  0.000357  3.929894  0.001
C  C37  1  0.30599137  0.20650220  0.25935831  1  -0.158618  -0.002447  3.935038  -0.001  -0.165665  -0.00249  3.957698  -0.001  -0.089146  -0.154041  -0.002287  3.920284  -0.001
C  C38  1  0.69400928  0.79350259  0.74064235  1  -0.158594  -0.002448  3.934963  -0.001  -0.16564  -0.002488  3.957622  -0.001  -0.08907  -0.154019  -0.002287  3.920211  -0.001
C  C39  1  0.73918049  0.31844659  0.88306935  1  -0.136247  -0.000621  3.940865  0.0  -0.14067  -0.000683  3.962684  0.0  -0.079846  -0.133476  -0.000639  3.926404  0.0
C  C40  1  0.26082520  0.68154473  0.11692724  1  -0.136169  -0.000621  3.940816  0.0  -0.140586  -0.00068  3.962631  0.0  -0.079824  -0.133398  -0.000639  3.926354  0.0
C  C41  1  0.98331879  0.26177001  0.14326731  1  0.139912  -0.002105  4.081683  -0.001  0.135237  -0.002059  4.108874  -0.001  0.082415  0.143312  -0.001982  4.062698  -0.001
C  C42  1  0.01668162  0.73823328  0.85673256  1  0.139886  -0.002106  4.081713  -0.001  0.135215  -0.002054  4.108896  -0.001  0.082428  0.143288  -0.001982  4.062729  -0.001
C  C43  1  0.34472218  0.18778767  0.89928836  1  -0.128781  -0.000587  3.919652  0.0  -0.133775  -0.00063  3.940658  0.0  -0.077074  -0.125649  -0.000512  3.905682  0.0
C  C44  1  0.65528206  0.81221706  0.10071253  1  -0.128784  -0.000588  3.919649  0.0  -0.133777  -0.00063  3.940652  0.0  -0.077119  -0.125649  -0.000512  3.905677  0.0
C  C45  1  0.94901416  0.34446597  0.29951347  1  -0.188999  -0.002113  3.968565  -0.001  -0.19631  -0.002188  3.989545  -0.001  -0.097981  -0.184175  -0.001903  3.954983  -0.001
C  C46  1  0.05098353  0.65553151  0.70048634  1  -0.189059  -0.002114  3.968516  -0.001  -0.196369  -0.002186  3.989492  -0.001  -0.097994  -0.184233  -0.001903  3.954934  -0.001
C  C47  1  0.25498807  0.16943659  0.80755654  1  -0.084041  0.000713  3.991258  0.001  -0.083008  0.000579  4.013183  0.001  -0.085969  -0.084479  0.000868  3.976569  0.001
C  C48  1  0.74501127  0.83057119  0.19244494  1  -0.083998  0.000713  3.991264  0.001  -0.082965  0.000579  4.013193  0.001  -0.085894  -0.084436  0.000868  3.976577  0.001
S  S49  1  0.30109921  0.19980289  0.63725830  1  1.217967  0.002785  6.104487  0.004  1.268537  0.002033  6.077855  0.004  0.523572  1.183587  0.003476  6.1211  0.005
S  S50  1  0.69889762  0.80020048  0.36274197  1  1.217783  0.002785  6.104803  0.004  1.268352  0.002033  6.078178  0.004  0.523484  1.183396  0.003476  6.121421  0.005
N  N51  1  0.26191829  0.27883247  0.41808711  1  -0.597323  -0.013469  3.436112  -0.01  -0.632555  -0.011583  3.434361  -0.009  -0.602796  -0.574595  -0.013066  3.43853  -0.01
N  N52  1  0.73808347  0.72116791  0.58191388  1  -0.597312  -0.01347  3.436112  -0.01  -0.632549  -0.011583  3.434363  -0.009  -0.602796  -0.574583  -0.013066  3.438531  -0.01
N  N53  1  0.67130651  0.25808035  0.02836894  1  -0.128565  -0.001265  3.269953  -0.001  -0.129651  -0.001656  3.278164  -0.001  -0.145309  -0.127878  -0.001105  3.264402  -0.001
N  N54  1  0.32869880  0.74191986  0.97162969  1  -0.128648  -0.001265  3.269994  -0.001  -0.129735  -0.001657  3.278206  -0.001  -0.145353  -0.127963  -0.001106  3.264446  -0.001
N  N55  1  0.89737395  0.24793570  0.05057130  1  -0.121163  0.000548  3.286184  0.001  -0.118138  0.00062  3.293494  0.001  -0.144564  -0.123139  0.000555  3.281284  0.001
N  N56  1  0.10262983  0.75206612  0.94942996  1  -0.121065  0.000548  3.286113  0.001  -0.118041  0.00062  3.293425  0.001  -0.144523  -0.123042  0.000554  3.281217  0.001
O  O57  1  0.40073341  0.02331551  0.59291689  1  -0.620951  -0.000342  2.255827  0.0  -0.642539  -0.000299  2.239649  0.0  -0.338323  -0.605767  -0.00041  2.266587  0.0
O  O58  1  0.59926744  0.97669063  0.40708132  1  -0.620895  -0.000342  2.255928  0.0  -0.642482  -0.000299  2.239749  0.0  -0.338278  -0.605712  -0.00041  2.26669  0.0
O  O59  1  0.03529143  0.17425008  0.62068966  1  -0.608892  0.000448  2.194286  0.001  -0.62841  0.000388  2.178709  0.001  -0.336958  -0.595218  0.000563  2.204232  0.001
O  O60  1  0.96470468  0.82574883  0.37930888  1  -0.608896  0.000448  2.194494  0.001  -0.628403  0.000388  2.178905  0.001  -0.336982  -0.595221  0.000563  2.204439  0.001
O  O61  1  0.40292438  0.37818234  0.61572354  1  -0.62301  0.012909  2.359732  0.017  -0.651584  0.011496  2.342448  0.015  -0.323211  -0.603049  0.014286  2.370658  0.019
O  O62  1  0.59707114  0.62182406  0.38427820  1  -0.622907  0.012909  2.359651  0.017  -0.651482  0.011495  2.342371  0.015  -0.323174  -0.602943  0.014286  2.370576  0.019
O  O63  1  0.76842507  0.33204862  0.49715651  1  -0.742125  -0.010326  2.234343  -0.008  -0.777015  -0.010949  2.198505  -0.008  -0.556496  -0.718441  -0.007163  2.256558  -0.006
O  O64  1  0.23157513  0.66795329  0.50284515  1  -0.742012  -0.010326  2.234268  -0.008  -0.776904  -0.010949  2.198499  -0.008  -0.556473  -0.71833  -0.007163  2.256479  -0.006
