# generated using pymatgen
data_AlH5C18O8F3
_symmetry_space_group_name_H-M   'P 1'
_cell_length_a   6.67080667
_cell_length_b   21.92251930
_cell_length_c   25.01022030
_cell_angle_alpha   96.58929857
_cell_angle_beta   90.00019297
_cell_angle_gamma   89.99850125
_symmetry_Int_Tables_number   1
_chemical_formula_structural   AlH5C18O8F3
_chemical_formula_sum   'Al4 H20 C72 O32 F12'
_cell_volume   3633.35605474
_cell_formula_units_Z   4
loop_
 _symmetry_equiv_pos_site_id
 _symmetry_equiv_pos_as_xyz
  1  'x, y, z'
loop_
 _atom_site_type_symbol
 _atom_site_label
 _atom_site_symmetry_multiplicity
 _atom_site_fract_x
 _atom_site_fract_y
 _atom_site_fract_z
 _atom_site_occupancy
 _atom_site_pbe_bader_charge
 _atom_site_pbe_bader_spin_density
 _atom_site_pbe_cm5_charge
 _atom_site_pbe_ddec_charge
 _atom_site_pbe_ddec_spin_density
 _atom_site_pbe_ddec_sum_bond_order
 _atom_site_pbe_magmom
Al  Al0  1  0.20185933  0.75078119  0.75192392  1  2.504819  0  0.403974  1.645332  0  2.577762  0
Al  Al1  1  0.79914898  0.24930952  0.24801181  1  2.501818  0  0.404559  1.6483  0  2.577716  0
Al  Al2  1  0.70185737  0.74922131  0.74807568  1  2.504848  0  0.403943  1.645404  0  2.577543  0
Al  Al3  1  0.29914944  0.25069365  0.25198571  1  2.501786  0  0.404565  1.648451  0  2.577131  0
H  H4  1  0.71909308  0.09760254  0.45949230  1  0.12611  0  0.121295  0.154284  0  0.970116  0
H  H5  1  0.27947484  0.89985277  0.53840424  1  0.140339  0  0.124788  0.158959  0  0.962669  0
H  H6  1  0.21910926  0.40241830  0.04050648  1  0.125995  0  0.121316  0.154318  0  0.970098  0
H  H7  1  0.77948245  0.60015982  0.96160065  1  0.140206  0  0.124896  0.159064  0  0.962613  0
H  H8  1  0.21268964  0.09175909  0.91348632  1  0.076566  0  0.108639  0.045832  0  0.944128  0
H  H9  1  0.68241372  0.91158480  0.07403111  1  0.110746  0  0.113145  0.052569  0  0.967832  0
H  H10  1  0.71270939  0.40826171  0.58653022  1  0.07618  0  0.10871  0.045919  0  0.944235  0
H  H11  1  0.18229997  0.58841389  0.42598733  1  0.110116  0  0.113054  0.052495  0  0.967893  0
H  H12  1  0.77823536  0.10735434  0.92993683  1  0.081458  0  0.107521  0.045011  0  0.946636  0
H  H13  1  0.32939044  0.91134504  0.07145908  1  0.083199  0  0.113064  0.051759  0  0.972269  0
H  H14  1  0.27826625  0.39264292  0.57007802  1  0.081366  0  0.107566  0.045031  0  0.946718  0
H  H15  1  0.82933867  0.58865481  0.42854530  1  0.083114  0  0.113049  0.051732  0  0.972143  0
H  H16  1  0.36174063  0.95569854  0.90618520  1  0.120294  0  0.117471  0.064862  0  0.952367  0
H  H17  1  0.63511243  0.10288446  0.04665210  1  0.077962  0  0.116777  0.063184  0  0.954116  0
H  H18  1  0.86178897  0.54427942  0.59381072  1  0.120431  0  0.117492  0.064866  0  0.952263  0
H  H19  1  0.13514471  0.39709992  0.45335256  1  0.077743  0  0.116781  0.063196  0  0.954197  0
H  H20  1  0.45170587  0.82429037  0.73234143  1  0.632641  0  0.354786  0.435606  0  0.847527  0
H  H21  1  0.54871640  0.17246074  0.26059048  1  0.636008  0  0.360337  0.444492  0  0.833709  0
H  H22  1  0.95171951  0.67570955  0.76765338  1  0.63253  0  0.354831  0.435545  0  0.847573  0
H  H23  1  0.04870257  0.32753983  0.23939975  1  0.636044  0  0.360267  0.444332  0  0.83398  0
C  C24  1  0.44569485  0.67147064  0.67373783  1  1.685716  0  0.275799  0.707399  0  4.176023  0
C  C25  1  0.55510965  0.32718203  0.32727101  1  1.696568  0  0.278385  0.712931  0  4.163728  0
C  C26  1  0.94570650  0.82852729  0.82626260  1  1.685705  0  0.275826  0.707479  0  4.176037  0
C  C27  1  0.05511587  0.17282205  0.17272567  1  1.696754  0  0.278445  0.712931  0  4.163888  0
C  C28  1  0.45471516  0.68310415  0.82015891  1  1.642767  0  0.277313  0.689023  0  4.080144  0
C  C29  1  0.54596778  0.31881086  0.18133059  1  1.645706  0  0.277858  0.69015  0  4.077375  0
C  C30  1  0.95469450  0.81688986  0.67983266  1  1.642535  0  0.277313  0.689168  0  4.079637  0
C  C31  1  0.04599758  0.18119496  0.31866851  1  1.645476  0  0.278027  0.690397  0  4.077254  0
C  C32  1  0.18669848  0.06098244  0.41117072  1  0.565777  0  0.095535  0.111024  0  4.044213  0
C  C33  1  0.81436085  0.93768200  0.58796265  1  0.562016  0  0.093886  0.109732  0  4.045547  0
C  C34  1  0.68669461  0.43902232  0.08883604  1  0.574417  0  0.095567  0.110994  0  4.043922  0
C  C35  1  0.31440659  0.56230703  0.91202405  1  0.561601  0  0.093914  0.109618  0  4.046132  0
C  C36  1  0.19647945  0.10039566  0.37138448  1  0.536111  0  0.108982  0.193834  0  4.067329  0
C  C37  1  0.80436103  0.89794191  0.62746805  1  0.524937  0  0.107625  0.190743  0  4.07067  0
C  C38  1  0.69647499  0.39960837  0.12862430  1  0.536062  0  0.109023  0.193879  0  4.067943  0
C  C39  1  0.30441183  0.60204472  0.87251703  1  0.526146  0  0.107669  0.190864  0  4.07031  0
C  C40  1  0.03722858  0.13991510  0.36221842  1  0.066624  0  -0.021266  -0.244547  0  3.942312  0
C  C41  1  0.96305426  0.85808189  0.63628805  1  0.087738  0  -0.021897  -0.243684  0  3.942234  0
C  C42  1  0.53722765  0.36009256  0.13778391  1  0.067321  0  -0.021332  -0.244632  0  3.942575  0
C  C43  1  0.46308801  0.64190891  0.86370028  1  0.0881  0  -0.021793  -0.243307  0  3.941749  0
C  C44  1  0.86822585  0.13729420  0.39585763  1  0.458037  0  0.111257  0.296335  0  4.063307  0
C  C45  1  0.13162076  0.86056511  0.60244676  1  0.470957  0  0.114358  0.298984  0  4.057452  0
C  C46  1  0.36823127  0.36271480  0.10413630  1  0.457641  0  0.111411  0.296383  0  4.063314  0
C  C47  1  0.63164216  0.63943353  0.89754678  1  0.470232  0  0.114326  0.298736  0  4.057438  0
C  C48  1  0.85422200  0.09801992  0.43518980  1  0.074308  0  -0.090914  -0.253182  0  3.948611  0
C  C49  1  0.14536378  0.89994172  0.56317010  1  0.04465  0  -0.087607  -0.248503  0  3.937769  0
C  C50  1  0.35423252  0.40198986  0.06480574  1  0.07467  0  -0.091014  -0.2533  0  3.948959  0
C  C51  1  0.64537258  0.60006259  0.93682951  1  0.044496  0  -0.087715  -0.248588  0  3.937821  0
C  C52  1  0.01516182  0.05848064  0.44346502  1  0.177728  0  0.003467  0.085316  0  4.152953  0
C  C53  1  0.98519296  0.93993101  0.55537813  1  0.180214  0  0.00356  0.083989  0  4.154407  0
C  C54  1  0.51517831  0.44152446  0.05653367  1  0.168196  0  0.00338  0.085238  0  4.153195  0
C  C55  1  0.48521982  0.56006651  0.94461787  1  0.180556  0  0.003588  0.084029  0  4.154672  0
C  C56  1  0.00533745  0.01725503  0.48268237  1  -0.056732  0  -0.028117  -0.065719  0  4.076311  0
C  C57  1  0.99506679  0.98134745  0.51634656  1  -0.253044  0  -0.027111  -0.063505  0  4.07641  0
C  C58  1  0.50537687  0.48274762  0.01731430  1  -0.055833  0  -0.027877  -0.065373  0  4.076645  0
C  C59  1  0.49510671  0.51864964  0.98365025  1  -0.254148  0  -0.027226  -0.063633  0  4.076658  0
C  C60  1  0.89152979  0.02461199  0.96167598  1  -0.011771  0  0.011116  -0.026355  0  3.634372  0
C  C61  1  0.11079625  0.97428955  0.03826369  1  0.00049  0  0.019152  -0.00978  0  3.577454  0
C  C62  1  0.39153363  0.47538255  0.53832801  1  -0.011597  0  0.011018  -0.026445  0  3.634279  0
C  C63  1  0.61077433  0.52570721  0.46173864  1  0.000524  0  0.019155  -0.00988  0  3.577602  0
C  C64  1  0.10564201  0.04645937  0.98204397  1  -0.037036  0  0.012423  -0.027675  0  3.634716  0
C  C65  1  0.88938353  0.95346680  0.01877218  1  0.004628  0  0.019199  -0.010647  0  3.584987  0
C  C66  1  0.60564649  0.45353981  0.51796081  1  -0.037006  0  0.012422  -0.027532  0  3.634993  0
C  C67  1  0.38934306  0.54651970  0.48122774  1  0.004801  0  0.019305  -0.010907  0  3.585114  0
C  C68  1  0.06369965  0.12871537  0.12523785  1  0.225708  0  -0.014995  -0.142884  0  3.899082  0
C  C69  1  0.93685590  0.87216473  0.87404836  1  0.227156  0  -0.016405  -0.144826  0  3.903585  0
C  C70  1  0.56370370  0.37129143  0.37475925  1  0.225885  0  -0.015124  -0.14307  0  3.899067  0
C  C71  1  0.43683245  0.62783348  0.62595368  1  0.226588  0  -0.016341  -0.14485  0  3.903566  0
C  C72  1  0.82460112  0.02188466  0.02288221  1  -0.031896  0  0.014989  -0.022152  0  3.620299  0
C  C73  1  0.17422016  0.97594886  0.97874628  1  -0.026232  0  0.015099  -0.021797  0  3.620573  0
C  C74  1  0.32459220  0.47810735  0.47711889  1  -0.032042  0  0.015018  -0.022071  0  3.620703  0
C  C75  1  0.67418839  0.52404762  0.52125813  1  -0.026262  0  0.015031  -0.022061  0  3.620764  0
C  C76  1  0.04293769  0.04401469  0.04248892  1  0.137357  0  0.033476  0.096266  0  3.77138  0
C  C77  1  0.95599145  0.95511843  0.95813353  1  0.124388  0  0.032829  0.095671  0  3.771832  0
C  C78  1  0.54293994  0.45597746  0.45751738  1  0.137392  0  0.033518  0.096373  0  3.771625  0
C  C79  1  0.45596213  0.54487821  0.54186810  1  0.124647  0  0.032974  0.095943  0  3.771938  0
C  C80  1  0.07008713  0.08964312  0.08663378  1  -0.427353  0  -0.02697  -0.039553  0  4.07479  0
C  C81  1  0.92956605  0.90974044  0.91372450  1  -0.414609  0  -0.025928  -0.037038  0  4.07352  0
C  C82  1  0.57010477  0.41035866  0.41336732  1  -0.427445  0  -0.026884  -0.039427  0  4.075026  0
C  C83  1  0.42952137  0.59025894  0.58627553  1  -0.41408  0  -0.02609  -0.037084  0  4.073585  0
C  C84  1  0.23111496  0.09214732  0.95801466  1  0.940386  0  0.104976  0.272457  0  3.969122  0
C  C85  1  0.79168565  0.90012367  0.04085548  1  0.980824  0  0.110252  0.292506  0  3.944776  0
C  C86  1  0.73111170  0.40785563  0.54199900  1  0.942017  0  0.104895  0.272337  0  3.969204  0
C  C87  1  0.29165677  0.59986831  0.45914203  1  0.980979  0  0.11038  0.292876  0  3.94426  0
C  C88  1  0.76576979  0.05610548  0.92424933  1  0.949256  0  0.103784  0.26951  0  3.971615  0
C  C89  1  0.20862854  0.94517907  0.08299347  1  1.018816  0  0.111557  0.295303  0  3.935073  0
C  C90  1  0.26577532  0.44389258  0.57575667  1  0.949089  0  0.103714  0.269423  0  3.971498  0
C  C91  1  0.70860354  0.55481520  0.41700967  1  1.018639  0  0.111637  0.295582  0  3.935164  0
C  C92  1  0.35652284  0.95106367  0.95002947  1  0.944705  0  0.115665  0.283139  0  3.917618  0
C  C93  1  0.64358736  0.05238570  0.04797349  1  0.999479  0  0.115309  0.285339  0  3.922398  0
C  C94  1  0.85648329  0.54894896  0.54997341  1  0.944146  0  0.115817  0.283243  0  3.917077  0
C  C95  1  0.14357328  0.44759917  0.45204647  1  0.99883  0  0.115082  0.285062  0  3.922947  0
O  O96  1  0.62128952  0.69627916  0.79985540  1  -1.253322  0  -0.227892  -0.590388  0  2.364898  0
O  O97  1  0.37957481  0.30552080  0.20165136  1  -1.248182  0  -0.22828  -0.589089  0  2.359638  0
O  O98  1  0.12126076  0.80372048  0.70014176  1  -1.25319  0  -0.22786  -0.590301  0  2.364809  0
O  O99  1  0.87958722  0.19448345  0.29834537  1  -1.248059  0  -0.228323  -0.589125  0  2.359382  0
O  O100  1  0.27826324  0.68808466  0.69482462  1  -1.234259  0  -0.225254  -0.573999  0  2.292346  0
O  O101  1  0.72252927  0.31056654  0.30620876  1  -1.228523  0  -0.224455  -0.574993  0  2.289035  0
O  O102  1  0.77826556  0.81191962  0.80517581  1  -1.234082  0  -0.225267  -0.574011  0  2.292165  0
O  O103  1  0.22251932  0.18943337  0.19378713  1  -1.22896  0  -0.22448  -0.574973  0  2.289233  0
O  O104  1  0.28330175  0.70085435  0.80624677  1  -1.236795  0  -0.22705  -0.582525  0  2.339961  0
O  O105  1  0.71773797  0.30102206  0.19496178  1  -1.239862  0  -0.228626  -0.585187  0  2.339563  0
O  O106  1  0.78327381  0.79913848  0.69374637  1  -1.236777  0  -0.227093  -0.582656  0  2.339577  0
O  O107  1  0.21775256  0.19898052  0.30503694  1  -1.239747  0  -0.228668  -0.585339  0  2.33988  0
O  O108  1  0.12031667  0.81221686  0.80976108  1  -1.226627  0  -0.227588  -0.57673  0  2.275537  0
O  O109  1  0.88063760  0.18954624  0.18896686  1  -1.221102  0  -0.226851  -0.577143  0  2.27332  0
O  O110  1  0.62031331  0.68777812  0.69023888  1  -1.226463  0  -0.227564  -0.57667  0  2.275301  0
O  O111  1  0.38064112  0.31045638  0.31103148  1  -1.221263  0  -0.226799  -0.577098  0  2.273432  0
O  O112  1  0.45253658  0.78697722  0.74977505  1  -1.430831  0  -0.445704  -0.990377  0  2.1852  0
O  O113  1  0.54848072  0.21314902  0.24895513  1  -1.433442  0  -0.446694  -0.997785  0  2.189394  0
O  O114  1  0.95254228  0.71302776  0.75022742  1  -1.430741  0  -0.445814  -0.990344  0  2.18535  0
O  O115  1  0.04847204  0.28685420  0.25104155  1  -1.43349  0  -0.446589  -0.997583  0  2.189623  0
O  O116  1  0.35130449  0.12650840  0.98304699  1  -1.051729  0  -0.246284  -0.339717  0  2.138731  0
O  O117  1  0.83875859  0.84750883  0.02462136  1  -1.052677  0  -0.250088  -0.328204  0  2.078984  0
O  O118  1  0.85127241  0.37347677  0.51697064  1  -1.053137  0  -0.24633  -0.339785  0  2.138471  0
O  O119  1  0.33884079  0.65248005  0.47535443  1  -1.052128  0  -0.250147  -0.328339  0  2.078701  0
O  O120  1  0.65173802  0.03014545  0.89079175  1  -1.061087  0  -0.246026  -0.337826  0  2.137044  0
O  O121  1  0.14962646  0.95692858  0.12917171  1  -1.057781  0  -0.249169  -0.327761  0  2.077138  0
O  O122  1  0.15172373  0.46985615  0.60920982  1  -1.060851  0  -0.24596  -0.337724  0  2.136922  0
O  O123  1  0.64963638  0.54305419  0.37083058  1  -1.057763  0  -0.249225  -0.327922  0  2.077395  0
O  O124  1  0.49256008  0.92612431  0.97200294  1  -1.057585  0  -0.219998  -0.314415  0  2.20628  0
O  O125  1  0.51279340  0.02515070  0.06986421  1  -1.068653  0  -0.221464  -0.317489  0  2.203519  0
O  O126  1  0.99240716  0.57393832  0.52800337  1  -1.05747  0  -0.2202  -0.314448  0  2.205949  0
O  O127  1  0.01269874  0.47483921  0.43018753  1  -1.067784  0  -0.221209  -0.317267  0  2.203968  0
F  F128  1  0.34546202  0.02434017  0.41809805  1  -0.621658  0  -0.09011  -0.110961  0  1.365611  0
F  F129  1  0.65652521  0.97500374  0.58168882  1  -0.618807  0  -0.093571  -0.11527  0  1.363368  0
F  F130  1  0.84546838  0.47567145  0.08191521  1  -0.62126  0  -0.090167  -0.111022  0  1.365229  0
F  F131  1  0.15659675  0.52497751  0.91828776  1  -0.618492  0  -0.093617  -0.115269  0  1.363672  0
F  F132  1  0.36323282  0.09777117  0.34087423  1  -0.609581  0  -0.077914  -0.097943  0  1.390268  0
F  F133  1  0.63804088  0.90081103  0.65834492  1  -0.617255  0  -0.081228  -0.103437  0  1.389858  0
F  F134  1  0.86320753  0.40223027  0.15913175  1  -0.609748  0  -0.077826  -0.097814  0  1.390727  0
F  F135  1  0.13809755  0.59916733  0.84163286  1  -0.617984  0  -0.081355  -0.103615  0  1.389664  0
F  F136  1  0.71170337  0.17557820  0.39112021  1  -0.620767  0  -0.086548  -0.121361  0  1.359299  0
F  F137  1  0.28776548  0.82222248  0.60707735  1  -0.615735  0  -0.082304  -0.11575  0  1.356079  0
F  F138  1  0.21170916  0.32442311  0.10886803  1  -0.620485  0  -0.086613  -0.121373  0  1.359191  0
F  F139  1  0.78776852  0.67777710  0.89291904  1  -0.615582  0  -0.082325  -0.115703  0  1.356233  0
