# generated using pymatgen
data_SmP2H17C16O11
_symmetry_space_group_name_H-M   'P 1'
_cell_length_a   5.60987931
_cell_length_b   9.38576251
_cell_length_c   18.35823300
_cell_angle_alpha   104.96539957
_cell_angle_beta   91.76689017
_cell_angle_gamma   96.38368963
_symmetry_Int_Tables_number   1
_chemical_formula_structural   SmP2H17C16O11
_chemical_formula_sum   'Sm2 P4 H34 C32 O22'
_cell_volume   926.25351737
_cell_formula_units_Z   2
loop_
 _symmetry_equiv_pos_site_id
 _symmetry_equiv_pos_as_xyz
  1  'x, y, z'
loop_
 _atom_site_type_symbol
 _atom_site_label
 _atom_site_symmetry_multiplicity
 _atom_site_fract_x
 _atom_site_fract_y
 _atom_site_fract_z
 _atom_site_occupancy
 _atom_site_hle17_bader_spin_density
 _atom_site_hle17_ddec_charge
 _atom_site_hle17_ddec_spin_density
 _atom_site_hle17_ddec_sum_bond_order
 _atom_site_hle17_magmom
 _atom_site_hse06_10hf_bader_spin_density
 _atom_site_hse06_10hf_ddec_charge
 _atom_site_hse06_10hf_ddec_spin_density
 _atom_site_hse06_10hf_ddec_sum_bond_order
 _atom_site_hse06_10hf_magmom
 _atom_site_hse06_bader_spin_density
 _atom_site_hse06_ddec_charge
 _atom_site_hse06_ddec_spin_density
 _atom_site_hse06_ddec_sum_bond_order
 _atom_site_hse06_magmom
 _atom_site_pbe_bader_spin_density
 _atom_site_pbe_cm5_charge
 _atom_site_pbe_ddec_charge
 _atom_site_pbe_ddec_spin_density
 _atom_site_pbe_ddec_sum_bond_order
 _atom_site_pbe_magmom
Sm  Sm0  1  0.12078707  0.80454161  0.00289348  1  0  2.399494  0  1.630463  0  0  2.316884  0  1.981703  0  0  2.353627  0  1.939729  0  0  1.578124  2.240472  0  2.100875  0
Sm  Sm1  1  0.87921639  0.19546973  0.99711016  1  0  2.399489  0  1.630596  0  0  2.316873  0  1.981833  0  0  2.353614  0  1.939862  0  0  1.578119  2.240422  0  2.101065  0
P  P2  1  0.38404669  0.10033256  0.10731635  1  0  1.555224  0  4.827215  0  0  1.401803  0  5.345542  0  0  1.451293  0  5.302205  0  0  0.329255  1.369398  0  5.361557  0
P  P3  1  0.61595334  0.89967100  0.89268514  1  0  1.555226  0  4.827041  0  0  1.401817  0  5.345353  0  0  1.451276  0  5.302101  0  0  0.329298  1.369421  0  5.361361  0
P  P4  1  0.25832457  0.53310410  0.10717805  1  0  1.589005  0  4.710356  0  0  1.444407  0  5.207546  0  0  1.493234  0  5.166224  0  0  0.386807  1.410625  0  5.230946  0
P  P5  1  0.74167501  0.46689723  0.89282206  1  0  1.588919  0  4.7106  0  0  1.444328  0  5.207809  0  0  1.493158  0  5.166483  0  0  0.386757  1.410539  0  5.231217  0
H  H6  1  0.59759979  0.14521741  0.31822899  1  0  0.094586  0  0.990912  0  0  0.101848  0  1.060097  0  0  0.105016  0  1.058824  0  0  0.098004  0.099773  0  1.060859  0
H  H7  1  0.40238609  0.85476175  0.68176752  1  0  0.094486  0  0.990918  0  0  0.101757  0  1.060104  0  0  0.104915  0  1.058849  0  0  0.09799  0.099692  0  1.060839  0
H  H8  1  0.47775980  0.00555458  0.41036101  1  0  0.11785  0  0.944068  0  0  0.126968  0  1.004206  0  0  0.130799  0  1.000964  0  0  0.112152  0.124378  0  1.00628  0
H  H9  1  0.52222688  0.99441120  0.58962941  1  0  0.117828  0  0.944001  0  0  0.126926  0  1.004208  0  0  0.130764  0  1.00097  0  0  0.112107  0.124328  0  1.00629  0
H  H10  1  0.77184329  0.88190083  0.29890033  1  0  0.090545  0  0.955765  0  0  0.101041  0  1.019501  0  0  0.103853  0  1.017764  0  0  0.103646  0.099061  0  1.021017  0
H  H11  1  0.22812185  0.11809736  0.70109405  1  0  0.090617  0  0.955962  0  0  0.101088  0  1.019692  0  0  0.103902  0  1.01795  0  0  0.103661  0.09911  0  1.021209  0
H  H12  1  0.88825069  0.02549663  0.20647759  1  0  0.101073  0  0.945102  0  0  0.115172  0  0.999448  0  0  0.118235  0  0.998583  0  0  0.105473  0.113019  0  1.000299  0
H  H13  1  0.11173105  0.97451260  0.79352061  1  0  0.101004  0  0.945186  0  0  0.115124  0  0.999514  0  0  0.118189  0  0.998646  0  0  0.105446  0.112969  0  1.00037  0
H  H14  1  0.49781439  0.26224891  0.22803480  1  0  0.138486  0  0.949738  0  0  0.152615  0  1.006167  0  0  0.154372  0  1.006837  0  0  0.111224  0.15126  0  1.006377  0
H  H15  1  0.50219014  0.73775131  0.77197121  1  0  0.138511  0  0.949718  0  0  0.152629  0  1.006141  0  0  0.154377  0  1.006823  0  0  0.111245  0.151278  0  1.006347  0
H  H16  1  0.19620666  0.26684518  0.19961373  1  0  0.151981  0  0.95131  0  0  0.164538  0  1.008437  0  0  0.166475  0  1.009774  0  0  0.116192  0.162721  0  1.008752  0
H  H17  1  0.80379854  0.73316615  0.80039156  1  0  0.151978  0  0.951316  0  0  0.164522  0  1.008492  0  0  0.166432  0  1.009857  0  0  0.116176  0.162706  0  1.008816  0
H  H18  1  0.52721989  0.65321475  0.31265638  1  0  0.103083  0  0.961839  0  0  0.110606  0  1.029305  0  0  0.11411  0  1.027684  0  0  0.100754  0.10821  0  1.030674  0
H  H19  1  0.47278565  0.34679768  0.68734525  1  0  0.103131  0  0.961877  0  0  0.110712  0  1.029259  0  0  0.114215  0  1.02764  0  0  0.100787  0.108317  0  1.030629  0
H  H20  1  0.47217283  0.52050275  0.41259325  1  0  0.113995  0  0.955541  0  0  0.122954  0  1.017411  0  0  0.126519  0  1.014473  0  0  0.110494  0.120558  0  1.019338  0
H  H21  1  0.52784092  0.47950628  0.58740694  1  0  0.114074  0  0.955428  0  0  0.122945  0  1.017393  0  0  0.126489  0  1.014487  0  0  0.110535  0.120549  0  1.019316  0
H  H22  1  0.74735817  0.35722401  0.32551572  1  0  0.08643  0  0.988553  0  0  0.095573  0  1.056438  0  0  0.098404  0  1.054417  0  0  0.102094  0.093571  0  1.058014  0
H  H23  1  0.25266337  0.64277161  0.67448336  1  0  0.086494  0  0.988425  0  0  0.095622  0  1.056358  0  0  0.098496  0  1.054231  0  0  0.102079  0.093593  0  1.057959  0
H  H24  1  0.80160672  0.48502422  0.22259133  1  0  0.103225  0  0.962698  0  0  0.113206  0  1.025113  0  0  0.116246  0  1.024005  0  0  0.101886  0.111058  0  1.025911  0
H  H25  1  0.19839897  0.51496371  0.77740383  1  0  0.103278  0  0.96266  0  0  0.113256  0  1.025064  0  0  0.116293  0  1.023958  0  0  0.10193  0.111109  0  1.025862  0
H  H26  1  0.34302345  0.74615165  0.21224543  1  0  0.149304  0  0.924915  0  0  0.164452  0  0.977101  0  0  0.166621  0  0.977634  0  0  0.114531  0.162547  0  0.977578  0
H  H27  1  0.65697426  0.25385748  0.78775513  1  0  0.149376  0  0.924855  0  0  0.164528  0  0.977045  0  0  0.166697  0  0.977576  0  0  0.11456  0.162621  0  0.977524  0
H  H28  1  0.03299304  0.69817780  0.18674221  1  0  0.142447  0  0.956139  0  0  0.155893  0  1.015207  0  0  0.158273  0  1.014928  0  0  0.114394  0.154078  0  1.015816  0
H  H29  1  0.96700523  0.30182576  0.81325817  1  0  0.142456  0  0.956175  0  0  0.155909  0  1.015244  0  0  0.158288  0  1.014969  0  0  0.114389  0.154101  0  1.015843  0
H  H30  1  0.16948528  0.81358330  0.51131440  1  0  0.394513  0  0.91076  0  0  0.362581  0  0.988701  0  0  0.37564  0  0.970572  0  0  0.303058  0.353379  0  0.998748  0
H  H31  1  0.83051016  0.18642362  0.48868585  1  0  0.394433  0  0.910842  0  0  0.362497  0  0.988813  0  0  0.375553  0  0.970691  0  0  0.303023  0.353297  0  0.998847  0
H  H32  1  0.54484584  0.38869294  0.10408027  1  0  0.43728  0  0.860736  0  0  0.404591  0  0.929898  0  0  0.415793  0  0.913591  0  0  0.319504  0.397445  0  0.940077  0
H  H33  1  0.45515514  0.61131507  0.89592236  1  0  0.437309  0  0.860617  0  0  0.404593  0  0.92989  0  0  0.415795  0  0.91358  0  0  0.319499  0.397448  0  0.940068  0
H  H34  1  0.19976552  0.30312452  0.52262204  1  0  0.393907  0  0.891436  0  0  0.362557  0  0.969925  0  0  0.375748  0  0.956217  0  0  0.303823  0.353275  0  0.979552  0
H  H35  1  0.80023639  0.69687124  0.47737846  1  0  0.39399  0  0.891404  0  0  0.362616  0  0.9699  0  0  0.375809  0  0.956193  0  0  0.303829  0.353336  0  0.979531  0
H  H36  1  0.71766028  0.67039970  0.08337481  1  0  0.454897  0  0.819741  0  0  0.428885  0  0.87684  0  0  0.438162  0  0.86307  0  0  0.321892  0.422116  0  0.886775  0
H  H37  1  0.28234104  0.32960163  0.91662695  1  0  0.454882  0  0.819756  0  0  0.428873  0  0.876852  0  0  0.438149  0  0.863083  0  0  0.321914  0.422105  0  0.886786  0
H  H38  1  0.66808778  0.83745684  0.09067322  1  0  0.467535  0  0.823864  0  0  0.435253  0  0.888934  0  0  0.446287  0  0.872746  0  0  0.305899  0.427578  0  0.899888  0
H  H39  1  0.33191553  0.16254559  0.90932980  1  0  0.467523  0  0.823899  0  0  0.435246  0  0.888951  0  0  0.446281  0  0.872763  0  0  0.305902  0.42757  0  0.899907  0
C  C40  1  0.25221426  0.09590677  0.25550137  1  0  0.169506  0  3.749651  0  0  0.185294  0  3.984128  0  0  0.188924  0  4.009095  0  0  0.0024  0.182818  0  3.969232  0
C  C41  1  0.74777260  0.90409353  0.74449900  1  0  0.169501  0  3.749482  0  0  0.185244  0  3.984008  0  0  0.188874  0  4.008972  0  0  0.002438  0.182777  0  3.969107  0
C  C42  1  0.41637959  0.08699738  0.31274996  1  0  -0.135833  0  3.723198  0  0  -0.156364  0  3.976823  0  0  -0.162268  0  3.998327  0  0  -0.094427  -0.152218  0  3.962363  0
C  C43  1  0.58361247  0.91298506  0.68724270  1  0  -0.135852  0  3.723003  0  0  -0.156333  0  3.976601  0  0  -0.162238  0  3.998116  0  0  -0.094392  -0.152187  0  3.962131  0
C  C44  1  0.35034763  0.00883763  0.36510012  1  0  -0.042542  0  3.705461  0  0  -0.070556  0  3.957058  0  0  -0.067668  0  3.974925  0  0  -0.07819  -0.071835  0  3.9447  0
C  C45  1  0.64965088  0.99114142  0.63489053  1  0  -0.042397  0  3.705437  0  0  -0.070458  0  3.957015  0  0  -0.067578  0  3.974881  0  0  -0.078162  -0.071754  0  3.944712  0
C  C46  1  0.11710594  0.93470474  0.36047785  1  0  -0.093725  0  3.782841  0  0  -0.072759  0  4.021449  0  0  -0.083293  0  4.046162  0  0  -0.022682  -0.065965  0  4.007164  0
C  C47  1  0.88287614  0.06528110  0.63951568  1  0  -0.093783  0  3.782984  0  0  -0.072731  0  4.021437  0  0  -0.083256  0  4.046146  0  0  -0.022761  -0.065939  0  4.00715  0
C  C48  1  0.95305471  0.93959879  0.30227986  1  0  -0.042806  0  3.728051  0  0  -0.068544  0  3.979929  0  0  -0.066043  0  3.999202  0  0  -0.076825  -0.07061  0  3.968376  0
C  C49  1  0.04693029  0.06039262  0.69771714  1  0  -0.042885  0  3.728325  0  0  -0.068613  0  3.980156  0  0  -0.066112  0  3.999425  0  0  -0.07679  -0.070681  0  3.968607  0
C  C50  1  0.01934491  0.02025511  0.25056707  1  0  -0.135983  0  3.702411  0  0  -0.155156  0  3.955317  0  0  -0.160506  0  3.975979  0  0  -0.088795  -0.151813  0  3.942665  0
C  C51  1  0.98064447  0.97974851  0.74943267  1  0  -0.135775  0  3.702283  0  0  -0.154955  0  3.955184  0  0  -0.160307  0  3.975854  0  0  -0.08875  -0.151611  0  3.942526  0
C  C52  1  0.32979674  0.19171671  0.20431789  1  0  -0.491534  0  3.667924  0  0  -0.505146  0  3.887203  0  0  -0.5155  0  3.895798  0  0  -0.160227  -0.498977  0  3.884008  0
C  C53  1  0.67020640  0.80828460  0.79568225  1  0  -0.491536  0  3.667978  0  0  -0.505134  0  3.887266  0  0  -0.515457  0  3.895881  0  0  -0.160248  -0.498985  0  3.884099  0
C  C54  1  0.04926829  0.85478032  0.41800249  1  0  0.659987  0  3.814446  0  0  0.603356  0  4.11998  0  0  0.63757  0  4.111974  0  0  0.235233  0.579307  0  4.126761  0
C  C55  1  0.95072839  0.14521546  0.58199359  1  0  0.65974  0  3.81515  0  0  0.603168  0  4.120579  0  0  0.637377  0  4.112571  0  0  0.23521  0.579118  0  4.127359  0
C  C56  1  0.16939055  0.57559816  0.25957636  1  0  0.162672  0  3.756407  0  0  0.179816  0  3.989087  0  0  0.183213  0  4.013661  0  0  0.000816  0.176791  0  3.975585  0
C  C57  1  0.83061536  0.42440758  0.74042331  1  0  0.162729  0  3.756368  0  0  0.179839  0  3.989132  0  0  0.183232  0  4.013707  0  0  0.000926  0.176809  0  3.975632  0
C  C58  1  0.35695296  0.58553587  0.31361755  1  0  -0.129082  0  3.69466  0  0  -0.149179  0  3.948537  0  0  -0.154956  0  3.969988  0  0  -0.089986  -0.145154  0  3.935526  0
C  C59  1  0.64304601  0.41447104  0.68638437  1  0  -0.129223  0  3.694701  0  0  -0.149339  0  3.948549  0  0  -0.155114  0  3.969996  0  0  -0.090019  -0.145314  0  3.93554  0
C  C60  1  0.32723422  0.51219511  0.37039182  1  0  -0.039116  0  3.688792  0  0  -0.065834  0  3.939154  0  0  -0.063029  0  3.957743  0  0  -0.077001  -0.067961  0  3.926841  0
C  C61  1  0.67277165  0.48781064  0.62960948  1  0  -0.03894  0  3.688571  0  0  -0.065593  0  3.938956  0  0  -0.062782  0  3.957533  0  0  -0.076956  -0.067723  0  3.926647  0
C  C62  1  0.10791318  0.42781067  0.37382308  1  0  -0.09533  0  3.794872  0  0  -0.07469  0  4.034061  0  0  -0.085429  0  4.058977  0  0  -0.023839  -0.067062  0  4.018476  0
C  C63  1  0.89210262  0.57219168  0.62617899  1  0  -0.095478  0  3.795036  0  0  -0.074791  0  4.034129  0  0  -0.085536  0  4.059046  0  0  -0.023842  -0.067163  0  4.018537  0
C  C64  1  0.91891182  0.41923650  0.32044972  1  0  -0.055081  0  3.749169  0  0  -0.083878  0  4.003888  0  0  -0.081885  0  4.023728  0  0  -0.08116  -0.085139  0  3.991144  0
C  C65  1  0.08110305  0.58076140  0.67955067  1  0  -0.055223  0  3.74914  0  0  -0.084032  0  4.00378  0  0  -0.082029  0  4.023627  0  0  -0.081248  -0.08527  0  3.991047  0
C  C66  1  0.94936782  0.49140180  0.26375372  1  0  -0.127781  0  3.709773  0  0  -0.145881  0  3.960201  0  0  -0.15046  0  3.980027  0  0  -0.091066  -0.142659  0  3.947443  0
C  C67  1  0.05064684  0.50859499  0.73624543  1  0  -0.127777  0  3.709738  0  0  -0.145886  0  3.960207  0  0  -0.150464  0  3.98003  0  0  -0.091107  -0.142664  0  3.947445  0
C  C68  1  0.19845036  0.65253807  0.19770297  1  0  -0.510181  0  3.713024  0  0  -0.530074  0  3.941731  0  0  -0.54069  0  3.95055  0  0  -0.159174  -0.523336  0  3.937661  0
C  C69  1  0.80155685  0.34746544  0.80229642  1  0  -0.510313  0  3.713015  0  0  -0.530208  0  3.941732  0  0  -0.540823  0  3.950549  0  0  -0.159243  -0.523464  0  3.937644  0
C  C70  1  0.06687877  0.34622750  0.43201075  1  0  0.660067  0  3.802622  0  0  0.604403  0  4.105077  0  0  0.638726  0  4.096807  0  0  0.239164  0.580587  0  4.110725  0
C  C71  1  0.93312605  0.65377381  0.56799324  1  0  0.660137  0  3.80221  0  0  0.60449  0  4.104616  0  0  0.638818  0  4.096348  0  0  0.239193  0.580674  0  4.110264  0
O  O72  1  0.45742636  0.94360823  0.09742004  1  0  -0.956632  0  1.950167  0  0  -0.884631  0  2.21036  0  0  -0.9094  0  2.189146  0  0  -0.415458  -0.861068  0  2.221721  0
O  O73  1  0.54257459  0.05639978  0.90258368  1  0  -0.956545  0  1.950066  0  0  -0.884539  0  2.210247  0  0  -0.909307  0  2.189043  0  0  -0.415348  -0.860969  0  2.221602  0
O  O74  1  0.14167983  0.07259745  0.05876365  1  0  -1.071581  0  2.041248  0  0  -1.007208  0  2.331236  0  0  -1.03067  0  2.307167  0  0  -0.528689  -0.976714  0  2.344452  0
O  O75  1  0.85832089  0.92740945  0.94123938  1  0  -1.071661  0  2.041239  0  0  -1.007285  0  2.33121  0  0  -1.030752  0  2.307165  0  0  -0.528757  -0.976802  0  2.344442  0
O  O76  1  0.57409371  0.20800550  0.08250222  1  0  -0.966062  0  1.970019  0  0  -0.89546  0  2.245209  0  0  -0.918717  0  2.219862  0  0  -0.454483  -0.871028  0  2.261247  0
O  O77  1  0.42590925  0.79200361  0.91750221  1  0  -0.966117  0  1.969981  0  0  -0.895512  0  2.245195  0  0  -0.918764  0  2.219853  0  0  -0.454545  -0.871083  0  2.26121  0
O  O78  1  0.21684448  0.87507567  0.47283915  1  0  -0.539699  0  2.117883  0  0  -0.488624  0  2.341053  0  0  -0.511176  0  2.323796  0  0  -0.321787  -0.472814  0  2.350878  0
O  O79  1  0.78314398  0.12492350  0.52715891  1  0  -0.539551  0  2.117889  0  0  -0.488541  0  2.341115  0  0  -0.511092  0  2.323861  0  0  -0.321786  -0.472735  0  2.350932  0
O  O80  1  0.85130829  0.77645964  0.41451404  1  0  -0.571137  0  1.991223  0  0  -0.51722  0  2.211384  0  0  -0.540575  0  2.203895  0  0  -0.284228  -0.501383  0  2.217123  0
O  O81  1  0.14866551  0.22352961  0.58548364  1  0  -0.57099  0  1.991899  0  0  -0.517145  0  2.212044  0  0  -0.54051  0  2.204583  0  0  -0.284216  -0.501306  0  2.21778  0
O  O82  1  0.25564465  0.62329622  0.04933767  1  0  -0.976491  0  1.977295  0  0  -0.91357  0  2.259689  0  0  -0.937514  0  2.236748  0  0  -0.486964  -0.88885  0  2.276074  0
O  O83  1  0.74435716  0.37670733  0.95066384  1  0  -0.97644  0  1.97737  0  0  -0.913507  0  2.259753  0  0  -0.93743  0  2.236769  0  0  -0.486927  -0.888778  0  2.276145  0
O  O84  1  0.52933853  0.49851197  0.11778674  1  0  -0.760734  0  1.983216  0  0  -0.684807  0  2.199512  0  0  -0.705787  0  2.174284  0  0  -0.375573  -0.670676  0  2.216826  0
O  O85  1  0.47067214  0.50149930  0.88221371  1  0  -0.760716  0  1.983201  0  0  -0.68475  0  2.1995  0  0  -0.70574  0  2.174288  0  0  -0.375571  -0.670619  0  2.21681  0
O  O86  1  0.08802668  0.38941927  0.08896078  1  0  -0.965219  0  1.969409  0  0  -0.90089  0  2.247327  0  0  -0.924656  0  2.225599  0  0  -0.472342  -0.876383  0  2.263019  0
O  O87  1  0.91196959  0.61058319  0.91103890  1  0  -0.965185  0  1.969334  0  0  -0.900861  0  2.247193  0  0  -0.924623  0  2.225457  0  0  -0.472341  -0.876365  0  2.262885  0
O  O88  1  0.24373387  0.36387539  0.48384362  1  0  -0.527369  0  2.106561  0  0  -0.475969  0  2.327638  0  0  -0.498307  0  2.313528  0  0  -0.314977  -0.460092  0  2.336957  0
O  O89  1  0.75627214  0.63612256  0.51615503  1  0  -0.527488  0  2.106364  0  0  -0.4761  0  2.327485  0  0  -0.498432  0  2.313336  0  0  -0.315026  -0.460225  0  2.336806  0
O  O90  1  0.87227413  0.26583103  0.43046171  1  0  -0.561486  0  2.031305  0  0  -0.505415  0  2.249758  0  0  -0.528747  0  2.241227  0  0  -0.279721  -0.488949  0  2.255007  0
O  O91  1  0.12773029  0.73418475  0.56954252  1  0  -0.561504  0  2.031016  0  0  -0.505466  0  2.249473  0  0  -0.528809  0  2.240943  0  0  -0.279746  -0.488994  0  2.254718  0
O  O92  1  0.79626427  0.76882535  0.08266504  1  0  -0.941704  0  1.788277  0  0  -0.902814  0  1.984333  0  0  -0.919834  0  1.95156  0  0  -0.639206  -0.883288  0  2.010755  0
O  O93  1  0.20373726  0.23117710  0.91733796  1  0  -0.941714  0  1.788355  0  0  -0.902852  0  1.984454  0  0  -0.919871  0  1.951677  0  0  -0.63925  -0.883315  0  2.010881  0
