# generated using pymatgen
data_AlH6C14BrO5F
_symmetry_space_group_name_H-M   'P 1'
_cell_length_a   6.65650637
_cell_length_b   11.18916723
_cell_length_c   17.55972523
_cell_angle_alpha   82.87121887
_cell_angle_beta   83.25983170
_cell_angle_gamma   71.54040844
_symmetry_Int_Tables_number   1
_chemical_formula_structural   AlH6C14BrO5F
_chemical_formula_sum   'Al2 H12 C28 Br2 O10 F2'
_cell_volume   1226.73647657
_cell_formula_units_Z   2
loop_
 _symmetry_equiv_pos_site_id
 _symmetry_equiv_pos_as_xyz
  1  'x, y, z'
loop_
 _atom_site_type_symbol
 _atom_site_label
 _atom_site_symmetry_multiplicity
 _atom_site_fract_x
 _atom_site_fract_y
 _atom_site_fract_z
 _atom_site_occupancy
 _atom_site_pbe_bader_charge
 _atom_site_pbe_bader_spin_density
 _atom_site_pbe_cm5_charge
 _atom_site_pbe_ddec_charge
 _atom_site_pbe_ddec_spin_density
 _atom_site_pbe_ddec_sum_bond_order
 _atom_site_pbe_magmom
Al  Al0  1  0.50221002  0.50085095  0.50033957  1  2.502287  0  0.391193  1.64637  0  2.565311  0
Al  Al1  1  0.00406218  0.49743227  0.50112976  1  2.502297  0  0.39568  1.640293  0  2.555947  0
H  H2  1  0.31936904  0.35024553  0.55542509  1  0.632722  0  0.327207  0.4055  0  0.908275  0
H  H3  1  0.69184494  0.65468256  0.45932945  1  0.597305  0  0.344236  0.419608  0  0.877504  0
H  H4  1  0.65270615  0.49079677  0.28293086  1  0.141866  0  0.112556  0.127028  0  1.01513  0
H  H5  1  0.74696117  0.48636640  0.14158146  1  0.097946  0  0.101306  0.104848  0  1.020442  0
H  H6  1  0.10196877  0.50506498  0.11148736  1  0.081891  0  0.113116  0.137756  0  0.993494  0
H  H7  1  0.90002212  0.49055965  0.89034429  1  0.094138  0  0.112806  0.137099  0  0.992164  0
H  H8  1  0.34895752  0.51215936  0.71727037  1  0.142775  0  0.112613  0.127555  0  1.011096  0
H  H9  1  0.25283259  0.51620626  0.85851454  1  0.099571  0  0.101603  0.104974  0  1.019939  0
H  H10  1  0.17908940  0.24171389  0.39429188  1  0.083005  0  0.107247  0.115994  0  1.030388  0
H  H11  1  0.48698893  0.13008085  0.31081363  1  0.072705  0  0.104322  0.10123  0  0.989214  0
H  H12  1  0.39461290  0.77256451  0.39627089  1  0.097938  0  0.107841  0.110281  0  1.03496  0
H  H13  1  0.59353924  0.89443573  0.31132240  1  0.062505  0  0.106044  0.103987  0  0.983637  0
C  C14  1  0.86228686  0.27493218  0.49526577  1  1.644582  0  0.270881  0.659074  0  4.094844  0
C  C15  1  0.72028447  0.49426101  0.63860006  1  1.582534  0  0.263601  0.653249  0  4.103987  0
C  C16  1  0.13837479  0.72451103  0.50539249  1  1.64189  0  0.270756  0.660668  0  4.090207  0
C  C17  1  0.28414963  0.50355979  0.36258069  1  1.602599  0  0.266922  0.653295  0  4.094372  0
C  C18  1  0.32969011  0.49835264  0.27761640  1  0.029159  0  -0.021232  -0.15817  0  3.959749  0
C  C19  1  0.53494060  0.49272094  0.24441607  1  -0.009225  0  -0.074637  -0.060716  0  3.975774  0
C  C20  1  0.58691135  0.49058811  0.16571846  1  -0.05357  0  -0.088529  -0.146588  0  3.951739  0
C  C21  1  0.43162064  0.49571215  0.11600397  1  0.085664  0  0.007999  0.176716  0  4.11821  0
C  C22  1  0.22554973  0.50048555  0.14819026  1  0.067332  0  -0.095068  -0.264137  0  3.943425  0
C  C23  1  0.17943034  0.50113433  0.22717941  1  0.416026  0  0.110633  0.286172  0  4.053749  0
C  C24  1  0.47962247  0.49780860  0.03529235  1  0.121541  0  -0.040205  -0.102045  0  4.092867  0
C  C25  1  0.52009599  0.50141491  0.96555308  1  -0.444992  0  -0.036261  -0.093374  0  4.090618  0
C  C26  1  0.56915335  0.50335190  0.88489625  1  0.069933  0  0.007137  0.173939  0  4.119728  0
C  C27  1  0.77645725  0.49655110  0.85330242  1  0.012077  0  -0.094626  -0.262374  0  3.942043  0
C  C28  1  0.82418157  0.49521919  0.77439617  1  0.456057  0  0.110156  0.287353  0  4.051897  0
C  C29  1  0.67368118  0.50015085  0.72350216  1  0.027382  0  -0.021651  -0.156542  0  3.952149  0
C  C30  1  0.46694361  0.50836268  0.75615404  1  0.015083  0  -0.073666  -0.055743  0  3.963217  0
C  C31  1  0.41382769  0.51037257  0.83479762  1  -0.046646  0  -0.087409  -0.143671  0  3.948055  0
C  C32  1  0.93278882  0.13315113  0.49768858  1  0.002955  0  -0.008743  -0.114448  0  3.92165  0
C  C33  1  0.11147967  0.07094466  0.44789847  1  0.008097  0  0.002836  0.070348  0  3.95042  0
C  C34  1  0.82645021  0.06335499  0.54802710  1  -0.017091  0  -0.014293  0.039799  0  3.944633  0
C  C35  1  0.22628967  0.13904172  0.39608772  1  -0.030532  0  -0.088712  -0.12771  0  3.951793  0
C  C36  1  0.39869104  0.07636209  0.34912057  1  -0.064326  0  -0.088838  -0.075078  0  4.030961  0
C  C37  1  0.06370870  0.86640082  0.50243189  1  0.016081  0  -0.010751  -0.116306  0  3.923759  0
C  C38  1  0.89282082  0.92913832  0.55082208  1  -0.072023  0  -0.017396  0.037269  0  3.963706  0
C  C39  1  0.17617756  0.93558245  0.44966304  1  0.000779  0  0.000847  0.068513  0  3.955806  0
C  C40  1  0.34927223  0.87466959  0.39799584  1  -0.053081  0  -0.092238  -0.1367  0  3.969689  0
C  C41  1  0.45959925  0.94334496  0.34967774  1  -0.022777  0  -0.088763  -0.077164  0  4.036287  0
Br  Br42  1  0.75467780  0.83537980  0.62394567  1  -0.012004  0  0.051286  -0.018194  0  1.525911  0
Br  Br43  1  0.60087202  0.14535962  0.61909539  1  -0.024372  0  0.06702  -0.017236  0  1.537258  0
O  O44  1  0.67409047  0.33321951  0.47799391  1  -1.256217  0  -0.2309  -0.580555  0  2.342555  0
O  O45  1  0.89268103  0.51079442  0.60712490  1  -1.250115  0  -0.238323  -0.594667  0  2.37758  0
O  O46  1  0.00846596  0.67034880  0.49012262  1  -1.254967  0  -0.230062  -0.590898  0  2.368502  0
O  O47  1  0.41918120  0.53295564  0.39648992  1  -1.266495  0  -0.238124  -0.597435  0  2.357547  0
O  O48  1  0.32979654  0.66977345  0.52045952  1  -1.251145  0  -0.228058  -0.577453  0  2.33338  0
O  O49  1  0.11797866  0.47967439  0.39484332  1  -1.250642  0  -0.233801  -0.582288  0  2.34644  0
O  O50  1  0.99701662  0.32574090  0.51047646  1  -1.252656  0  -0.22481  -0.577639  0  2.344188  0
O  O51  1  0.57960337  0.47178964  0.60410063  1  -1.265732  0  -0.23981  -0.609248  0  2.396817  0
O  O52  1  0.27684374  0.43765744  0.53321994  1  -1.443337  0  -0.450518  -0.982917  0  2.213399  0
O  O53  1  0.73025909  0.56308473  0.46777975  1  -1.400701  0  -0.449612  -0.980393  0  2.174538  0
F  F54  1  0.97673829  0.50853027  0.25437519  1  -0.635261  0  -0.080614  -0.125669  0  1.404818  0
F  F55  1  0.02819402  0.48515955  0.74789789  1  -0.630816  0  -0.080194  -0.123557  0  1.406855  0
