# generated using pymatgen
data_Ni3H20(C11O7)2
_symmetry_space_group_name_H-M   'P 1'
_cell_length_a   6.25205531
_cell_length_b   10.90287689
_cell_length_c   16.73807528
_cell_angle_alpha   105.09142727
_cell_angle_beta   90.00173832
_cell_angle_gamma   90.02620731
_symmetry_Int_Tables_number   1
_chemical_formula_structural   Ni3H20(C11O7)2
_chemical_formula_sum   'Ni6 H40 C44 O28'
_cell_volume   1101.60749110
_cell_formula_units_Z   2
loop_
 _symmetry_equiv_pos_site_id
 _symmetry_equiv_pos_as_xyz
  1  'x, y, z'
loop_
 _atom_site_type_symbol
 _atom_site_label
 _atom_site_symmetry_multiplicity
 _atom_site_fract_x
 _atom_site_fract_y
 _atom_site_fract_z
 _atom_site_occupancy
 _atom_site_pbe_bader_charge
 _atom_site_pbe_bader_spin_density
 _atom_site_pbe_cm5_charge
 _atom_site_pbe_ddec_charge
 _atom_site_pbe_ddec_spin_density
 _atom_site_pbe_ddec_sum_bond_order
 _atom_site_pbe_magmom
Ni  Ni0  1  0.50002082  0.50002099  0.00001475  1  1.239788  1.599989  0.629932  1.012702  1.789566  2.3949  1.588
Ni  Ni1  1  0.99988498  0.49972265  0.50079090  1  1.236881  -1.568983  0.627457  1.007309  -1.773602  2.401806  -1.558
Ni  Ni2  1  0.99750839  0.46769840  0.08561191  1  1.210222  1.603088  0.596361  0.98324  1.787814  2.225554  1.592
Ni  Ni3  1  0.49767753  0.53263713  0.41332363  1  1.206978  1.567741  0.595623  0.983452  1.749316  2.226088  1.558
Ni  Ni4  1  0.00251690  0.53235650  0.91438087  1  1.210349  1.603081  0.596278  0.983114  1.787818  2.22576  1.592
Ni  Ni5  1  0.50241972  0.46744361  0.58603073  1  1.206162  -1.590239  0.593758  0.977252  -1.790034  2.224796  -1.581
H  H6  1  0.20127697  0.20838268  0.31418543  1  0.088519  -4.2e-05  0.103687  0.107298  -4.2e-05  1.023066  0.0
H  H7  1  0.70110542  0.79168550  0.18592980  1  0.089899  0.000136  0.103618  0.107211  3.6e-05  1.022741  0.0
H  H8  1  0.79896898  0.79149353  0.68580480  1  0.089861  3.7e-05  0.103747  0.107621  7e-05  1.02234  0.0
H  H9  1  0.29887028  0.20835774  0.81411475  1  0.089874  0.000126  0.103814  0.107583  2.9e-05  1.022559  0.0
H  H10  1  0.30070400  0.02007661  0.20134045  1  0.081665  0.000142  0.097564  0.099365  5.4e-05  1.031411  0.0
H  H11  1  0.80054582  0.98004466  0.29880056  1  0.082315  0.000136  0.097515  0.099458  4.1e-05  1.030704  0.0
H  H12  1  0.69953238  0.97986926  0.79859421  1  0.082272  -0.000133  0.097481  0.09945  -5.8e-05  1.031346  0.0
H  H13  1  0.19930992  0.01998607  0.70127112  1  0.082274  0.000145  0.097549  0.099296  5.9e-05  1.031295  0.0
H  H14  1  0.04831000  0.93646232  0.08400494  1  0.098694  0.00013  0.100275  0.109965  0.0001  1.022417  0.0
H  H15  1  0.54804180  0.06356804  0.41604110  1  0.098071  -0.000108  0.100135  0.109838  -9.1e-05  1.022309  0.0
H  H16  1  0.95175202  0.06344242  0.91597703  1  0.099661  0.000135  0.100336  0.110151  0.000104  1.022579  0.0
H  H17  1  0.45167157  0.93643252  0.58397403  1  0.098384  0.000105  0.100293  0.109868  9.5e-05  1.0226  0.0
H  H18  1  0.59186616  0.22541259  0.19924947  1  0.117414  0.000481  0.10487  0.112783  0.00034  1.014007  0.0
H  H19  1  0.09124912  0.77467203  0.30059548  1  0.113925  0.000579  0.104873  0.112648  0.000372  1.013815  0.0
H  H20  1  0.40845023  0.77462884  0.80078701  1  0.117311  0.000115  0.104779  0.112559  0.000131  1.01374  0.0
H  H21  1  0.90867213  0.22521754  0.69937314  1  0.114811  -9.4e-05  0.104748  0.112571  -0.000137  1.013761  0.0
H  H22  1  0.62681948  0.84641988  0.07500347  1  0.10118  0.000277  0.103897  0.105983  3.8e-05  1.034311  0.0
H  H23  1  0.12643753  0.15362486  0.42494498  1  0.104311  -0.000143  0.104025  0.10624  -4e-06  1.034958  0.0
H  H24  1  0.37324259  0.15361577  0.92503978  1  0.105962  0.000278  0.103815  0.105895  4.5e-05  1.034601  0.0
H  H25  1  0.87311108  0.84634950  0.57497604  1  0.102477  -0.000107  0.103952  0.106063  1e-06  1.034369  0.0
H  H26  1  0.33172766  0.34637859  0.10624702  1  0.648594  -0.000125  0.29524  0.383707  0.000157  0.964558  0.0
H  H27  1  0.83251103  0.65368346  0.39405268  1  0.659354  -0.000244  0.29485  0.383341  -3.8e-05  0.965237  0.0
H  H28  1  0.66833919  0.65359822  0.89377419  1  0.647998  -0.000172  0.295045  0.383509  0.000143  0.964912  0.0
H  H29  1  0.16842585  0.34606397  0.60625123  1  0.660369  0.000243  0.295244  0.382715  7.1e-05  0.966175  0.0
H  H30  1  0.13500098  0.28821614  0.14447326  1  0.625016  -0.000192  0.312185  0.391633  9.9e-05  0.909581  0.0
H  H31  1  0.63690146  0.71270461  0.35575753  1  0.627053  -0.00023  0.311707  0.391241  7.8e-05  0.910378  0.0
H  H32  1  0.86494909  0.71173148  0.85548560  1  0.625985  -0.000228  0.311853  0.391438  8.2e-05  0.909849  0.0
H  H33  1  0.36508988  0.28805159  0.64456641  1  0.623572  0.000226  0.312205  0.391505  -0.000105  0.909885  0.0
H  H34  1  0.81247523  0.54236743  0.23790097  1  0.640211  0.000593  0.303193  0.400636  0.000689  0.906521  0.001
H  H35  1  0.30966515  0.45741468  0.26161443  1  0.637393  0.00058  0.302969  0.400632  0.000653  0.906581  0.001
H  H36  1  0.18788438  0.45777488  0.76211277  1  0.646631  7.2e-05  0.303259  0.400442  0.000254  0.905748  0.001
H  H37  1  0.68767120  0.54211376  0.73804491  1  0.64703  -4.9e-05  0.30308  0.400353  -0.000276  0.906199  -0.001
H  H38  1  0.65621753  0.53270617  0.16371220  1  0.639926  -0.000294  0.293636  0.379878  2.9e-05  0.968145  0.0
H  H39  1  0.15562971  0.46708028  0.33654240  1  0.632638  -0.000223  0.293469  0.379022  1.1e-05  0.969487  0.0
H  H40  1  0.34389892  0.46732267  0.83636633  1  0.638337  -0.000303  0.293644  0.379684  4.1e-05  0.968497  0.0
H  H41  1  0.84379090  0.53275389  0.66387017  1  0.639805  0.000367  0.293434  0.378949  0.000136  0.969884  0.0
H  H42  1  0.81147019  0.64352712  0.04444704  1  0.567177  -6.6e-05  0.302688  0.382367  0.000922  0.916249  0.001
H  H43  1  0.31107075  0.35792112  0.45558406  1  0.575521  -0.000135  0.301284  0.379425  -0.000379  0.919872  0.0
H  H44  1  0.18853589  0.35650016  0.95555415  1  0.567464  -6.2e-05  0.302636  0.382332  0.000929  0.916188  0.001
H  H45  1  0.68831006  0.64245741  0.54370307  1  0.576824  0.000731  0.301316  0.379232  -2.5e-05  0.919436  0.0
C  C46  1  0.81743879  0.33358856  0.33623509  1  1.563019  -0.002404  0.222012  0.602586  -0.001517  4.135587  -0.003
C  C47  1  0.31732156  0.66642796  0.16375014  1  1.56026  6.9e-05  0.221856  0.602845  0.001671  4.136429  -0.001
C  C48  1  0.18251440  0.66612885  0.66395254  1  1.562649  0.000365  0.221583  0.602688  -0.001467  4.134305  0.001
C  C49  1  0.68273570  0.33358609  0.83623683  1  1.560163  6e-06  0.221876  0.602594  0.001601  4.136544  -0.001
C  C50  1  0.88527932  0.22519965  0.26553200  1  -0.018065  0.000944  -0.02107  -0.038791  0.000512  3.984424  0.001
C  C51  1  0.38487655  0.77490195  0.23443813  1  -0.019252  0.010479  -0.020556  -0.037914  0.006167  3.983596  0.008
C  C52  1  0.11501464  0.77474673  0.73449654  1  -0.018692  -0.010095  -0.020194  -0.037665  -0.006092  3.983816  -0.008
C  C53  1  0.61507834  0.22509298  0.76556946  1  -0.018675  0.010285  -0.020839  -0.037948  0.006113  3.984044  0.008
C  C54  1  0.08801194  0.16933264  0.26470697  1  -0.114471  0.000801  -0.090135  -0.120065  0.000455  3.990122  0.001
C  C55  1  0.58774897  0.83074327  0.23535092  1  -0.113954  0.001609  -0.090296  -0.119968  0.000891  3.989388  0.001
C  C56  1  0.91223721  0.83056354  0.73528250  1  -0.115978  -0.001199  -0.090179  -0.120234  -0.000648  3.989183  -0.001
C  C57  1  0.41218514  0.16927626  0.76468060  1  -0.11576  0.001306  -0.090395  -0.120755  0.000677  3.98959  0.001
C  C58  1  0.14504973  0.06460994  0.20046944  1  -0.020633  0.000811  -0.093098  -0.081205  0.000469  4.016401  0.001
C  C59  1  0.64482566  0.93546985  0.29961128  1  -0.019107  0.000647  -0.093369  -0.082  0.000357  4.014823  0.0
C  C60  1  0.85513865  0.93530251  0.79949533  1  -0.017879  -0.000126  -0.093174  -0.0817  -5.3e-05  4.016502  0.0
C  C61  1  0.35502368  0.06454864  0.70043440  1  -0.01967  0.000158  -0.093281  -0.081419  6.1e-05  4.015894  0.0
C  C62  1  0.00403003  0.01758901  0.13486312  1  -0.096904  -0.000428  -0.084337  -0.117218  -0.000262  3.925294  0.0
C  C63  1  0.50370292  0.98246584  0.36515794  1  -0.097938  0.000876  -0.083481  -0.115764  0.000481  3.924497  0.0
C  C64  1  0.99607678  0.98233188  0.86512282  1  -0.09794  -0.00104  -0.083857  -0.116689  -0.000586  3.925769  -0.001
C  C65  1  0.49603444  0.01753188  0.63485551  1  -0.097332  0.001211  -0.083889  -0.116308  0.000642  3.924825  0.001
C  C66  1  0.80673088  0.07789637  0.13272745  1  0.018617  0.000242  -0.009483  0.061028  8.5e-05  4.02613  0.0
C  C67  1  0.30625745  0.92218858  0.36720785  1  0.017706  0.000311  -0.009448  0.060518  0.000164  4.0268  0.0
C  C68  1  0.19342714  0.92209477  0.86728069  1  0.016787  0.000141  -0.009644  0.061007  6.8e-05  4.026859  0.0
C  C69  1  0.69347831  0.07780740  0.63277244  1  0.018421  -3.1e-05  -0.009505  0.060881  -2e-05  4.026974  0.0
C  C70  1  0.74691051  0.17969241  0.19896943  1  -0.069522  -0.001182  -0.080604  -0.135154  -0.000659  3.935127  -0.001
C  C71  1  0.24635400  0.82042978  0.30092138  1  -0.066876  0.002031  -0.08074  -0.134892  0.001123  3.934264  0.001
C  C72  1  0.25338347  0.82032629  0.80104642  1  -0.070198  -0.001631  -0.080849  -0.135413  -0.00098  3.935083  -0.001
C  C73  1  0.75350011  0.17953580  0.69905608  1  -0.06793  0.001673  -0.080581  -0.135251  0.000992  3.935174  0.001
C  C74  1  0.57382089  0.91371995  0.04122101  1  -0.107866  0.003868  -0.081223  -0.136439  0.002094  3.939617  0.002
C  C75  1  0.07346775  0.08631052  0.45873573  1  -0.114123  -0.004282  -0.081034  -0.13627  -0.002335  3.940094  -0.003
C  C76  1  0.42626517  0.08630437  0.95880716  1  -0.112156  0.003854  -0.080971  -0.136061  0.00209  3.94057  0.002
C  C77  1  0.92610646  0.91368087  0.54120255  1  -0.110185  -0.000201  -0.081565  -0.13654  -0.000163  3.939882  0.0
C  C78  1  0.65789509  0.03669373  0.06227509  1  0.043111  0.00235  0.000537  0.056325  0.001325  3.992438  0.001
C  C79  1  0.15744230  0.96335143  0.43765824  1  0.049353  0.000129  0.000114  0.055839  3.2e-05  3.992704  0.0
C  C80  1  0.34223575  0.96332401  0.93773820  1  0.043527  0.002349  0.000263  0.055646  0.001341  3.993054  0.001
C  C81  1  0.84217190  0.03664560  0.56229653  1  0.04366  -0.002685  0.000502  0.055995  -0.001528  3.993123  -0.002
C  C82  1  0.58468183  0.12360288  0.01930421  1  -0.021972  0.012234  -0.010826  -0.073247  0.00713  3.945791  0.009
C  C83  1  0.08435646  0.87641640  0.48066388  1  -0.021479  -0.003836  -0.010482  -0.072912  -0.002176  3.946006  -0.003
C  C84  1  0.41541223  0.87642240  0.98072173  1  -0.020825  0.012185  -0.010873  -0.072814  0.007111  3.945439  0.009
C  C85  1  0.91524174  0.12357773  0.51929996  1  -0.022504  -0.008689  -0.010872  -0.073355  -0.005264  3.94677  -0.007
C  C86  1  0.67118379  0.25647266  0.03390099  1  1.575109  0.000438  0.225095  0.605562  0.001698  4.145302  0.0
C  C87  1  0.17115435  0.74363672  0.46613791  1  1.577376  -0.002929  0.225236  0.605276  -0.002112  4.145513  -0.004
C  C88  1  0.32887668  0.74356029  0.96611073  1  1.574035  0.000447  0.225092  0.605491  0.001715  4.145404  0.0
C  C89  1  0.82898772  0.25645344  0.53404194  1  1.576108  -3.2e-05  0.224496  0.604506  -0.00154  4.144982  0.0
O  O90  1  0.97063036  0.39436824  0.38046954  1  -1.181468  -0.055537  -0.314958  -0.580988  -0.032913  2.448486  -0.05
O  O91  1  0.47084017  0.60519650  0.12000697  1  -1.181114  0.057227  -0.31506  -0.582219  0.032851  2.452771  0.053
O  O92  1  0.02874206  0.60491502  0.62023751  1  -1.179413  -0.053559  -0.315034  -0.581857  -0.031036  2.456925  -0.05
O  O93  1  0.52927788  0.39483741  0.88000312  1  -1.181029  0.057048  -0.315208  -0.581921  0.032793  2.452727  0.052
O  O94  1  0.62004022  0.35787970  0.34748996  1  -1.144513  0.06325  -0.302148  -0.539844  0.03628  2.304307  0.058
O  O95  1  0.11997479  0.64235965  0.15191643  1  -1.143585  0.067246  -0.302248  -0.540379  0.03794  2.305228  0.062
O  O96  1  0.37972741  0.64185714  0.65220273  1  -1.147659  -0.065409  -0.302017  -0.539467  -0.037498  2.306363  -0.061
O  O97  1  0.88009366  0.35764982  0.84803331  1  -1.144193  0.066622  -0.302306  -0.540426  0.037594  2.304724  0.062
O  O98  1  0.86994430  0.27716217  0.03408953  1  -1.152232  0.05755  -0.295636  -0.541097  0.032774  2.263851  0.053
O  O99  1  0.37003122  0.72331677  0.46558964  1  -1.154283  0.052118  -0.295606  -0.540924  0.030162  2.260072  0.048
O  O100  1  0.13010818  0.72288429  0.96587969  1  -1.151811  0.057582  -0.295486  -0.540981  0.0328  2.263791  0.053
O  O101  1  0.63034458  0.27731071  0.53436151  1  -1.152679  -0.056452  -0.295134  -0.539739  -0.032671  2.264891  -0.052
O  O102  1  0.52460217  0.34126125  0.04255975  1  -1.154902  0.056756  -0.310584  -0.575567  0.032726  2.482337  0.052
O  O103  1  0.02483703  0.65868459  0.45785449  1  -1.155392  -0.054609  -0.310689  -0.57461  -0.032551  2.479023  -0.049
O  O104  1  0.47542470  0.65875458  0.95745322  1  -1.154621  0.056664  -0.310743  -0.575609  0.032695  2.482676  0.052
O  O105  1  0.97594955  0.34118496  0.54275832  1  -1.156366  -0.052774  -0.310353  -0.574642  -0.030631  2.487027  -0.05
O  O106  1  0.21025132  0.36780048  0.14738675  1  -1.23188  0.048482  -0.551793  -0.739  0.027885  2.148549  0.041
O  O107  1  0.71136177  0.63284881  0.35266034  1  -1.242415  0.045743  -0.551126  -0.738988  0.026667  2.147953  0.04
O  O108  1  0.78971155  0.63215084  0.85259365  1  -1.232153  0.046831  -0.551954  -0.739149  0.02691  2.147255  0.04
O  O109  1  0.29010321  0.36763412  0.64733116  1  -1.240653  -0.045332  -0.552353  -0.738065  -0.026486  2.152132  -0.039
O  O110  1  0.77743091  0.48788513  0.18279153  1  -1.230952  0.050968  -0.573698  -0.743558  0.029222  2.148209  0.044
O  O111  1  0.27607125  0.51187776  0.31689882  1  -1.221745  0.048792  -0.573755  -0.743036  0.028174  2.148968  0.043
O  O112  1  0.22283112  0.51220955  0.81724033  1  -1.236065  0.050236  -0.573846  -0.743384  0.028878  2.148078  0.044
O  O113  1  0.72252715  0.48779104  0.68287122  1  -1.238212  -0.048909  -0.573648  -0.742604  -0.02852  2.151731  -0.043
O  O114  1  0.81188419  0.55338723  0.01598951  1  -1.091686  0.220203  -0.555341  -0.86513  0.126055  2.406038  0.2
O  O115  1  0.31234107  0.44827959  0.48370746  1  -1.096784  -0.06265  -0.552634  -0.85928  -0.036848  2.400037  -0.058
O  O116  1  0.18815229  0.44664776  0.98399029  1  -1.092049  0.220065  -0.555337  -0.865108  0.125978  2.405834  0.2
O  O117  1  0.68755482  0.55229345  0.51507293  1  -1.098321  -0.076541  -0.552443  -0.858179  -0.044423  2.398798  -0.07
