# generated using pymatgen
data_HgH24C30Br2(N3O2)2
_symmetry_space_group_name_H-M   'P 1'
_cell_length_a   9.01393732
_cell_length_b   9.01400145
_cell_length_c   11.95899910
_cell_angle_alpha   79.20632988
_cell_angle_beta   79.20638717
_cell_angle_gamma   88.37516759
_symmetry_Int_Tables_number   1
_chemical_formula_structural   HgH24C30Br2(N3O2)2
_chemical_formula_sum   'Hg1 H24 C30 Br2 N6 O4'
_cell_volume   937.58762808
_cell_formula_units_Z   1
loop_
 _symmetry_equiv_pos_site_id
 _symmetry_equiv_pos_as_xyz
  1  'x, y, z'
loop_
 _atom_site_type_symbol
 _atom_site_label
 _atom_site_symmetry_multiplicity
 _atom_site_fract_x
 _atom_site_fract_y
 _atom_site_fract_z
 _atom_site_occupancy
 _atom_site_pbe_bader_spin_density
 _atom_site_pbe_cm5_charge
 _atom_site_pbe_ddec_charge
 _atom_site_pbe_ddec_spin_density
 _atom_site_pbe_ddec_sum_bond_order
 _atom_site_pbe_magmom
Hg  Hg0  1  0.53300295  0.46700594  0.99999973  1  0  0.455628  0.458687  0  2.660199  0
H  H1  1  0.60726598  0.41466564  0.73529060  1  0  0.102094  0.074395  0  1.034206  0
H  H2  1  0.58534330  0.39273864  0.26470754  1  0  0.102087  0.074367  0  1.034157  0
H  H3  1  0.78924618  0.28846053  0.59862975  1  0  0.111991  0.133549  0  1.040129  0
H  H4  1  0.71154411  0.21075438  0.40136828  1  0  0.111984  0.133524  0  1.040177  0
H  H5  1  0.08648547  0.23400133  0.84821177  1  0  0.0979  0.124106  0  1.021368  0
H  H6  1  0.76599517  0.91351997  0.15178449  1  0  0.0979  0.12411  0  1.021323  0
H  H7  1  0.89518072  0.36540566  0.97229892  1  0  0.116259  0.089919  0  0.97901  0
H  H8  1  0.63459427  0.10483050  0.02769822  1  0  0.116264  0.08994  0  0.978989  0
H  H9  1  0.08842422  0.21494958  0.28483256  1  0  0.105263  0.127931  0  1.015808  0
H  H10  1  0.78504359  0.91157300  0.71516717  1  0  0.105256  0.127886  0  1.015847  0
H  H11  1  0.15165265  0.12052926  0.09918326  1  0  0.08787  0.095979  0  1.025379  0
H  H12  1  0.87946303  0.84834342  0.90081777  1  0  0.087893  0.095963  0  1.025359  0
H  H13  1  0.31091756  0.88946535  0.08693591  1  0  0.095224  0.098851  0  1.009883  0
H  H14  1  0.11052949  0.68907908  0.91306575  1  0  0.095185  0.098839  0  1.009924  0
H  H15  1  0.41325462  0.76150965  0.25798161  1  0  0.089031  0.112199  0  1.059102  0
H  H16  1  0.23848598  0.58674345  0.74201992  1  0  0.089057  0.112259  0  1.059081  0
H  H17  1  0.64307988  0.75278629  0.42605777  1  0  0.101573  0.108118  0  1.060385  0
H  H18  1  0.24721270  0.35692712  0.57394376  1  0  0.101584  0.108149  0  1.060395  0
H  H19  1  0.71878879  0.48130865  0.46250495  1  0  0.106022  0.109567  0  0.993844  0
H  H20  1  0.51868881  0.28121196  0.53749894  1  0  0.106013  0.109542  0  0.993879  0
H  H21  1  0.13280609  0.11017742  0.68667244  1  0  0.333045  0.289934  0  0.908905  0
H  H22  1  0.88981774  0.86719459  0.31332660  1  0  0.333022  0.289868  0  0.909013  0
H  H23  1  0.23089585  0.00963763  0.54523946  1  0  0.32125  0.274942  0  0.957675  0
H  H24  1  0.99035410  0.76910064  0.45476177  1  0  0.321277  0.274919  0  0.9576  0
C  C25  1  0.71614652  0.37506822  0.75612098  1  0  0.037046  0.097104  0  3.986057  0
C  C26  1  0.62493673  0.28385745  0.24387717  1  0  0.03706  0.09721  0  3.985938  0
C  C27  1  0.81627668  0.30463184  0.68005943  1  0  -0.090221  -0.223045  0  3.924146  0
C  C28  1  0.69537117  0.18372511  0.31993952  1  0  -0.090166  -0.222984  0  3.924058  0
C  C29  1  0.95249530  0.25003284  0.71234264  1  0  0.119196  0.301853  0  4.030198  0
C  C30  1  0.74996791  0.04750412  0.28765637  1  0  0.119204  0.301862  0  4.030307  0
C  C31  1  0.98104992  0.27139174  0.81987708  1  0  -0.095208  -0.239042  0  3.941599  0
C  C32  1  0.72860713  0.01895748  0.18012099  1  0  -0.095224  -0.239025  0  3.94167  0
C  C33  1  0.87474148  0.34516670  0.88928871  1  0  0.041421  0.102182  0  3.995243  0
C  C34  1  0.65483374  0.12526585  0.11070896  1  0  0.041474  0.102207  0  3.99518  0
C  C35  1  0.07192534  0.17750127  0.52520979  1  0  0.33047  0.626746  0  4.179033  0
C  C36  1  0.82249819  0.92807599  0.47478669  1  0  0.330426  0.62661  0  4.179286  0
C  C37  1  0.21477143  0.04270629  0.37586870  1  0  0.0801  0.147254  0  4.041301  0
C  C38  1  0.95728880  0.78522577  0.62413186  1  0  0.080094  0.147257  0  4.041262  0
C  C39  1  0.15910530  0.11617243  0.27829775  1  0  -0.10639  -0.177316  0  3.987054  0
C  C40  1  0.88382108  0.84089081  0.72170226  1  0  -0.106411  -0.177279  0  3.987014  0
C  C41  1  0.19320678  0.06040431  0.17498308  1  0  -0.109681  -0.098927  0  4.07234  0
C  C42  1  0.93958880  0.80679060  0.82501688  1  0  -0.109705  -0.098927  0  4.072164  0
C  C43  1  0.28220755  0.93222090  0.16770474  1  0  -0.109743  -0.090096  0  4.058995  0
C  C44  1  0.06777322  0.71778836  0.83229707  1  0  -0.109689  -0.090033  0  4.05895  0
C  C45  1  0.34052541  0.85941360  0.26395261  1  0  -0.118242  -0.206571  0  4.050935  0
C  C46  1  0.14058172  0.65947324  0.73604788  1  0  -0.118231  -0.206641  0  4.050995  0
C  C47  1  0.30825190  0.91570828  0.36608003  1  0  0.070419  0.150419  0  4.023426  0
C  C48  1  0.08428841  0.69174559  0.63392202  1  0  0.070347  0.150375  0  4.023578  0
C  C49  1  0.40772235  0.70416723  0.47961806  1  0  0.076879  0.15763  0  4.041614  0
C  C50  1  0.29583205  0.59228203  0.52038616  1  0  0.07686  0.157711  0  4.041701  0
C  C51  1  0.55899457  0.66368332  0.45907127  1  0  -0.09846  -0.16572  0  3.992521  0
C  C52  1  0.33631572  0.44100891  0.54093247  1  0  -0.098491  -0.165765  0  3.992643  0
C  C53  1  0.59976166  0.51175567  0.47936954  1  0  -0.091196  -0.080086  0  4.017479  0
C  C54  1  0.48824400  0.40024026  0.52063536  1  0  -0.0911  -0.080038  0  4.017552  0
Br  Br55  1  0.32132287  0.37265841  0.91752936  1  0  -0.252512  -0.392304  0  1.28151  0
Br  Br56  1  0.62734559  0.67869121  0.08246701  1  0  -0.252515  -0.392308  0  1.281521  0
N  N57  1  0.74332432  0.39549016  0.85901549  1  0  -0.320823  -0.221991  0  3.514439  0
N  N58  1  0.60451409  0.25668599  0.14098264  1  0  -0.320937  -0.222211  0  3.514454  0
N  N59  1  0.05828789  0.17370604  0.64436061  1  0  -0.402235  -0.42892  0  3.562214  0
N  N60  1  0.82629003  0.94171257  0.35563903  1  0  -0.402205  -0.428841  0  3.562447  0
N  N61  1  0.18328840  0.08197340  0.48592620  1  0  -0.404536  -0.412458  0  3.588303  0
N  N62  1  0.91801985  0.81671161  0.51407415  1  0  -0.404555  -0.412379  0  3.588267  0
O  O63  1  0.99592213  0.26014182  0.46398221  1  0  -0.289466  -0.501341  0  2.10312  0
O  O64  1  0.73986002  0.00408403  0.53601478  1  0  -0.289435  -0.501271  0  2.103158  0
O  O65  1  0.36719615  0.85539190  0.46458717  1  0  -0.162174  -0.214214  0  2.595742  0
O  O66  1  0.14460804  0.63280765  0.53541435  1  0  -0.162119  -0.21423  0  2.595871  0
