# generated using pymatgen
data_ZnH15C20N2ClO6
_symmetry_space_group_name_H-M   'P 1'
_cell_length_a   7.95022054
_cell_length_b   9.46150371
_cell_length_c   15.47599886
_cell_angle_alpha   75.01793202
_cell_angle_beta   81.17209153
_cell_angle_gamma   60.85102416
_symmetry_Int_Tables_number   1
_chemical_formula_structural   ZnH15C20N2ClO6
_chemical_formula_sum   'Zn2 H30 C40 N4 Cl2 O12'
_cell_volume   981.60770088
_cell_formula_units_Z   2
loop_
 _symmetry_equiv_pos_site_id
 _symmetry_equiv_pos_as_xyz
  1  'x, y, z'
loop_
 _atom_site_type_symbol
 _atom_site_label
 _atom_site_symmetry_multiplicity
 _atom_site_fract_x
 _atom_site_fract_y
 _atom_site_fract_z
 _atom_site_occupancy
 _atom_site_hle17_bader_spin_density
 _atom_site_hle17_ddec_charge
 _atom_site_hle17_ddec_spin_density
 _atom_site_hle17_ddec_sum_bond_order
 _atom_site_hle17_magmom
 _atom_site_hse06_10hf_bader_spin_density
 _atom_site_hse06_10hf_ddec_charge
 _atom_site_hse06_10hf_ddec_spin_density
 _atom_site_hse06_10hf_ddec_sum_bond_order
 _atom_site_hse06_10hf_magmom
 _atom_site_hse06_bader_spin_density
 _atom_site_hse06_ddec_charge
 _atom_site_hse06_ddec_spin_density
 _atom_site_hse06_ddec_sum_bond_order
 _atom_site_hse06_magmom
 _atom_site_pbe_bader_spin_density
 _atom_site_pbe_cm5_charge
 _atom_site_pbe_ddec_charge
 _atom_site_pbe_ddec_spin_density
 _atom_site_pbe_ddec_sum_bond_order
 _atom_site_pbe_magmom
Zn  Zn0  1  0.08013989  0.28631797  0.30632017  1  0  0.984466  0  1.961738  0  0  0.803107  0  2.466296  0  0  0.850027  0  2.407976  0  0  0.604023  0.769479  0  2.507349  0
Zn  Zn1  1  0.91987598  0.71366750  0.69368346  1  0  0.984497  0  1.961848  0  0  0.803137  0  2.466385  0  0  0.850055  0  2.40807  0  0  0.604069  0.769512  0  2.507437  0
H  H2  1  0.51820502  0.80433775  0.87143851  1  0  0.425737  0  0.78866  0  0  0.400336  0  0.858765  0  0  0.411615  0  0.845447  0  0  0.33567  0.392498  0  0.867852  0
H  H3  1  0.48179177  0.19566898  0.12856054  1  0  0.42574  0  0.788717  0  0  0.400343  0  0.858814  0  0  0.411621  0  0.845498  0  0  0.335642  0.392509  0  0.867893  0
H  H4  1  0.87919383  0.12338880  0.43502996  1  0  0.102883  0  0.974632  0  0  0.109821  0  1.036187  0  0  0.113501  0  1.032894  0  0  0.119992  0.106831  0  1.039338  0
H  H5  1  0.12079379  0.87661347  0.56496909  1  0  0.102927  0  0.974674  0  0  0.109826  0  1.036254  0  0  0.113492  0  1.03296  0  0  0.120021  0.106838  0  1.039407  0
H  H6  1  0.16280940  0.11104829  0.08093595  1  0  0.11584  0  0.935119  0  0  0.124025  0  0.998326  0  0  0.128723  0  0.993608  0  0  0.110582  0.120602  0  1.001691  0
H  H7  1  0.83718823  0.88894959  0.91906071  1  0  0.11582  0  0.935134  0  0  0.12401  0  0.998344  0  0  0.128705  0  0.993632  0  0  0.110565  0.120591  0  1.001704  0
H  H8  1  0.97642468  0.78777009  0.26792205  1  0  0.114159  0  0.938294  0  0  0.121772  0  1.002204  0  0  0.126706  0  0.997121  0  0  0.108565  0.117942  0  1.006249  0
H  H9  1  0.02358036  0.21223108  0.73208657  1  0  0.11412  0  0.938335  0  0  0.121761  0  1.002227  0  0  0.126689  0  0.997155  0  0  0.108578  0.117939  0  1.006263  0
H  H10  1  0.28043037  0.64709146  0.02501414  1  0  0.101197  0  0.971285  0  0  0.10908  0  1.040267  0  0  0.11275  0  1.036897  0  0  0.105972  0.106056  0  1.043395  0
H  H11  1  0.71954716  0.35290703  0.97499133  1  0  0.101233  0  0.971226  0  0  0.109028  0  1.040299  0  0  0.112684  0  1.036937  0  0  0.105968  0.106016  0  1.043411  0
H  H12  1  0.54239869  0.18488346  0.68766042  1  0  0.12351  0  0.966456  0  0  0.131557  0  1.026678  0  0  0.134724  0  1.025974  0  0  0.108582  0.127669  0  1.02967  0
H  H13  1  0.45760343  0.81512293  0.31233773  1  0  0.123543  0  0.966455  0  0  0.131584  0  1.026683  0  0  0.134747  0  1.025986  0  0  0.108613  0.127689  0  1.029686  0
H  H14  1  0.69056745  0.15473130  0.57771722  1  0  0.111451  0  0.978799  0  0  0.11792  0  1.043728  0  0  0.120876  0  1.04275  0  0  0.103533  0.115534  0  1.044919  0
H  H15  1  0.30940954  0.84528236  0.42228044  1  0  0.111364  0  0.978937  0  0  0.117959  0  1.043741  0  0  0.120913  0  1.04276  0  0  0.103549  0.115576  0  1.044934  0
H  H16  1  0.36302175  0.22439475  0.83110399  1  0  0.122586  0  0.973323  0  0  0.12888  0  1.036299  0  0  0.132556  0  1.032313  0  0  0.133249  0.126214  0  1.039157  0
H  H17  1  0.63698931  0.77560883  0.16889480  1  0  0.1226  0  0.973234  0  0  0.128927  0  1.036151  0  0  0.1326  0  1.032173  0  0  0.13327  0.12626  0  1.039004  0
H  H18  1  0.69901285  0.62151266  0.54752330  1  0  0.116169  0  0.952045  0  0  0.125507  0  1.012504  0  0  0.128621  0  1.011573  0  0  0.11104  0.122994  0  1.013638  0
H  H19  1  0.30099949  0.37848592  0.45247500  1  0  0.116075  0  0.95203  0  0  0.125466  0  1.012461  0  0  0.128581  0  1.011529  0  0  0.111021  0.122952  0  1.013589  0
H  H20  1  0.54822211  0.65117667  0.66760143  1  0  0.122951  0  0.980628  0  0  0.129557  0  1.04533  0  0  0.132914  0  1.044386  0  0  0.103963  0.125848  0  1.048047  0
H  H21  1  0.45176667  0.34883466  0.33239079  1  0  0.122972  0  0.980561  0  0  0.129585  0  1.045245  0  0  0.132939  0  1.044297  0  0  0.103968  0.12588  0  1.047958  0
H  H22  1  0.89054694  0.56574980  0.40635590  1  0  0.092977  0  0.930888  0  0  0.103197  0  0.988614  0  0  0.105737  0  0.986918  0  0  0.122109  0.101111  0  0.990443  0
H  H23  1  0.10947384  0.43423889  0.59364559  1  0  0.092997  0  0.930963  0  0  0.103195  0  0.988722  0  0  0.105732  0  0.987033  0  0  0.122099  0.101112  0  0.990555  0
H  H24  1  0.37064838  0.66718598  0.81291000  1  0  0.116246  0  0.929979  0  0  0.125136  0  0.98843  0  0  0.127816  0  0.986104  0  0  0.136567  0.123047  0  0.990466  0
H  H25  1  0.62934879  0.33282048  0.18708648  1  0  0.116275  0  0.929943  0  0  0.12513  0  0.988432  0  0  0.127812  0  0.986105  0  0  0.13657  0.123042  0  0.990467  0
H  H26  1  0.12697243  0.58673113  0.90300520  1  0  0.141412  0  0.932488  0  0  0.160226  0  0.991195  0  0  0.16188  0  0.990399  0  0  0.119101  0.158922  0  0.991932  0
H  H27  1  0.87303296  0.41326888  0.09699195  1  0  0.141506  0  0.93242  0  0  0.160289  0  0.991162  0  0  0.161963  0  0.990338  0  0  0.119118  0.15898  0  0.991902  0
H  H28  1  0.34791987  0.44967075  0.96233439  1  0  0.124263  0  0.946935  0  0  0.141217  0  1.013787  0  0  0.14225  0  1.012796  0  0  0.112517  0.140178  0  1.014935  0
H  H29  1  0.65209549  0.55033482  0.03766186  1  0  0.124297  0  0.947035  0  0  0.141261  0  1.013861  0  0  0.142296  0  1.012874  0  0  0.112538  0.14022  0  1.015006  0
H  H30  1  0.21123433  0.36663834  0.93333524  1  0  0.133511  0  0.918779  0  0  0.154376  0  0.974105  0  0  0.155894  0  0.973277  0  0  0.120888  0.153074  0  0.974997  0
H  H31  1  0.78878235  0.63335893  0.06666433  1  0  0.133444  0  0.918796  0  0  0.154333  0  0.974114  0  0  0.155849  0  0.973289  0  0  0.120855  0.153029  0  0.975007  0
C  C32  1  0.22623793  0.88617070  0.04164895  1  0  -0.096322  0  3.79217  0  0  -0.069488  0  4.030392  0  0  -0.081725  0  4.056512  0  0  -0.022913  -0.061661  0  4.012926  0
C  C33  1  0.77374946  0.11383095  0.95835605  1  0  -0.096292  0  3.791662  0  0  -0.069528  0  4.029869  0  0  -0.081766  0  4.055974  0  0  -0.022869  -0.061704  0  4.012412  0
C  C34  1  0.56476343  0.41440682  0.66256532  1  0  0.116656  0  3.708007  0  0  0.122715  0  3.944443  0  0  0.129291  0  3.964226  0  0  0.029394  0.118308  0  3.931092  0
C  C35  1  0.43522964  0.58560245  0.33743284  1  0  0.116704  0  3.708014  0  0  0.122768  0  3.944434  0  0  0.129339  0  3.96421  0  0  0.029447  0.118362  0  3.931074  0
C  C36  1  0.12256488  0.70231025  0.14763474  1  0  -0.080422  0  3.768471  0  0  -0.053216  0  4.006272  0  0  -0.063887  0  4.030238  0  0  -0.022878  -0.046411  0  3.989788  0
C  C37  1  0.87742649  0.29768619  0.85236901  1  0  -0.080441  0  3.768624  0  0  -0.053209  0  4.006396  0  0  -0.063887  0  4.030362  0  0  -0.02279  -0.046392  0  3.989911  0
C  C38  1  0.83787637  0.22986482  0.46420887  1  0  0.132695  0  3.654446  0  0  0.102475  0  3.900718  0  0  0.10857  0  3.917819  0  0  0.052419  0.098241  0  3.889574  0
C  C39  1  0.16211989  0.77013814  0.53578892  1  0  0.132627  0  3.654294  0  0  0.102479  0  3.900588  0  0  0.108588  0  3.917672  0  0  0.052409  0.098247  0  3.889452  0
C  C40  1  0.14753666  0.99860193  0.09850682  1  0  -0.046163  0  3.671437  0  0  -0.087608  0  3.923023  0  0  -0.082594  0  3.94009  0  0  -0.068906  -0.090492  0  3.911532  0
C  C41  1  0.85246144  0.00139403  0.90149533  1  0  -0.046229  0  3.67117  0  0  -0.087656  0  3.922737  0  0  -0.082649  0  3.939809  0  0  -0.068895  -0.09053  0  3.911246  0
C  C42  1  0.05857672  0.96203774  0.18009156  1  0  -0.075565  0  3.75618  0  0  -0.048238  0  3.993101  0  0  -0.058935  0  4.017009  0  0  -0.0219  -0.041632  0  3.97734  0
C  C43  1  0.94141012  0.03796590  0.81990859  1  0  -0.075533  0  3.756074  0  0  -0.048172  0  3.992958  0  0  -0.058869  0  4.016871  0  0  -0.021902  -0.041576  0  3.977214  0
C  C44  1  0.04354388  0.81556593  0.20357427  1  0  -0.038771  0  3.675305  0  0  -0.078975  0  3.924291  0  0  -0.073486  0  3.940063  0  0  -0.068422  -0.081961  0  3.913811  0
C  C45  1  0.95646055  0.18442735  0.79642863  1  0  -0.038722  0  3.67528  0  0  -0.078975  0  3.92428  0  0  -0.073489  0  3.940061  0  0  -0.068496  -0.081971  0  3.913813  0
C  C46  1  0.21440312  0.73804070  0.06686200  1  0  -0.054529  0  3.690851  0  0  -0.097181  0  3.944091  0  0  -0.092366  0  3.962182  0  0  -0.075341  -0.100203  0  3.932206  0
C  C47  1  0.78558662  0.26195683  0.93313970  1  0  -0.054582  0  3.6911  0  0  -0.097161  0  3.944362  0  0  -0.092327  0  3.962442  0  0  -0.075386  -0.10019  0  3.932483  0
C  C48  1  0.67771174  0.39157727  0.57744288  1  0  0.087318  0  3.732071  0  0  0.099637  0  3.96234  0  0  0.102204  0  3.983795  0  0  0.016369  0.097889  0  3.947455  0
C  C49  1  0.32228482  0.60843042  0.42255342  1  0  0.087324  0  3.731785  0  0  0.099646  0  3.962134  0  0  0.102213  0  3.983587  0  0  0.016407  0.097905  0  3.947238  0
C  C50  1  0.12845022  0.53546236  0.17786268  1  0  0.631949  0  3.947121  0  0  0.584531  0  4.238504  0  0  0.617738  0  4.233552  0  0  0.196822  0.562331  0  4.240019  0
C  C51  1  0.87154782  0.46453284  0.82214415  1  0  0.631901  0  3.947249  0  0  0.584473  0  4.238629  0  0  0.617682  0  4.233679  0  0  0.196779  0.562272  0  4.240143  0
C  C52  1  0.33311674  0.92178528  0.95863724  1  0  0.659437  0  3.806373  0  0  0.611034  0  4.10259  0  0  0.643802  0  4.095193  0  0  0.23527  0.588716  0  4.107021  0
C  C53  1  0.66687079  0.07818989  0.04137239  1  0  0.659962  0  3.806843  0  0  0.611699  0  4.102832  0  0  0.644482  0  4.095387  0  0  0.235633  0.589387  0  4.107267  0
C  C54  1  0.50804676  0.29582461  0.71069395  1  0  -0.130674  0  3.666019  0  0  -0.150153  0  3.918329  0  0  -0.158918  0  3.939157  0  0  -0.064317  -0.143956  0  3.905344  0
C  C55  1  0.49195604  0.70417801  0.28930353  1  0  -0.130629  0  3.665966  0  0  -0.150116  0  3.9183  0  0  -0.158889  0  3.939152  0  0  -0.064351  -0.143913  0  3.905306  0
C  C56  1  0.73009807  0.25100887  0.54362811  1  0  -0.112802  0  3.66334  0  0  -0.131532  0  3.908559  0  0  -0.13733  0  3.928598  0  0  -0.066912  -0.127012  0  3.894553  0
C  C57  1  0.26989216  0.74900150  0.45636744  1  0  -0.112725  0  3.663101  0  0  -0.131607  0  3.908348  0  0  -0.137399  0  3.928378  0  0  -0.066921  -0.127091  0  3.894347  0
C  C58  1  0.40625022  0.31509681  0.79114803  1  0  0.100927  0  3.570506  0  0  0.058804  0  3.819316  0  0  0.067369  0  3.834148  0  0  0.071317  0.053235  0  3.808898  0
C  C59  1  0.59375822  0.68490443  0.20885066  1  0  0.100794  0  3.570432  0  0  0.058667  0  3.819233  0  0  0.06723  0  3.834061  0  0  0.071247  0.053098  0  3.808806  0
C  C60  1  0.73610585  0.50776434  0.52675942  1  0  -0.146843  0  3.682257  0  0  -0.166347  0  3.930868  0  0  -0.173416  0  3.952526  0  0  -0.074342  -0.161085  0  3.916025  0
C  C61  1  0.26389946  0.49223821  0.47323857  1  0  -0.146673  0  3.681911  0  0  -0.166242  0  3.930536  0  0  -0.17331  0  3.952193  0  0  -0.074358  -0.160979  0  3.915686  0
C  C62  1  0.00209253  0.06562015  0.24889862  1  0  0.628808  0  3.944257  0  0  0.580406  0  4.237621  0  0  0.613599  0  4.232045  0  0  0.197538  0.557857  0  4.240562  0
C  C63  1  0.99789502  0.93437643  0.75110467  1  0  0.628783  0  3.944643  0  0  0.580356  0  4.237983  0  0  0.613545  0  4.232411  0  0  0.197554  0.557815  0  4.240915  0
C  C64  1  0.51134780  0.55225480  0.69949482  1  0  -0.132571  0  3.656201  0  0  -0.155271  0  3.913247  0  0  -0.163888  0  3.933697  0  0  -0.066955  -0.149162  0  3.900291  0
C  C65  1  0.48865088  0.44775639  0.30050074  1  0  -0.132614  0  3.656367  0  0  -0.155272  0  3.91332  0  0  -0.163899  0  3.933813  0  0  -0.066903  -0.149174  0  3.900366  0
C  C66  1  0.84379304  0.47803908  0.44760041  1  0  0.121292  0  3.700485  0  0  0.09043  0  3.953257  0  0  0.096503  0  3.972543  0  0  0.046481  0.086376  0  3.940309  0
C  C67  1  0.15621832  0.52195853  0.55240005  1  0  0.121221  0  3.700422  0  0  0.09038  0  3.953247  0  0  0.09645  0  3.972536  0  0  0.046529  0.086317  0  3.940312  0
C  C68  1  0.41095863  0.56533710  0.78068088  1  0  0.113106  0  3.567907  0  0  0.069981  0  3.821749  0  0  0.078799  0  3.836731  0  0  0.073403  0.063959  0  3.811705  0
C  C69  1  0.58903765  0.43466832  0.21931713  1  0  0.113087  0  3.567843  0  0  0.069958  0  3.821701  0  0  0.078775  0  3.836673  0  0  0.073314  0.063932  0  3.811662  0
C  C70  1  0.25416573  0.46435776  0.91207942  1  0  -0.19534  0  3.536763  0  0  -0.29952  0  3.779721  0  0  -0.296635  0  3.787156  0  0  -0.124605  -0.301164  0  3.775281  0
C  C71  1  0.74584601  0.53564204  0.08791869  1  0  -0.195366  0  3.536823  0  0  -0.299565  0  3.77979  0  0  -0.296696  0  3.78721  0  0  -0.124592  -0.301202  0  3.775356  0
N  N72  1  0.89596152  0.34060792  0.41700528  1  0  -0.325029  0  3.303358  0  0  -0.242694  0  3.581733  0  0  -0.261562  0  3.597171  0  0  -0.325195  -0.230012  0  3.571239  0
N  N73  1  0.10404250  0.65938894  0.58299638  1  0  -0.325043  0  3.303271  0  0  -0.242723  0  3.581623  0  0  -0.261586  0  3.597054  0  0  -0.32528  -0.230046  0  3.57114  0
N  N74  1  0.36041665  0.44758082  0.82548499  1  0  0.041575  0  3.55349  0  0  0.140912  0  3.76482  0  0  0.127424  0  3.791743  0  0  -0.20776  0.149557  0  3.746737  0
N  N75  1  0.63959276  0.55241891  0.17451133  1  0  0.041566  0  3.553281  0  0  0.140915  0  3.764626  0  0  0.12743  0  3.79155  0  0  -0.207727  0.14956  0  3.746541  0
Cl  Cl76  1  0.38173011  0.10544978  0.35091906  1  0  -0.594797  0  0.83187  0  0  -0.532466  0  1.071097  0  0  -0.54765  0  1.045487  0  0  -0.333684  -0.520183  0  1.090236  0
Cl  Cl77  1  0.61828630  0.89454104  0.64907712  1  0  -0.594878  0  0.831868  0  0  -0.532516  0  1.071071  0  0  -0.547706  0  1.045464  0  0  -0.333731  -0.520232  0  1.090208  0
O  O78  1  0.03704715  0.51542163  0.25338678  1  0  -0.660531  0  2.063311  0  0  -0.588199  0  2.341589  0  0  -0.617652  0  2.328381  0  0  -0.339289  -0.5668  0  2.349889  0
O  O79  1  0.96295019  0.48457240  0.74662029  1  0  -0.660575  0  2.063241  0  0  -0.588232  0  2.341523  0  0  -0.617687  0  2.328317  0  0  -0.33942  -0.566836  0  2.349828  0
O  O80  1  0.42071779  0.79362329  0.91648041  1  0  -0.556319  0  2.107107  0  0  -0.506307  0  2.328134  0  0  -0.527061  0  2.312751  0  0  -0.328412  -0.491533  0  2.338407  0
O  O81  1  0.57929720  0.20636362  0.08352496  1  0  -0.5565  0  2.107037  0  0  -0.506516  0  2.327957  0  0  -0.527275  0  2.312561  0  0  -0.328462  -0.491747  0  2.338222  0
O  O82  1  0.34589423  0.05027612  0.93227801  1  0  -0.549152  0  1.969319  0  0  -0.511368  0  2.189172  0  0  -0.532241  0  2.182289  0  0  -0.282599  -0.497021  0  2.193709  0
O  O83  1  0.65409038  0.94974879  0.06771336  1  0  -0.549278  0  1.97064  0  0  -0.51158  0  2.190479  0  0  -0.532448  0  2.183569  0  0  -0.282776  -0.497242  0  2.195026  0
O  O84  1  0.22193085  0.42741610  0.13240763  1  0  -0.621528  0  1.930245  0  0  -0.57668  0  2.158268  0  0  -0.599451  0  2.149827  0  0  -0.325242  -0.559337  0  2.162476  0
O  O85  1  0.77809405  0.57257315  0.86760130  1  0  -0.621512  0  1.930316  0  0  -0.576628  0  2.158306  0  0  -0.599391  0  2.149846  0  0  -0.325156  -0.559285  0  2.162511  0
O  O86  1  0.96257792  0.01070557  0.32723478  1  0  -0.593642  0  1.936789  0  0  -0.550125  0  2.154643  0  0  -0.572784  0  2.147977  0  0  -0.315196  -0.534042  0  2.158787  0
O  O87  1  0.03740214  0.98928866  0.67276611  1  0  -0.593721  0  1.936983  0  0  -0.550209  0  2.154886  0  0  -0.572868  0  2.148227  0  0  -0.315227  -0.534124  0  2.159021  0
O  O88  1  0.00845148  0.20504688  0.22039139  1  0  -0.672107  0  2.117634  0  0  -0.601268  0  2.404517  0  0  -0.630289  0  2.388942  0  0  -0.340484  -0.5808  0  2.414928  0
O  O89  1  0.99153115  0.79495470  0.77961065  1  0  -0.672079  0  2.117797  0  0  -0.601276  0  2.404855  0  0  -0.630292  0  2.38927  0  0  -0.340539  -0.580803  0  2.415253  0
