# generated using pymatgen
data_Al6H33C78(O6F)5
_symmetry_space_group_name_H-M   'P 1'
_cell_length_a   12.60391907
_cell_length_b   12.13565742
_cell_length_c   28.01546629
_cell_angle_alpha   90.02969909
_cell_angle_beta   88.82712131
_cell_angle_gamma   60.55325341
_symmetry_Int_Tables_number   1
_chemical_formula_structural   Al6H33C78(O6F)5
_chemical_formula_sum   'Al6 H33 C78 O30 F5'
_cell_volume   3730.51332775
_cell_formula_units_Z   1
loop_
 _symmetry_equiv_pos_site_id
 _symmetry_equiv_pos_as_xyz
  1  'x, y, z'
loop_
 _atom_site_type_symbol
 _atom_site_label
 _atom_site_symmetry_multiplicity
 _atom_site_fract_x
 _atom_site_fract_y
 _atom_site_fract_z
 _atom_site_occupancy
 _atom_site_pbe_bader_charge
 _atom_site_pbe_bader_spin_density
 _atom_site_pbe_cm5_charge
 _atom_site_pbe_ddec_charge
 _atom_site_pbe_ddec_spin_density
 _atom_site_pbe_ddec_sum_bond_order
 _atom_site_pbe_magmom
Al  Al0  1  0.40710100  0.19450159  0.49519015  1  2.487625  0  0.396377  1.686958  0  2.557433  0
Al  Al1  1  0.40487590  0.93099564  0.49812209  1  2.482411  0  0.511842  1.664431  0  2.496198  0
Al  Al2  1  0.64797235  0.92104817  0.49666849  1  2.472725  0  0.506475  1.662405  0  2.509578  0
Al  Al3  1  0.92888213  0.14894585  0.98279050  1  2.495723  0  0.398955  1.687722  0  2.552276  0
Al  Al4  1  0.67471107  0.41150351  0.98198795  1  2.476754  0  0.506396  1.663224  0  2.502883  0
Al  Al5  1  0.90884569  0.42128966  0.98121904  1  2.480795  0  0.507698  1.660343  0  2.50566  0
H  H6  1  0.73979342  0.48333434  0.29106298  1  0.079547  0  0.116307  0.121473  0  0.978219  0
H  H7  1  0.99458084  0.39195967  0.21347763  1  0.080685  0  0.106246  0.108587  0  1.004229  0
H  H8  1  0.27101072  0.00529491  0.18463594  1  0.084107  0  0.111958  0.116194  0  0.980894  0
H  H9  1  0.30878907  0.97145571  0.27169149  1  0.10135  0  0.107029  0.111288  0  0.997512  0
H  H10  1  0.42458072  0.77919123  0.62525276  1  0.144467  0  0.111716  0.114888  0  0.996999  0
H  H11  1  0.86817451  0.42891508  0.83753775  1  0.132988  0  0.112958  0.134482  0  1.023539  0
H  H12  1  0.45191420  0.72453647  0.71147835  1  0.049506  0  0.102304  0.104723  0  0.999069  0
H  H13  1  0.48700509  0.80352739  0.78676395  1  0.097052  0  0.097277  0.098541  0  1.054583  0
H  H14  1  0.51521249  0.74968882  0.87225414  1  0.101193  0  0.111941  0.11794  0  0.986069  0
H  H15  1  0.82697795  0.63695867  0.69824238  1  0.071546  0  0.106319  0.112285  0  0.993429  0
H  H16  1  0.76274244  0.45202784  0.20316521  1  0.089763  0  0.113164  0.119334  0  0.994492  0
H  H17  1  0.79880865  0.69075595  0.61255325  1  0.104881  0  0.115646  0.119691  0  0.979184  0
H  H18  1  0.74942673  0.92156081  0.62663393  1  0.139718  0  0.117336  0.142156  0  1.000902  0
H  H19  1  0.49715197  0.31502563  0.77569421  1  0.065496  0  0.103726  0.106331  0  1.003088  0
H  H20  1  0.52338173  0.35360272  0.86087321  1  0.100529  0  0.112862  0.11769  0  0.984943  0
H  H21  1  0.87194823  0.01604250  0.76729846  1  0.083874  0  0.100836  0.104692  0  1.007103  0
H  H22  1  0.89450639  0.05208199  0.85322113  1  0.138537  0  0.119453  0.128772  0  0.978364  0
H  H23  1  0.55609064  0.34888610  0.70147902  1  0.090587  0  0.115347  0.138422  0  0.985434  0
H  H24  1  0.31157864  0.27209942  0.62468266  1  0.148471  0  0.128086  0.16015  0  0.973273  0
H  H25  1  0.58189867  0.85861953  0.18518052  1  0.107525  0  0.123301  0.151913  0  0.970042  0
H  H26  1  0.09991570  0.39038492  0.77118504  1  0.06147  0  0.101734  0.112105  0  0.999556  0
H  H27  1  0.05110930  0.41448402  0.85844819  1  0.132899  0  0.111492  0.120466  0  0.994237  0
H  H28  1  0.13598033  0.04052446  0.71212613  1  0.072673  0  0.109932  0.114628  0  0.989424  0
H  H29  1  0.18259226  0.00274298  0.62486305  1  0.099915  0  0.114479  0.122357  0  0.982001  0
H  H30  1  0.75537874  0.94713324  0.27094979  1  0.092436  0  0.109955  0.114145  0  0.986542  0
H  H31  1  0.75146865  0.98200051  0.18308579  1  0.085796  0  0.112804  0.117062  0  0.98007  0
H  H32  1  0.58603303  0.38440226  0.20824049  1  0.090614  0  0.109437  0.112527  0  0.993239  0
H  H33  1  0.59079511  0.34935768  0.29605477  1  0.075231  0  0.112425  0.116322  0  0.982294  0
H  H34  1  0.03145431  0.35766385  0.30049120  1  0.08692  0  0.111386  0.115374  0  0.98358  0
H  H35  1  0.29970151  0.95811749  0.74994457  1  0.62679  0  0.318627  0.348115  0  0.934665  0
H  H36  1  0.26510698  0.91520748  0.85511342  1  0.615051  0  0.337114  0.373139  0  0.874843  0
H  H37  1  0.31722904  0.39863331  0.46403679  1  0.601663  0  0.294109  0.384679  0  0.92027  0
H  H38  1  0.03688029  0.94484596  0.01352568  1  0.591445  0  0.29372  0.384075  0  0.92143  0
C  C39  1  0.27285402  0.10641939  0.42985739  1  1.673958  0  0.27884  0.714514  0  4.155429  0
C  C40  1  0.61687912  0.77553532  0.20775031  1  0.115641  0  -0.086676  -0.253031  0  3.941734  0
C  C41  1  0.60460565  0.79012346  0.25688577  1  0.427446  0  0.109856  0.251037  0  4.042906  0
C  C42  1  0.64770895  0.68721148  0.28840244  1  0.093701  0  -0.004836  0.012157  0  4.122257  0
C  C43  1  0.67422751  0.65252016  0.18773856  1  0.054948  0  0.009326  0.152918  0  4.109952  0
C  C44  1  0.68620520  0.63457347  0.13748906  1  -0.080428  0  -0.003206  -0.003677  0  4.02766  0
C  C45  1  0.63262410  0.70868771  0.33836484  1  -0.429334  0  -0.009317  0.004272  0  4.071578  0
C  C46  1  0.69619483  0.61703830  0.09439336  1  -0.189393  0  -0.022991  -0.17724  0  3.897087  0
C  C47  1  0.66211597  0.11158771  0.38124197  1  0.215422  0  -0.035236  -0.192999  0  3.93941  0
C  C48  1  0.71914362  0.04226370  0.25687731  1  -0.013665  0  -0.074341  -0.111137  0  3.956318  0
C  C49  1  0.71629183  0.06169962  0.20809666  1  -0.047028  0  -0.074875  -0.115855  0  3.949467  0
C  C50  1  0.59397527  0.78023967  0.42941059  1  1.656287  0  0.288338  0.724191  0  4.141931  0
C  C51  1  0.62325236  0.28904256  0.22225369  1  -0.03949  0  -0.077872  -0.119944  0  3.959147  0
C  C52  1  0.62625392  0.26959738  0.27106392  1  -0.014937  0  -0.074374  -0.114889  0  3.95299  0
C  C53  1  0.67385791  0.14591978  0.28905961  1  0.114726  0  0.006175  0.125188  0  4.106924  0
C  C54  1  0.66823432  0.18534700  0.19006561  1  0.138008  0  0.005425  0.128474  0  4.110371  0
C  C55  1  0.66920008  0.20416869  0.14036396  1  -0.515303  0  -0.016897  -0.027648  0  4.082147  0
C  C56  1  0.67088621  0.12660232  0.33864537  1  -0.502742  0  -0.01201  -0.015491  0  4.073637  0
C  C57  1  0.67565226  0.21769689  0.09751938  1  0.235664  0  -0.033267  -0.185367  0  3.939693  0
C  C58  1  0.22105078  0.12644829  0.38326260  1  0.213014  0  -0.034582  -0.191463  0  3.929017  0
C  C59  1  0.08320907  0.28084387  0.27496771  1  -0.035789  0  -0.076606  -0.118244  0  3.956515  0
C  C60  1  0.06282341  0.29996977  0.22646187  1  -0.028154  0  -0.079817  -0.120611  0  3.960067  0
C  C61  1  0.62695767  0.09417478  0.42843920  1  1.663603  0  0.279582  0.716893  0  4.159062  0
C  C62  1  0.21900812  0.08197923  0.21018324  1  -0.052531  0  -0.075645  -0.116493  0  3.949474  0
C  C63  1  0.23960592  0.06284895  0.25867405  1  -0.049731  0  -0.076419  -0.113195  0  3.950813  0
C  C64  1  0.17199757  0.16191064  0.29184717  1  0.113378  0  0.00624  0.12666  0  4.103058  0
C  C65  1  0.13000619  0.20077430  0.19327850  1  0.091579  0  0.004471  0.128512  0  4.106385  0
C  C66  1  0.10550619  0.21962218  0.14401227  1  -0.57398  0  -0.017473  -0.027062  0  4.07973  0
C  C67  1  0.19638229  0.14271206  0.34110031  1  -0.455112  0  -0.010539  -0.01303  0  4.063077  0
C  C68  1  0.08109249  0.23512231  0.10182317  1  0.324799  0  -0.035233  -0.188202  0  3.939146  0
C  C69  1  0.61025850  0.73688504  0.61337061  1  -0.059559  0  -0.015791  -0.058238  0  3.983898  0
C  C70  1  0.51251985  0.74693550  0.64162002  1  -0.060768  0  -0.075212  -0.073746  0  3.968716  0
C  C71  1  0.52804557  0.71782232  0.68992743  1  -0.066079  0  -0.090156  -0.14266  0  3.976493  0
C  C72  1  0.28175282  0.11366469  0.56768290  1  1.57189  0  0.273545  0.630972  0  4.100661  0
C  C73  1  0.64152491  0.67650315  0.71120556  1  -0.004129  0  0.003706  0.101084  0  3.981778  0
C  C74  1  0.73899349  0.66642678  0.68242572  1  0.028028  0  -0.083245  -0.126716  0  3.963458  0
C  C75  1  0.72348178  0.69680898  0.63436119  1  -0.009847  0  -0.073264  -0.073371  0  3.966633  0
C  C76  1  0.76340028  0.54031747  0.77923617  1  0.432159  0  0.103133  0.249949  0  4.029291  0
C  C77  1  0.78396280  0.51156293  0.82715010  1  0.019465  0  -0.090646  -0.219617  0  3.968683  0
C  C78  1  0.58552312  0.69052588  0.84600029  1  -0.000874  0  -0.084458  -0.109679  0  3.981632  0
C  C79  1  0.56958622  0.71946854  0.79764160  1  -0.004827  0  -0.085718  -0.104967  0  3.981428  0
C  C80  1  0.65805966  0.64552310  0.76253878  1  -0.014691  0  -0.010733  -0.041849  0  3.996123  0
C  C81  1  0.69444847  0.58767498  0.86109604  1  -0.041056  0  -0.004166  -0.00238  0  3.97307  0
C  C82  1  0.63554890  0.12173634  0.61517932  1  0.022734  0  -0.020217  -0.134265  0  3.985517  0
C  C83  1  0.59049294  0.78044873  0.56326659  1  1.531711  0  0.278523  0.648562  0  4.080283  0
C  C84  1  0.70751670  0.01548567  0.64294356  1  0.071112  0  -0.089648  -0.196199  0  3.99546  0
C  C85  1  0.72180907  0.02952203  0.69092665  1  0.432646  0  0.093049  0.223664  0  4.04558  0
C  C86  1  0.66829495  0.14804128  0.71424898  1  0.03114  0  -0.003306  -0.000609  0  4.010956  0
C  C87  1  0.59771686  0.25393222  0.68602354  1  0.034299  0  -0.094454  -0.243546  0  3.988177  0
C  C88  1  0.58145573  0.24064662  0.63800281  1  0.462869  0  0.107017  0.274997  0  4.06156  0
C  C89  1  0.58515539  0.25888766  0.79231622  1  -0.053079  0  -0.087797  -0.133843  0  3.970054  0
C  C90  1  0.59875877  0.27963950  0.84003666  1  -0.014084  0  -0.076895  -0.078396  0  3.975329  0
C  C91  1  0.80836010  0.10884237  0.83546637  1  -0.106862  0  -0.073558  -0.076165  0  3.959869  0
C  C92  1  0.79496080  0.08913769  0.78768459  1  0.012069  0  -0.088383  -0.132054  0  3.982232  0
C  C93  1  0.68321531  0.16421094  0.76534958  1  -0.074889  0  -0.002958  0.088899  0  3.995858  0
C  C94  1  0.61168033  0.10188097  0.56505537  1  1.565406  0  0.271592  0.65202  0  4.096322  0
C  C95  1  0.71060644  0.20446259  0.86183236  1  0.025887  0  -0.014198  -0.048751  0  3.988176  0
C  C96  1  0.24939893  0.13510304  0.61954227  1  -0.020643  0  -0.007639  -0.01239  0  3.981996  0
C  C97  1  0.27491414  0.21983809  0.64404285  1  0.060509  0  -0.079142  -0.204431  0  3.940215  0
C  C98  1  0.25551747  0.23327055  0.69298269  1  0.432983  0  0.102309  0.247542  0  4.028791  0
C  C99  1  0.20720235  0.16913394  0.71943825  1  -0.031695  0  -0.010662  -0.02091  0  4.01115  0
C  C100  1  0.17969106  0.08697515  0.69333566  1  -0.087631  0  -0.09309  -0.146996  0  4.020055  0
C  C101  1  0.20234364  0.06798344  0.64436945  1  0.006766  0  -0.082988  -0.09927  0  4.000683  0
C  C102  1  0.21919228  0.08098648  0.80066818  1  0.441891  0  0.062252  0.122043  0  4.064992  0
C  C103  1  0.18988851  0.09379243  0.84987515  1  0.560232  0  0.088167  0.211653  0  4.053894  0
C  C104  1  0.09916306  0.32103870  0.84169350  1  -0.045772  0  -0.092421  -0.102275  0  4.039025  0
C  C105  1  0.61816217  0.73082740  0.38115994  1  0.257067  0  -0.022607  -0.175624  0  3.896662  0
C  C106  1  0.12698046  0.30741461  0.79323374  1  -0.017758  0  -0.102705  -0.143273  0  4.04537  0
C  C107  1  0.18485280  0.18651424  0.77149758  1  0.045846  0  -0.022991  -0.021889  0  4.058476  0
C  C108  1  0.12534199  0.21581987  0.87037485  1  0.009081  0  -0.02366  -0.145093  0  3.967456  0
C  C109  1  0.70557567  0.23663092  0.04958431  1  1.669604  0  0.276571  0.708393  0  4.167948  0
C  C110  1  0.71612769  0.56973663  0.04596646  1  1.688107  0  0.290037  0.721759  0  4.146814  0
C  C111  1  0.03544839  0.25254629  0.05412358  1  1.656114  0  0.275295  0.713374  0  4.15993  0
C  C112  1  0.73071386  0.22803922  0.91192346  1  1.569514  0  0.27287  0.633254  0  4.101717  0
C  C113  1  0.71936349  0.55032486  0.91214164  1  1.559764  0  0.282404  0.656426  0  4.063671  0
C  C114  1  0.06720085  0.23917007  0.91864915  1  1.556196  0  0.271657  0.651067  0  4.083764  0
C  C115  1  0.70546685  0.56477416  0.26760699  1  0.043485  0  -0.072605  -0.096104  0  3.960881  0
C  C116  1  0.71838351  0.54736973  0.21839849  1  -0.052439  0  -0.082032  -0.144426  0  3.965287  0
O  O117  1  0.52306560  0.17766534  0.44370218  1  -1.218314  0  -0.208115  -0.564647  0  2.29777  0
O  O118  1  0.48927966  0.80646728  0.54427076  1  -1.264084  0  -0.2337  -0.598353  0  2.301297  0
O  O119  1  0.67331583  0.79664308  0.54243739  1  -1.262919  0  -0.235026  -0.601771  0  2.300337  0
O  O120  1  0.68959892  0.99501490  0.54548084  1  -1.271008  0  -0.249769  -0.612478  0  2.27935  0
O  O121  1  0.48780146  0.01296107  0.49631044  1  -1.611254  0  -0.391549  -1.271399  0  2.288837  0
O  O122  1  0.02028446  0.16516307  0.03685860  1  -1.216092  0  -0.211713  -0.565643  0  2.287042  0
O  O123  1  0.80942342  0.15717561  0.03319028  1  -1.213324  0  -0.206035  -0.553879  0  2.288825  0
O  O124  1  0.62539181  0.33691263  0.02831580  1  -1.255298  0  -0.243142  -0.60274  0  2.221783  0
O  O125  1  0.64183457  0.53531754  0.03120124  1  -1.222768  0  -0.217904  -0.57178  0  2.250791  0
O  O126  1  0.80945549  0.55885661  0.02279213  1  -1.238535  0  -0.224154  -0.580451  0  2.225216  0
O  O127  1  0.00999288  0.35786856  0.03393122  1  -1.251069  0  -0.241843  -0.60561  0  2.238482  0
O  O128  1  0.30522548  0.18411712  0.44378073  1  -1.212013  0  -0.20659  -0.557814  0  2.289531  0
O  O129  1  0.03912442  0.16018525  0.93517756  1  -1.226749  0  -0.203717  -0.543469  0  2.354561  0
O  O130  1  0.83115666  0.15165765  0.93002353  1  -1.24918  0  -0.207636  -0.547311  0  2.357566  0
O  O131  1  0.64521738  0.32829160  0.93300538  1  -1.275528  0  -0.25028  -0.622689  0  2.292501  0
O  O132  1  0.63721850  0.54136314  0.93676355  1  -1.258798  0  -0.233636  -0.593736  0  2.259295  0
O  O133  1  0.82449218  0.52226777  0.92711322  1  -1.258125  0  -0.2286  -0.588946  0  2.288956  0
O  O134  1  0.03969239  0.34628021  0.93922837  1  -1.273485  0  -0.252107  -0.619129  0  2.261837  0
O  O135  1  0.83528767  0.33013137  0.98313795  1  -1.610257  0  -0.39194  -1.273425  0  2.299354  0
O  O136  1  0.28640097  0.00790792  0.45273237  1  -1.258856  0  -0.24375  -0.608112  0  2.223737  0
O  O137  1  0.49132298  0.80705494  0.44866860  1  -1.239052  0  -0.221669  -0.578576  0  2.237636  0
O  O138  1  0.67531428  0.79961115  0.44779944  1  -1.222386  0  -0.221884  -0.578678  0  2.245178  0
O  O139  1  0.70166336  0.99273815  0.45043842  1  -1.254425  0  -0.242083  -0.604494  0  2.229059  0
O  O140  1  0.51600018  0.18513237  0.54616045  1  -1.224563  0  -0.207855  -0.549314  0  2.35592  0
O  O141  1  0.30272042  0.19302566  0.54674977  1  -1.237722  0  -0.207601  -0.543986  0  2.362364  0
O  O142  1  0.29201935  0.01203010  0.54837866  1  -1.266192  0  -0.248159  -0.61079  0  2.267951  0
O  O143  1  0.28378399  0.95744213  0.78425985  1  -1.158317  0  -0.358792  -0.46013  0  2.359998  0
O  O144  1  0.22529076  0.98878290  0.87652636  1  -1.094633  0  -0.327199  -0.393835  0  2.272607  0
O  O145  1  0.33063615  0.36008950  0.49510152  1  -1.385171  0  -0.577324  -0.993751  0  1.791488  0
O  O146  1  0.00994488  0.98340326  0.98275835  1  -1.378387  0  -0.577166  -0.993757  0  1.792908  0
F  F147  1  0.85025076  0.45976583  0.74718028  1  -0.64013  0  -0.098783  -0.147918  0  1.34921  0
F  F148  1  0.78836623  0.92185894  0.71649784  1  -0.639706  0  -0.104756  -0.151283  0  1.343166  0
F  F149  1  0.51321844  0.34757190  0.61328073  1  -0.622067  0  -0.089506  -0.123622  0  1.343502  0
F  F150  1  0.28653101  0.31168002  0.71637112  1  -0.638337  0  -0.100466  -0.147393  0  1.338984  0
F  F151  1  0.54824332  0.90916101  0.27570374  1  -0.628465  0  -0.08514  -0.133884  0  1.364828  0
