# generated using pymatgen
data_CdH14C26(NO)4
_symmetry_space_group_name_H-M   'P 1'
_cell_length_a   7.17628032
_cell_length_b   12.52114665
_cell_length_c   12.52114505
_cell_angle_alpha   66.95700101
_cell_angle_beta   80.21580236
_cell_angle_gamma   80.21568249
_symmetry_Int_Tables_number   1
_chemical_formula_structural   CdH14C26(NO)4
_chemical_formula_sum   'Cd2 H28 C52 N8 O8'
_cell_volume   1013.60526285
_cell_formula_units_Z   2
loop_
 _symmetry_equiv_pos_site_id
 _symmetry_equiv_pos_as_xyz
  1  'x, y, z'
loop_
 _atom_site_type_symbol
 _atom_site_label
 _atom_site_symmetry_multiplicity
 _atom_site_fract_x
 _atom_site_fract_y
 _atom_site_fract_z
 _atom_site_occupancy
 _atom_site_hle17_bader_spin_density
 _atom_site_hle17_ddec_charge
 _atom_site_hle17_ddec_spin_density
 _atom_site_hle17_ddec_sum_bond_order
 _atom_site_hle17_magmom
 _atom_site_hse06_10hf_bader_spin_density
 _atom_site_hse06_10hf_ddec_charge
 _atom_site_hse06_10hf_ddec_spin_density
 _atom_site_hse06_10hf_ddec_sum_bond_order
 _atom_site_hse06_10hf_magmom
 _atom_site_hse06_bader_spin_density
 _atom_site_hse06_ddec_charge
 _atom_site_hse06_ddec_spin_density
 _atom_site_hse06_ddec_sum_bond_order
 _atom_site_hse06_magmom
 _atom_site_pbe_bader_spin_density
 _atom_site_pbe_cm5_charge
 _atom_site_pbe_ddec_charge
 _atom_site_pbe_ddec_spin_density
 _atom_site_pbe_ddec_sum_bond_order
 _atom_site_pbe_magmom
Cd  Cd0  1  0.75000129  0.40908625  0.59091316  1  0  1.187179  0  1.671684  0  0  0.997475  0  2.134301  0  0  1.054863  0  2.076339  0  0  0.787864  0.956443  0  2.174257  0
Cd  Cd1  1  0.25000201  0.59091314  0.40908855  1  0  1.187207  0  1.67165  0  0  0.997499  0  2.134262  0  0  1.054889  0  2.076298  0  0  0.787868  0.956468  0  2.174217  0
H  H2  1  0.79427570  0.31343591  0.28176233  1  0  0.102971  0  0.952354  0  0  0.113447  0  1.011477  0  0  0.116792  0  1.009956  0  0  0.102336  0.110937  0  1.012729  0
H  H3  1  0.70572870  0.71823707  0.68656571  1  0  0.102941  0  0.952271  0  0  0.113378  0  1.011439  0  0  0.116732  0  1.009907  0  0  0.102322  0.110869  0  1.012687  0
H  H4  1  0.20572445  0.68656522  0.71823821  1  0  0.102957  0  0.952321  0  0  0.113399  0  1.011481  0  0  0.11676  0  1.009942  0  0  0.10233  0.110888  0  1.01273  0
H  H5  1  0.29427759  0.28176143  0.31343366  1  0  0.102941  0  0.952274  0  0  0.113381  0  1.011446  0  0  0.116741  0  1.009909  0  0  0.102307  0.110872  0  1.012695  0
H  H6  1  0.63357535  0.81719394  0.28783080  1  0  0.093794  0  0.97643  0  0  0.098921  0  1.042956  0  0  0.101716  0  1.041473  0  0  0.113536  0.096821  0  1.044217  0
H  H7  1  0.86642877  0.71216852  0.18280630  1  0  0.093782  0  0.976435  0  0  0.098942  0  1.042931  0  0  0.101738  0  1.041447  0  0  0.113551  0.096841  0  1.044197  0
H  H8  1  0.36642795  0.18280545  0.71216851  1  0  0.093832  0  0.976406  0  0  0.098926  0  1.042969  0  0  0.101723  0  1.041485  0  0  0.113534  0.096825  0  1.044235  0
H  H9  1  0.13357170  0.28783086  0.81719170  1  0  0.093764  0  0.97643  0  0  0.09892  0  1.042938  0  0  0.101717  0  1.041452  0  0  0.11357  0.096822  0  1.044198  0
H  H10  1  0.46569183  0.17716215  0.12603562  1  0  0.104188  0  0.953772  0  0  0.112168  0  1.019267  0  0  0.115343  0  1.016561  0  0  0.110344  0.10986  0  1.021229  0
H  H11  1  0.03431671  0.87396208  0.82283461  1  0  0.104134  0  0.953804  0  0  0.112118  0  1.019296  0  0  0.115291  0  1.016594  0  0  0.110338  0.10981  0  1.021256  0
H  H12  1  0.53430847  0.82283811  0.87396285  1  0  0.104174  0  0.953778  0  0  0.112151  0  1.019283  0  0  0.115326  0  1.016578  0  0  0.110338  0.109843  0  1.021245  0
H  H13  1  0.96568753  0.12603992  0.17716279  1  0  0.10415  0  0.953778  0  0  0.112123  0  1.019288  0  0  0.115297  0  1.016585  0  0  0.110337  0.109815  0  1.021249  0
H  H14  1  0.10423262  0.61260739  0.12970801  1  0  0.102329  0  0.975309  0  0  0.109931  0  1.042342  0  0  0.11311  0  1.040814  0  0  0.103149  0.10764  0  1.043511  0
H  H15  1  0.39576326  0.87028934  0.38739977  1  0  0.102345  0  0.975327  0  0  0.109947  0  1.042352  0  0  0.113124  0  1.040827  0  0  0.103166  0.107657  0  1.04352  0
H  H16  1  0.89576863  0.38739549  0.87029173  1  0  0.102314  0  0.97535  0  0  0.109921  0  1.042373  0  0  0.113098  0  1.040846  0  0  0.103142  0.10763  0  1.043542  0
H  H17  1  0.60423455  0.12970918  0.61260441  1  0  0.102297  0  0.975359  0  0  0.109891  0  1.042401  0  0  0.113067  0  1.040876  0  0  0.103144  0.107601  0  1.04357  0
H  H18  1  0.80119278  0.30523927  0.08470475  1  0  0.088382  0  0.974514  0  0  0.097681  0  1.04059  0  0  0.100529  0  1.039786  0  0  0.095111  0.095599  0  1.041343  0
H  H19  1  0.69881312  0.91529415  0.69476142  1  0  0.088322  0  0.974569  0  0  0.097631  0  1.040629  0  0  0.100477  0  1.039828  0  0  0.095087  0.09555  0  1.041379  0
H  H20  1  0.19880863  0.69476273  0.91529453  1  0  0.088361  0  0.974532  0  0  0.097658  0  1.04061  0  0  0.100505  0  1.039807  0  0  0.095107  0.095576  0  1.041361  0
H  H21  1  0.30118909  0.08470348  0.30524108  1  0  0.08835  0  0.97457  0  0  0.097661  0  1.040631  0  0  0.100508  0  1.03983  0  0  0.095099  0.095579  0  1.041384  0
H  H22  1  0.36211377  0.39062883  0.01477308  1  0  0.106229  0  0.95613  0  0  0.118035  0  1.010406  0  0  0.120134  0  1.011888  0  0  0.108451  0.116531  0  1.009494  0
H  H23  1  0.13789348  0.98522591  0.60937014  1  0  0.106246  0  0.956149  0  0  0.118082  0  1.010386  0  0  0.120182  0  1.011868  0  0  0.108466  0.116578  0  1.009474  0
H  H24  1  0.63788670  0.60937056  0.98522731  1  0  0.106207  0  0.956126  0  0  0.118015  0  1.010398  0  0  0.120114  0  1.011879  0  0  0.108441  0.116511  0  1.009485  0
H  H25  1  0.86211075  0.01477609  0.39062806  1  0  0.106271  0  0.956086  0  0  0.118082  0  1.010354  0  0  0.120181  0  1.011836  0  0  0.108485  0.116578  0  1.009442  0
H  H26  1  0.47792664  0.47775467  0.80014070  1  0  0.089911  0  0.95033  0  0  0.096044  0  1.0158  0  0  0.098413  0  1.014446  0  0  0.117939  0.094262  0  1.016889  0
H  H27  1  0.02207911  0.19985768  0.52224457  1  0  0.089996  0  0.950279  0  0  0.096103  0  1.015763  0  0  0.098473  0  1.01441  0  0  0.117979  0.094321  0  1.016853  0
H  H28  1  0.52207367  0.52224559  0.19986016  1  0  0.089907  0  0.950344  0  0  0.096052  0  1.015802  0  0  0.098419  0  1.01445  0  0  0.117954  0.094269  0  1.016892  0
H  H29  1  0.97792104  0.80014346  0.47775437  1  0  0.089874  0  0.950315  0  0  0.096014  0  1.015785  0  0  0.098384  0  1.014429  0  0  0.117935  0.094231  0  1.016875  0
C  C30  1  0.68924300  0.03020949  0.03248749  1  0  0.120511  0  3.779879  0  0  0.116262  0  4.028783  0  0  0.119011  0  4.049781  0  0  0.115351  0.114325  0  4.014653  0
C  C31  1  0.81075313  0.96751018  0.96979017  1  0  0.120606  0  3.779812  0  0  0.116366  0  4.028676  0  0  0.119113  0  4.049674  0  0  0.115367  0.114428  0  4.014547  0
C  C32  1  0.31075464  0.96978990  0.96751237  1  0  0.120502  0  3.77994  0  0  0.116277  0  4.028733  0  0  0.119026  0  4.049734  0  0  0.115352  0.114339  0  4.014606  0
C  C33  1  0.18924450  0.03248921  0.03020890  1  0  0.12055  0  3.77984  0  0  0.116317  0  4.028676  0  0  0.119064  0  4.049676  0  0  0.115344  0.11438  0  4.014545  0
C  C34  1  0.68767215  0.21090756  0.85381418  1  0  0.14191  0  3.754762  0  0  0.131522  0  4.000961  0  0  0.136688  0  4.021964  0  0  0.124105  0.128076  0  3.98679  0
C  C35  1  0.81232628  0.14618310  0.78908894  1  0  0.142011  0  3.75463  0  0  0.131517  0  4.00092  0  0  0.136683  0  4.021924  0  0  0.124128  0.128069  0  3.986749  0
C  C36  1  0.31232690  0.78909182  0.14618555  1  0  0.141885  0  3.75482  0  0  0.131458  0  4.001006  0  0  0.136624  0  4.022011  0  0  0.124095  0.128012  0  3.986834  0
C  C37  1  0.18767120  0.85381716  0.21090900  1  0  0.142147  0  3.754647  0  0  0.131671  0  4.000903  0  0  0.136837  0  4.021903  0  0  0.124198  0.128224  0  3.986732  0
C  C38  1  0.86411082  0.37623152  0.20385050  1  0  -0.08071  0  3.755589  0  0  -0.103019  0  4.001507  0  0  -0.103575  0  4.021845  0  0  -0.09046  -0.102426  0  3.987726  0
C  C39  1  0.63589347  0.79614940  0.62376999  1  0  -0.080592  0  3.755356  0  0  -0.102845  0  4.001281  0  0  -0.10341  0  4.021619  0  0  -0.090419  -0.102254  0  3.987496  0
C  C40  1  0.13589075  0.62376961  0.79614990  1  0  -0.080622  0  3.755504  0  0  -0.10288  0  4.001431  0  0  -0.103448  0  4.021763  0  0  -0.090422  -0.102288  0  3.987646  0
C  C41  1  0.36410748  0.20384737  0.37623138  1  0  -0.080626  0  3.755354  0  0  -0.102876  0  4.001291  0  0  -0.103445  0  4.021628  0  0  -0.090409  -0.102282  0  3.987509  0
C  C42  1  0.93292555  0.47379453  0.33459336  1  0  0.663265  0  3.908661  0  0  0.610432  0  4.20322  0  0  0.646459  0  4.194485  0  0  0.206445  0.58594  0  4.20836  0
C  C43  1  0.56707505  0.66540518  0.52620929  1  0  0.663291  0  3.908553  0  0  0.610461  0  4.20312  0  0  0.646491  0  4.194384  0  0  0.206467  0.585969  0  4.208256  0
C  C44  1  0.06707460  0.52620660  0.66540718  1  0  0.663247  0  3.908603  0  0  0.610411  0  4.203177  0  0  0.646439  0  4.194439  0  0  0.20644  0.585919  0  4.208312  0
C  C45  1  0.43292558  0.33459334  0.47379223  1  0  0.663264  0  3.908588  0  0  0.610434  0  4.203168  0  0  0.646462  0  4.194431  0  0  0.20645  0.585943  0  4.208305  0
C  C46  1  0.62903073  0.15385992  0.97417496  1  0  -0.037623  0  3.748157  0  0  -0.028625  0  3.985583  0  0  -0.032714  0  4.008995  0  0  0.000616  -0.026083  0  3.969911  0
C  C47  1  0.87096826  0.02582084  0.84613908  1  0  -0.037802  0  3.748164  0  0  -0.028732  0  3.985553  0  0  -0.032819  0  4.008965  0  0  0.000605  -0.026187  0  3.969879  0
C  C48  1  0.37096816  0.84614035  0.02582365  1  0  -0.037755  0  3.74826  0  0  -0.028676  0  3.985554  0  0  -0.032766  0  4.008968  0  0  0.000586  -0.026133  0  3.969881  0
C  C49  1  0.12902796  0.97417856  0.15386013  1  0  -0.037843  0  3.748217  0  0  -0.028796  0  3.985617  0  0  -0.032884  0  4.009028  0  0  0.000571  -0.026253  0  3.969942  0
C  C50  1  0.68602849  0.86399304  0.19678103  1  0  0.082698  0  3.678671  0  0  0.057235  0  3.942506  0  0  0.059856  0  3.958883  0  0  0.050363  0.055464  0  3.931525  0
C  C51  1  0.81397180  0.80321866  0.13600564  1  0  0.08267  0  3.678636  0  0  0.057181  0  3.942461  0  0  0.059804  0  3.958835  0  0  0.050333  0.055411  0  3.931481  0
C  C52  1  0.31397040  0.13600722  0.80321758  1  0  0.082555  0  3.67854  0  0  0.05712  0  3.942379  0  0  0.059742  0  3.958754  0  0  0.050306  0.05535  0  3.931401  0
C  C53  1  0.18602725  0.19678073  0.86399249  1  0  0.082704  0  3.678685  0  0  0.057201  0  3.94254  0  0  0.059823  0  3.958914  0  0  0.050276  0.055429  0  3.931559  0
C  C54  1  0.94850099  0.46480614  0.21664990  1  0  -0.059757  0  3.746941  0  0  -0.036055  0  3.981655  0  0  -0.043399  0  4.003699  0  0  -0.018373  -0.031303  0  3.966784  0
C  C55  1  0.55149523  0.78334746  0.53519749  1  0  -0.059745  0  3.74681  0  0  -0.036111  0  3.98163  0  0  -0.043458  0  4.00368  0  0  -0.018407  -0.031357  0  3.966756  0
C  C56  1  0.05149602  0.53519675  0.78334946  1  0  -0.059789  0  3.746835  0  0  -0.036169  0  3.98167  0  0  -0.043515  0  4.003718  0  0  -0.018443  -0.031415  0  3.966796  0
C  C57  1  0.44850131  0.21665018  0.46480477  1  0  -0.05983  0  3.746793  0  0  -0.036197  0  3.98161  0  0  -0.043544  0  4.00366  0  0  -0.01841  -0.031443  0  3.966739  0
C  C58  1  0.51073917  0.22005417  0.03322741  1  0  -0.02529  0  3.676166  0  0  -0.050598  0  3.924879  0  0  -0.047343  0  3.940774  0  0  -0.059996  -0.052494  0  3.914001  0
C  C59  1  0.98926484  0.96676962  0.77994303  1  0  -0.025181  0  3.676118  0  0  -0.050508  0  3.924839  0  0  -0.047253  0  3.940733  0  0  -0.059971  -0.052403  0  3.913958  0
C  C60  1  0.48926146  0.77994434  0.96677171  1  0  -0.025221  0  3.676139  0  0  -0.050565  0  3.924834  0  0  -0.04731  0  3.94073  0  0  -0.05998  -0.05246  0  3.913953  0
C  C61  1  0.01073421  0.03322977  0.22005590  1  0  -0.025201  0  3.676161  0  0  -0.050519  0  3.924871  0  0  -0.047263  0  3.940766  0  0  -0.059984  -0.052414  0  3.91399  0
C  C62  1  0.04404734  0.54423646  0.00631993  1  0  0.047266  0  3.803819  0  0  0.063564  0  4.032852  0  0  0.063478  0  4.055527  0  0  -0.010672  0.063611  0  4.017432  0
C  C63  1  0.45594725  0.99367786  0.45576669  1  0  0.04736  0  3.803839  0  0  0.063659  0  4.03288  0  0  0.063573  0  4.055555  0  0  -0.010616  0.063708  0  4.017455  0
C  C64  1  0.95595423  0.45576467  0.99368047  1  0  0.047322  0  3.803899  0  0  0.063659  0  4.032884  0  0  0.063572  0  4.05556  0  0  -0.010606  0.063708  0  4.017461  0
C  C65  1  0.54404805  0.00631891  0.54423922  1  0  0.047178  0  3.803865  0  0  0.063508  0  4.032861  0  0  0.063421  0  4.055537  0  0  -0.010706  0.063557  0  4.017441  0
C  C66  1  0.03839460  0.54569491  0.11924231  1  0  -0.113541  0  3.702574  0  0  -0.144864  0  3.951619  0  0  -0.14432  0  3.969648  0  0  -0.08257  -0.144994  0  3.939334  0
C  C67  1  0.46160611  0.88075618  0.45430938  1  0  -0.113587  0  3.702711  0  0  -0.144884  0  3.951771  0  0  -0.144342  0  3.969805  0  0  -0.082575  -0.145014  0  3.939483  0
C  C68  1  0.96160696  0.45430622  0.88075889  1  0  -0.113523  0  3.702525  0  0  -0.144832  0  3.951574  0  0  -0.144291  0  3.969612  0  0  -0.082551  -0.144964  0  3.939288  0
C  C69  1  0.53839185  0.11924146  0.54569514  1  0  -0.113441  0  3.702668  0  0  -0.144743  0  3.951721  0  0  -0.144198  0  3.969755  0  0  -0.082527  -0.144873  0  3.939437  0
C  C70  1  0.86752320  0.37219724  0.09515632  1  0  -0.12158  0  3.757586  0  0  -0.140223  0  4.008507  0  0  -0.142999  0  4.02884  0  0  -0.094299  -0.138286  0  3.994677  0
C  C71  1  0.63248114  0.90484121  0.62780405  1  0  -0.121509  0  3.757626  0  0  -0.140143  0  4.008511  0  0  -0.14292  0  4.028848  0  0  -0.094226  -0.138208  0  3.994679  0
C  C72  1  0.13248010  0.62780214  0.90484300  1  0  -0.121503  0  3.757565  0  0  -0.140129  0  4.008476  0  0  -0.142906  0  4.028813  0  0  -0.094223  -0.138193  0  3.994644  0
C  C73  1  0.36751714  0.09515469  0.37219952  1  0  -0.121529  0  3.75762  0  0  -0.140178  0  4.008545  0  0  -0.142955  0  4.028883  0  0  -0.094258  -0.138241  0  3.994714  0
C  C74  1  0.45458196  0.33695404  0.97218339  1  0  -0.109735  0  3.71464  0  0  -0.121032  0  3.964998  0  0  -0.128139  0  3.987131  0  0  -0.076252  -0.116418  0  3.950034  0
C  C75  1  0.04542246  0.02781417  0.66304424  1  0  -0.10979  0  3.714647  0  0  -0.121108  0  3.964998  0  0  -0.128214  0  3.987128  0  0  -0.07631  -0.116496  0  3.950038  0
C  C76  1  0.54541694  0.66304622  0.02781682  1  0  -0.109683  0  3.714633  0  0  -0.120977  0  3.964993  0  0  -0.128084  0  3.987126  0  0  -0.076223  -0.116364  0  3.950031  0
C  C77  1  0.95457769  0.97218696  0.33695230  1  0  -0.109744  0  3.714568  0  0  -0.121045  0  3.964937  0  0  -0.128153  0  3.98707  0  0  -0.076284  -0.116433  0  3.949979  0
C  C78  1  0.51751308  0.38618395  0.85253188  1  0  0.149489  0  3.67139  0  0  0.117796  0  3.92666  0  0  0.124746  0  3.944472  0  0  0.062834  0.113306  0  3.914489  0
C  C79  1  0.98249018  0.14746679  0.61381396  1  0  0.149444  0  3.671232  0  0  0.117788  0  3.926502  0  0  0.124738  0  3.944316  0  0  0.062849  0.113297  0  3.914336  0
C  C80  1  0.48248865  0.61381631  0.14746805  1  0  0.149477  0  3.67139  0  0  0.117765  0  3.926666  0  0  0.124716  0  3.944482  0  0  0.062809  0.113276  0  3.914498  0
C  C81  1  0.01750840  0.85253522  0.38618320  1  0  0.149552  0  3.671233  0  0  0.117864  0  3.926497  0  0  0.124815  0  3.944311  0  0  0.062878  0.113374  0  3.914328  0
N  N82  1  0.62493592  0.97668119  0.14637928  1  0  -0.301848  0  3.059056  0  0  -0.273631  0  3.333275  0  0  -0.282762  0  3.350461  0  0  -0.301027  -0.267205  0  3.32154  0
N  N83  1  0.87506325  0.85361809  0.02331797  1  0  -0.301829  0  3.058889  0  0  -0.27365  0  3.333172  0  0  -0.282779  0  3.350356  0  0  -0.301033  -0.267223  0  3.321435  0
N  N84  1  0.37506330  0.02331733  0.85362078  1  0  -0.301722  0  3.058861  0  0  -0.273519  0  3.333043  0  0  -0.282647  0  3.350228  0  0  -0.300958  -0.267094  0  3.32131  0
N  N85  1  0.12493422  0.14638218  0.97667997  1  0  -0.301808  0  3.058943  0  0  -0.273615  0  3.33319  0  0  -0.282743  0  3.350375  0  0  -0.301003  -0.267189  0  3.321453  0
N  N86  1  0.63087621  0.32486318  0.79567413  1  0  -0.333519  0  3.214158  0  0  -0.268096  0  3.475952  0  0  -0.286052  0  3.493301  0  0  -0.311651  -0.255763  0  3.463906  0
N  N87  1  0.86912237  0.20432439  0.67513446  1  0  -0.333505  0  3.213961  0  0  -0.268104  0  3.475835  0  0  -0.28606  0  3.493184  0  0  -0.311678  -0.25577  0  3.463791  0
N  N88  1  0.36912394  0.67513795  0.20432561  1  0  -0.333496  0  3.214155  0  0  -0.268061  0  3.475949  0  0  -0.286017  0  3.493298  0  0  -0.311639  -0.255728  0  3.463903  0
N  N89  1  0.13087495  0.79567675  0.32486396  1  0  -0.333599  0  3.214137  0  0  -0.268203  0  3.47602  0  0  -0.28616  0  3.493372  0  0  -0.311701  -0.25587  0  3.463976  0
O  O90  1  0.86904035  0.38778116  0.42155440  1  0  -0.64449  0  2.032003  0  0  -0.575137  0  2.288986  0  0  -0.605598  0  2.277573  0  0  -0.32556  -0.553713  0  2.296023  0
O  O91  1  0.63095771  0.57844473  0.61222134  1  0  -0.644539  0  2.031983  0  0  -0.575187  0  2.288966  0  0  -0.605648  0  2.277547  0  0  -0.325608  -0.553765  0  2.296005  0
O  O92  1  0.13096420  0.61221909  0.57844605  1  0  -0.644483  0  2.031989  0  0  -0.575098  0  2.288946  0  0  -0.605563  0  2.277533  0  0  -0.325552  -0.553674  0  2.295981  0
O  O93  1  0.36904276  0.42155465  0.38777825  1  0  -0.644502  0  2.031904  0  0  -0.57515  0  2.288902  0  0  -0.605613  0  2.277484  0  0  -0.325595  -0.553729  0  2.295941  0
O  O94  1  0.97720146  0.56536423  0.33943184  1  0  -0.658532  0  2.02401  0  0  -0.600581  0  2.284826  0  0  -0.626899  0  2.270994  0  0  -0.333715  -0.581993  0  2.293576  0
O  O95  1  0.52280066  0.66056868  0.43463809  1  0  -0.658552  0  2.02401  0  0  -0.600577  0  2.284801  0  0  -0.62687  0  2.270909  0  0  -0.333698  -0.581992  0  2.293556  0
O  O96  1  0.02279712  0.43463777  0.66056931  1  0  -0.658536  0  2.02402  0  0  -0.600557  0  2.284782  0  0  -0.626874  0  2.27095  0  0  -0.333709  -0.581972  0  2.293537  0
O  O97  1  0.47720107  0.33943158  0.56536184  1  0  -0.658543  0  2.024045  0  0  -0.600568  0  2.284827  0  0  -0.626874  0  2.270969  0  0  -0.333702  -0.581981  0  2.293581  0
