# generated using pymatgen
data_MnH16C18S3(NO)4
_symmetry_space_group_name_H-M   'P 1'
_cell_length_a   9.13423100
_cell_length_b   10.15789997
_cell_length_c   11.53545876
_cell_angle_alpha   100.80995782
_cell_angle_beta   92.54089198
_cell_angle_gamma   101.28921808
_symmetry_Int_Tables_number   1
_chemical_formula_structural   MnH16C18S3(NO)4
_chemical_formula_sum   'Mn2 H32 C36 S6 N8 O8'
_cell_volume   1027.32256138
_cell_formula_units_Z   2
loop_
 _symmetry_equiv_pos_site_id
 _symmetry_equiv_pos_as_xyz
  1  'x, y, z'
loop_
 _atom_site_type_symbol
 _atom_site_label
 _atom_site_symmetry_multiplicity
 _atom_site_fract_x
 _atom_site_fract_y
 _atom_site_fract_z
 _atom_site_occupancy
 _atom_site_hle17_ddec_charge
 _atom_site_hle17_ddec_spin_density
 _atom_site_hle17_ddec_sum_bond_order
 _atom_site_hle17_magmom
 _atom_site_hse06_10hf_ddec_charge
 _atom_site_hse06_10hf_ddec_spin_density
 _atom_site_hse06_10hf_ddec_sum_bond_order
 _atom_site_hse06_10hf_magmom
 _atom_site_hse06_ddec_charge
 _atom_site_hse06_ddec_spin_density
 _atom_site_hse06_ddec_sum_bond_order
 _atom_site_hse06_magmom
 _atom_site_pbe_cm5_charge
 _atom_site_pbe_ddec_charge
 _atom_site_pbe_ddec_spin_density
 _atom_site_pbe_ddec_sum_bond_order
 _atom_site_pbe_magmom
Mn  Mn0  1  0.36107025  0.37929560  0.11775080  1  1.114796  -4.799598  1.804014  -4.673  0.940447  -4.726472  2.308163  -4.531  1.003482  -4.768949  2.236794  -4.595  0.602018  0.891214  -4.683819  2.360673  -4.47
Mn  Mn1  1  0.63893739  0.62071325  0.88225207  1  1.114762  -4.799611  1.804036  -4.673  0.940442  -4.72645  2.308219  -4.531  1.003466  -4.76893  2.236861  -4.595  0.602021  0.891208  -4.683791  2.360727  -4.47
H  H2  1  0.02669669  0.01880171  0.21372041  1  0.148228  -5.4e-05  0.889584  0.0  0.17  -0.000191  0.931551  0.0  0.172725  -0.000121  0.930283  0.0  0.121364  0.167823  -0.000288  0.933036  0.0
H  H3  1  0.97331013  0.98119896  0.78627757  1  0.148272  -4.8e-05  0.889529  0.0  0.170056  -0.000192  0.931491  0.0  0.172793  -0.000122  0.930203  0.0  0.121388  0.167879  -0.000289  0.932979  0.0
H  H4  1  0.96186403  0.15361135  0.30013183  1  0.118294  -0.00011  0.962305  0.0  0.128472  -0.000242  1.031914  0.0  0.130624  -0.000168  1.031211  0.0  0.099992  0.126913  -0.000347  1.032386  0.0
H  H5  1  0.03813565  0.84638217  0.69986643  1  0.11832  -0.000106  0.96222  0.0  0.128498  -0.000242  1.031847  0.0  0.130651  -0.000167  1.031151  0.0  0.10001  0.126939  -0.000347  1.032321  0.0
H  H6  1  0.10320207  0.64872302  0.92329378  1  0.151377  -8e-06  0.911517  0.0  0.168114  -0.000345  0.961708  -0.001  0.171789  -0.000163  0.95888  0.0  0.1171  0.165461  -0.000452  0.963847  -0.001
H  H7  1  0.89680764  0.35128076  0.07670049  1  0.151391  -1e-06  0.911601  0.0  0.16817  -0.000345  0.961748  -0.001  0.171844  -0.000162  0.958918  0.0  0.117108  0.165507  -0.000452  0.963891  -0.001
H  H8  1  0.05860090  0.46700645  0.88897206  1  0.134975  5.4e-05  0.922615  0.0  0.146892  -0.000114  0.982745  0.0  0.149671  -1.3e-05  0.98092  0.0  0.112005  0.144279  -0.000321  0.985403  0.0
H  H9  1  0.94140090  0.53299634  0.11102092  1  0.134963  5.3e-05  0.922576  0.0  0.146873  -0.000115  0.98275  0.0  0.149653  -1.2e-05  0.980923  0.0  0.11199  0.144254  -0.000321  0.985401  0.0
H  H10  1  0.45190227  0.33397832  0.86512442  1  0.073638  -0.000433  0.971902  0.0  0.077629  -0.001227  1.046726  -0.001  0.079815  -0.0009  1.044581  0.0  0.117202  0.076265  -0.00154  1.048006  -0.001
H  H11  1  0.54809338  0.66602132  0.13487996  1  0.07359  -0.00044  0.971894  0.0  0.077603  -0.001227  1.04669  -0.001  0.079796  -0.0009  1.044528  0.0  0.117211  0.076224  -0.001541  1.048007  -0.001
H  H12  1  0.48579059  0.15150622  0.69961481  1  0.097679  -0.000136  0.977935  0.0  0.108195  -0.000119  1.040121  0.0  0.110031  -6.4e-05  1.042064  0.0  0.0993  0.106811  -0.000165  1.039032  0.0
H  H13  1  0.51421211  0.84849545  0.30038927  1  0.097737  -0.00011  0.977973  0.0  0.108245  -0.000118  1.040146  0.0  0.110083  -6.4e-05  1.042088  0.0  0.099364  0.10686  -0.000165  1.039058  0.0
H  H14  1  0.30089859  0.85576666  0.90596956  1  0.110487  -0.000123  0.950306  0.0  0.121621  -0.000169  1.008907  0.0  0.124265  -8.8e-05  1.008947  0.0  0.105907  0.120145  -0.000239  1.0084  0.0
H  H15  1  0.69910935  0.14423397  0.09403537  1  0.110529  -0.000118  0.950302  0.0  0.121663  -0.000169  1.008905  0.0  0.124308  -8.8e-05  1.008946  0.0  0.105917  0.120188  -0.000239  1.008399  0.0
H  H16  1  0.27594771  0.05129649  0.06488034  1  0.072219  7.3e-05  0.944805  0.0  0.084422  -0.000253  1.001992  0.0  0.086275  -0.000115  1.000647  0.0  0.114956  0.08292  -0.000382  1.003169  -0.001
H  H17  1  0.72404637  0.94870111  0.93512277  1  0.072249  9e-05  0.944788  0.0  0.08441  -0.000253  1.002024  0.0  0.086304  -0.000115  1.000633  0.0  0.114969  0.082907  -0.000382  1.0032  -0.001
H  H18  1  0.53582899  0.88613055  0.67555907  1  0.088514  9.8e-05  0.962678  0.0  0.099495  4.8e-05  1.033247  0.0  0.101583  0.000102  1.031954  0.0  0.090522  0.097701  -3.4e-05  1.034299  0.0
H  H19  1  0.46417652  0.11386907  0.32444388  1  0.088537  0.000112  0.962699  0.0  0.099523  4.7e-05  1.033258  0.0  0.10161  0.000102  1.031967  0.0  0.090555  0.097728  -3.4e-05  1.03431  0.0
H  H20  1  0.38552769  0.77401270  0.71879747  1  0.085055  0.000268  0.959545  0.0  0.096125  0.0003  1.03045  0.0  0.097956  0.000321  1.029634  0.0  0.089896  0.094617  0.000256  1.03126  0.0
H  H21  1  0.61447258  0.22598797  0.28120549  1  0.085059  0.000294  0.959546  0.0  0.096121  0.0003  1.030465  0.0  0.097954  0.000321  1.02965  0.0  0.089888  0.094613  0.000256  1.031276  0.0
H  H22  1  0.35645538  0.96694827  0.54634106  1  0.083486  -8.1e-05  0.930188  0.0  0.103678  -0.000178  0.990249  0.0  0.104542  -0.000139  0.990399  0.0  0.09475  0.103146  -0.00023  0.989924  0.0
H  H23  1  0.64354707  0.03305240  0.45366111  1  0.083551  -8.7e-05  0.930224  0.0  0.103789  -0.000178  0.990245  0.0  0.104638  -0.000139  0.990413  0.0  0.094795  0.103256  -0.00023  0.98992  0.0
H  H24  1  0.20478546  0.86033153  0.59012604  1  0.074022  -7.1e-05  0.953254  0.0  0.090073  -0.000155  1.022124  0.0  0.090567  -0.00012  1.022472  0.0  0.089202  0.089757  -0.000199  1.021483  0.0
H  H25  1  0.79521311  0.13967117  0.40988068  1  0.074032  -8.2e-05  0.953222  0.0  0.090125  -0.000154  1.022091  0.0  0.090615  -0.000121  1.02244  0.0  0.089204  0.089807  -0.000199  1.02145  0.0
H  H26  1  0.53093786  0.69487676  0.54795660  1  0.118447  -1e-05  0.970053  0.0  0.124863  -3e-06  1.038256  0.0  0.128382  5.3e-05  1.037157  0.0  0.105081  0.122187  -7.2e-05  1.039377  0.0
H  H27  1  0.46905105  0.30511264  0.45204841  1  0.118347  -2e-06  0.970163  0.0  0.124774  -4e-06  1.038385  0.0  0.128294  5.3e-05  1.037286  0.0  0.105026  0.1221  -7.2e-05  1.039507  0.0
H  H28  1  0.54028789  0.51684153  0.36884568  1  0.077778  -4e-06  0.947877  0.0  0.084202  -0.000347  1.017264  0.0  0.086238  -0.000211  1.015857  0.0  0.113796  0.083335  -0.00051  1.016887  0.0
H  H29  1  0.45970048  0.48315507  0.63115707  1  0.077744  8e-06  0.947934  0.0  0.084155  -0.000347  1.017325  0.0  0.086199  -0.000211  1.015895  0.0  0.113782  0.083287  -0.000509  1.01697  0.0
H  H30  1  0.17669457  0.60437611  0.19534379  1  0.07745  -1.1e-05  0.946177  0.0  0.087215  -0.000425  1.009041  0.0  0.089649  -0.000249  1.006514  0.0  0.115189  0.085113  -0.000681  1.011525  -0.001
H  H31  1  0.82330383  0.39563074  0.80465671  1  0.077474  -1.3e-05  0.9462  0.0  0.087254  -0.000424  1.00903  0.0  0.089687  -0.000249  1.006506  0.0  0.115218  0.085147  -0.000681  1.011528  -0.001
H  H32  1  0.14675141  0.78273400  0.36804139  1  0.105778  -0.000182  0.978382  0.0  0.114003  -0.000207  1.043117  0.0  0.116401  -0.000156  1.043848  0.0  0.097659  0.11262  -0.00027  1.04207  0.0
H  H33  1  0.85324957  0.21726974  0.63196212  1  0.105783  -0.000177  0.978374  0.0  0.113995  -0.000207  1.043118  0.0  0.116395  -0.000155  1.043848  0.0  0.097657  0.112613  -0.00027  1.042071  0.0
C  C34  1  0.16706139  0.21692660  0.21961646  1  0.655659  -0.004524  3.939757  -0.002  0.609841  -0.008388  4.242998  -0.005  0.642316  -0.006798  4.239289  -0.004  0.185918  0.587782  -0.009628  4.243863  -0.005
C  C35  1  0.83294374  0.78307608  0.78038874  1  0.655777  -0.004532  3.939566  -0.002  0.609938  -0.00839  4.242846  -0.005  0.642409  -0.006801  4.239144  -0.004  0.18599  0.587878  -0.00963  4.243712  -0.005
C  C36  1  0.06398665  0.11587833  0.27821475  1  -0.302721  0.001281  3.638767  0.001  -0.338476  0.000271  3.901225  0.001  -0.342256  0.00068  3.904544  0.001  -0.149196  -0.336107  -0.000213  3.899246  0.0
C  C37  1  0.93601642  0.88412028  0.72178622  1  -0.302835  0.001255  3.638694  0.001  -0.338641  0.000272  3.901226  0.001  -0.342431  0.000685  3.904551  0.001  -0.149239  -0.336278  -0.000213  3.899258  0.0
C  C38  1  0.14654309  0.20689452  0.51760185  1  0.057107  7.8e-05  3.812804  0.0  0.056019  -5.2e-05  4.12717  0.0  0.065758  3.8e-05  4.141169  0.0  0.108476  0.049463  -0.000303  4.116361  0.0
C  C39  1  0.85345388  0.79310620  0.48239669  1  0.057115  4.5e-05  3.812774  0.0  0.056028  -4.8e-05  4.127138  0.0  0.065767  2.5e-05  4.141136  0.0  0.108444  0.049472  -0.000303  4.116328  0.0
C  C40  1  0.13868581  0.41483327  0.65283578  1  0.056186  5.4e-05  3.829954  0.0  0.054833  -0.000146  4.140439  0.0  0.064713  -2.4e-05  4.155267  0.0  0.108455  0.049205  -0.000477  4.127977  0.0
C  C41  1  0.86129995  0.58516649  0.34715790  1  0.056359  4.5e-05  3.829952  0.0  0.055038  -0.000145  4.140397  0.0  0.064921  -2.5e-05  4.155222  0.0  0.108559  0.049406  -0.000477  4.127943  0.0
C  C42  1  0.13663038  0.55746548  0.87324123  1  -0.310772  -0.002089  3.62731  -0.002  -0.346016  -0.002637  3.887553  -0.002  -0.35055  -0.001752  3.890662  -0.002  -0.144526  -0.343358  -0.003737  3.886986  -0.003
C  C43  1  0.86337446  0.44253630  0.12674906  1  -0.31079  -0.002114  3.627344  -0.002  -0.346137  -0.002637  3.887697  -0.002  -0.350671  -0.001758  3.890806  -0.002  -0.144548  -0.343449  -0.003737  3.887113  -0.003
C  C44  1  0.29540222  0.55089997  0.91569720  1  0.740991  -0.011472  3.838618  -0.012  0.686878  -0.01895  4.143757  -0.018  0.723412  -0.014333  4.135327  -0.014  0.229432  0.661225  -0.023949  4.148303  -0.022
C  C45  1  0.70460846  0.44909875  0.08428583  1  0.741016  -0.01146  3.838638  -0.012  0.68695  -0.018955  4.143732  -0.018  0.723486  -0.014332  4.135292  -0.014  0.229355  0.661289  -0.023956  4.148278  -0.022
C  C46  1  0.41909084  0.22669021  0.87097639  1  0.146071  -0.00354  3.698486  -0.003  0.114382  -0.005795  3.95324  -0.005  0.122144  -0.00505  3.971423  -0.004  0.049816  0.108904  -0.006762  3.941011  -0.006
C  C47  1  0.58090373  0.77330944  0.12902795  1  0.146072  -0.003513  3.698246  -0.003  0.114356  -0.0058  3.953043  -0.005  0.122119  -0.005057  3.971227  -0.004  0.049791  0.108875  -0.006764  3.940806  -0.006
C  C48  1  0.43802417  0.12375681  0.77872158  1  -0.164564  0.002139  3.698067  0.001  -0.182519  0.00131  3.943171  0.0  -0.190681  0.00201  3.965149  0.001  -0.087425  -0.17746  0.000903  3.928976  0.0
C  C49  1  0.56197562  0.87624180  0.22128189  1  -0.164553  0.00203  3.69801  0.001  -0.182512  0.001314  3.943136  0.0  -0.190682  0.002016  3.965117  0.001  -0.087469  -0.177447  0.000904  3.928937  0.0
C  C50  1  0.39561784  0.98629938  0.78805920  1  0.166628  -0.002857  3.706589  -0.003  0.183309  -0.004011  3.940638  -0.003  0.188686  -0.003622  3.962463  -0.003  0.014716  0.179905  -0.004673  3.925914  -0.004
C  C51  1  0.60439070  0.01369920  0.21194281  1  0.166622  -0.002825  3.70658  -0.002  0.183323  -0.004014  3.940616  -0.003  0.18871  -0.003626  3.962437  -0.003  0.014698  0.179913  -0.004676  3.925891  -0.004
C  C52  1  0.33444511  0.96054221  0.89278143  1  -0.182485  0.001824  3.71872  0.001  -0.199559  0.001106  3.966339  0.001  -0.20825  0.001758  3.98862  0.001  -0.089001  -0.194135  0.000635  3.951318  0.0
C  C53  1  0.66556039  0.03945741  0.10722065  1  -0.182522  0.001833  3.718868  0.001  -0.199605  0.001104  3.966467  0.001  -0.208304  0.001767  3.988763  0.001  -0.088955  -0.19418  0.000636  3.951448  0.0
C  C54  1  0.31998371  0.06929522  0.98166180  1  0.13605  -0.002996  3.73373  -0.003  0.106247  -0.00473  3.984577  -0.004  0.114013  -0.004089  4.003805  -0.004  0.04784  0.100932  -0.005567  3.972002  -0.005
C  C55  1  0.68001413  0.93070441  0.01834352  1  0.13605  -0.003076  3.733914  -0.003  0.106271  -0.00473  3.984771  -0.004  0.114006  -0.004101  4.003993  -0.004  0.047806  0.100954  -0.005569  3.972194  -0.005
C  C56  1  0.41605957  0.87247848  0.69046973  1  -0.171483  0.00025  3.700176  0.0  -0.20851  -4.2e-05  3.937071  0.0  -0.210336  6.5e-05  3.947695  0.0  -0.166972  -0.207328  -0.000161  3.930362  0.0
C  C57  1  0.58394398  0.12752218  0.30953247  1  -0.171507  0.000149  3.700262  0.0  -0.208504  -4e-05  3.937149  0.0  -0.210336  6.2e-05  3.947772  0.0  -0.166972  -0.207314  -0.000161  3.930432  0.0
C  C58  1  0.32416215  0.86843470  0.57521727  1  -0.145309  -0.00014  3.699254  0.0  -0.189425  -0.00041  3.948254  0.0  -0.19076  -0.000316  3.960437  0.0  -0.157083  -0.188613  -0.000508  3.939889  0.0
C  C59  1  0.67583727  0.13156698  0.42478844  1  -0.145426  -0.000101  3.699327  0.0  -0.189671  -0.000411  3.948436  0.0  -0.190995  -0.000313  3.96062  0.0  -0.157179  -0.188857  -0.000508  3.940064  0.0
C  C60  1  0.33731045  0.75570254  0.47350946  1  0.151932  -0.001765  3.712121  -0.002  0.167296  -0.002726  3.951409  -0.002  0.172968  -0.002357  3.972855  -0.002  0.007767  0.16431  -0.003376  3.936418  -0.003
C  C61  1  0.66268363  0.24429507  0.52649451  1  0.151941  -0.001722  3.712066  -0.002  0.167367  -0.002725  3.951327  -0.002  0.17304  -0.002357  3.972766  -0.002  0.007831  0.164379  -0.003375  3.936333  -0.003
C  C62  1  0.44878957  0.67827304  0.47225596  1  -0.190002  0.001012  3.694327  0.0  -0.207783  0.000369  3.94403  0.0  -0.216753  0.000841  3.965828  0.0  -0.092018  -0.201782  0.000106  3.928468  0.0
C  C63  1  0.55120185  0.32172252  0.52774845  1  -0.189988  0.00094  3.694333  0.0  -0.207789  0.000367  3.943976  0.0  -0.216759  0.000844  3.965776  0.0  -0.092061  -0.201788  0.000105  3.928416  0.0
C  C64  1  0.45469205  0.57843636  0.37245708  1  0.140522  -0.002126  3.701634  -0.002  0.109259  -0.003791  3.958638  -0.003  0.116934  -0.003114  3.977354  -0.003  0.048538  0.104063  -0.004599  3.944426  -0.004
C  C65  1  0.54530079  0.42156537  0.62754496  1  0.140601  -0.002119  3.701483  -0.002  0.109379  -0.003787  3.958492  -0.003  0.117057  -0.003117  3.977208  -0.003  0.048622  0.104167  -0.004597  3.944298  -0.004
C  C66  1  0.25122363  0.62646726  0.27613370  1  0.129221  -0.002132  3.741953  -0.002  0.097579  -0.003911  3.999065  -0.003  0.105124  -0.003223  4.017511  -0.003  0.045428  0.092213  -0.004624  3.986958  -0.004
C  C67  1  0.74877335  0.37353342  0.72386830  1  0.129104  -0.002094  3.742049  -0.002  0.097484  -0.003906  3.999168  -0.003  0.105027  -0.003222  4.017614  -0.003  0.045376  0.092117  -0.004623  3.987057  -0.004
C  C68  1  0.23650165  0.72672596  0.37220700  1  -0.196702  0.001078  3.740216  0.0  -0.21551  0.000553  3.993476  0.0  -0.224552  0.001025  4.016239  0.0  -0.096968  -0.209695  0.000322  3.977691  0.0
C  C69  1  0.76349885  0.27327574  0.62779442  1  -0.196704  0.001024  3.740152  0.0  -0.215509  0.000549  3.993391  0.0  -0.22455  0.001023  4.016155  0.0  -0.097006  -0.209693  0.000322  3.977602  0.0
S  S70  1  0.14669143  0.06779559  0.40490116  1  0.089545  -0.000734  2.499364  -0.001  0.07978  -0.001633  2.856044  -0.001  0.077956  -0.00105  2.853588  -0.001  0.053403  0.081101  -0.002154  2.85666  -0.002
S  S71  1  0.85330812  0.93220200  0.59510125  1  0.089566  -0.000723  2.499425  -0.001  0.079813  -0.001633  2.856115  -0.001  0.077987  -0.001047  2.853661  -0.001  0.053414  0.081133  -0.002155  2.856732  -0.002
S  S72  1  0.13199230  0.37145879  0.49896539  1  0.082404  0.000167  2.512276  0.0  0.082803  -4.8e-05  2.847918  0.0  0.084154  9.9e-05  2.850225  0.0  0.096847  0.080295  -0.000435  2.846954  0.0
S  S73  1  0.86800032  0.62853275  0.50102623  1  0.082427  0.000171  2.512193  0.0  0.082796  -4.9e-05  2.847876  0.0  0.084148  9.8e-05  2.85018  0.0  0.096884  0.080289  -0.000435  2.846907  0.0
S  S74  1  0.11084536  0.57361332  0.72144203  1  0.076264  -0.000617  2.545898  -0.001  0.065405  -0.001478  2.90984  -0.001  0.062455  -0.000785  2.909593  -0.001  0.044145  0.066696  -0.002127  2.910841  -0.002
S  S75  1  0.88915229  0.42639053  0.27854839  1  0.076233  -0.000605  2.545811  -0.001  0.065378  -0.001479  2.909796  -0.001  0.062427  -0.000781  2.909548  -0.001  0.044183  0.066657  -0.002127  2.910791  -0.002
N  N76  1  0.15909830  0.19600547  0.62927119  1  -0.221914  -5.5e-05  3.066983  0.0  -0.20508  -0.000129  3.363501  0.0  -0.213122  -7.8e-05  3.37863  0.0  -0.222895  -0.198934  -0.000132  3.352546  0.0
N  N77  1  0.84090449  0.80400135  0.37073118  1  -0.22201  -3.3e-05  3.067243  0.0  -0.205172  -0.00013  3.363767  0.0  -0.213215  -7.3e-05  3.378896  0.0  -0.222935  -0.199028  -0.000132  3.352811  0.0
N  N78  1  0.15616539  0.31463567  0.70674489  1  -0.210706  1.8e-05  3.028836  0.0  -0.189127  -0.000148  3.316535  0.0  -0.1977  -6e-06  3.331143  0.0  -0.222758  -0.183007  -0.000312  3.305043  0.0
N  N79  1  0.84383081  0.68537119  0.29325468  1  -0.210743  2e-05  3.028991  0.0  -0.189179  -0.000148  3.316697  0.0  -0.197752  -8e-06  3.331302  0.0  -0.222826  -0.183057  -0.000312  3.305206  0.0
N  N80  1  0.36164385  0.20117646  0.97205527  1  -0.346281  -0.025762  3.248019  -0.013  -0.273489  -0.028566  3.520397  -0.011  -0.294819  -0.025367  3.536568  -0.009  -0.323917  -0.258018  -0.03159  3.509068  -0.013
N  N81  1  0.63835289  0.79882320  0.02794741  1  -0.346289  -0.025724  3.247877  -0.013  -0.273479  -0.028566  3.520222  -0.011  -0.294807  -0.025361  3.536403  -0.009  -0.323919  -0.258003  -0.031589  3.508888  -0.013
N  N82  1  0.35846373  0.55237322  0.27522771  1  -0.339985  -0.024685  3.237818  -0.014  -0.268718  -0.02896  3.507967  -0.015  -0.288395  -0.025831  3.523563  -0.013  -0.321036  -0.254582  -0.031648  3.497215  -0.017
N  N83  1  0.64153324  0.44762747  0.72477342  1  -0.339863  -0.024705  3.237726  -0.014  -0.268705  -0.028965  3.508007  -0.015  -0.288378  -0.025832  3.523603  -0.013  -0.321022  -0.254569  -0.031651  3.497255  -0.017
O  O84  1  0.10754407  0.26340791  0.13899607  1  -0.630345  -0.018758  1.918281  -0.013  -0.58047  -0.026848  2.158184  -0.02  -0.608639  -0.023462  2.149153  -0.017  -0.317934  -0.559233  -0.029757  2.162432  -0.022
O  O85  1  0.89246420  0.73659886  0.86101080  1  -0.630302  -0.018751  1.918322  -0.013  -0.580412  -0.026851  2.158214  -0.02  -0.60858  -0.02346  2.149193  -0.017  -0.31793  -0.559178  -0.029758  2.162459  -0.022
O  O86  1  0.30717596  0.24720343  0.25086842  1  -0.643033  -0.029232  2.007808  -0.021  -0.580635  -0.034667  2.262263  -0.024  -0.611449  -0.030507  2.254701  -0.02  -0.314321  -0.557703  -0.03905  2.266206  -0.028
O  O87  1  0.69282845  0.75279618  0.74913710  1  -0.643189  -0.029241  2.00769  -0.021  -0.580752  -0.034671  2.262143  -0.024  -0.611569  -0.030516  2.254587  -0.02  -0.314388  -0.55781  -0.039056  2.266058  -0.028
O  O88  1  0.30609435  0.51187817  0.01337357  1  -0.662056  -0.035378  2.076052  -0.02  -0.59486  -0.046416  2.364382  -0.026  -0.626839  -0.040898  2.347065  -0.022  -0.314144  -0.570741  -0.051703  2.375682  -0.031
O  O89  1  0.69391257  0.48811851  0.98660985  1  -0.662044  -0.035372  2.076255  -0.02  -0.594889  -0.046421  2.364612  -0.026  -0.626868  -0.040897  2.347291  -0.022  -0.314151  -0.57077  -0.051705  2.375919  -0.031
O  O90  1  0.40237992  0.58762662  0.85484675  1  -0.642418  -0.038625  2.066709  -0.026  -0.578861  -0.049022  2.348279  -0.033  -0.609491  -0.042868  2.333782  -0.027  -0.306522  -0.555649  -0.055183  2.356547  -0.038
O  O91  1  0.59762517  0.41236702  0.14513262  1  -0.642491  -0.03865  2.066612  -0.027  -0.578902  -0.049026  2.348105  -0.033  -0.609533  -0.042878  2.333607  -0.027  -0.306462  -0.55568  -0.055191  2.356353  -0.038
