# generated using pymatgen
data_CuH16C20S3(N2O)4
_symmetry_space_group_name_H-M   'P 1'
_cell_length_a   10.50525837
_cell_length_b   10.50511280
_cell_length_c   13.24376220
_cell_angle_alpha   90.59501514
_cell_angle_beta   90.59387230
_cell_angle_gamma   69.39251381
_symmetry_Int_Tables_number   1
_chemical_formula_structural   CuH16C20S3(N2O)4
_chemical_formula_sum   'Cu2 H32 C40 S6 N16 O8'
_cell_volume   1367.93792925
_cell_formula_units_Z   2
loop_
 _symmetry_equiv_pos_site_id
 _symmetry_equiv_pos_as_xyz
  1  'x, y, z'
loop_
 _atom_site_type_symbol
 _atom_site_label
 _atom_site_symmetry_multiplicity
 _atom_site_fract_x
 _atom_site_fract_y
 _atom_site_fract_z
 _atom_site_occupancy
 _atom_site_pbe_bader_charge
 _atom_site_pbe_bader_spin_density
 _atom_site_pbe_cm5_charge
 _atom_site_pbe_ddec_charge
 _atom_site_pbe_ddec_spin_density
 _atom_site_pbe_ddec_sum_bond_order
 _atom_site_pbe_magmom
Cu  Cu0  1  0.99999474  0.00000215  0.99999892  1  1.11719  0.608661  0.809736  0.795008  0.757065  2.341762  0.606
Cu  Cu1  1  0.00000032  0.99998566  0.49999930  1  1.117093  0.608669  0.80966  0.794956  0.757069  2.341844  0.606
H  H2  1  0.15008928  0.97253248  0.78702791  1  0.214295  0.000571  0.139634  0.119196  0.000176  1.027917  0.0
H  H3  1  0.02746007  0.84991555  0.71298789  1  0.213664  0.000572  0.139665  0.119166  0.000177  1.02803  0.0
H  H4  1  0.84989886  0.02745525  0.21299373  1  0.214028  0.000572  0.13969  0.119261  0.000177  1.027964  0.0
H  H5  1  0.97254473  0.15009148  0.28700743  1  0.213588  0.000572  0.139658  0.119231  0.000177  1.028007  0.0
H  H6  1  0.30963875  0.83656970  0.07670680  1  0.159077  0.000999  0.124365  0.136752  0.00042  1.017494  0.001
H  H7  1  0.16342960  0.69034548  0.42330663  1  0.15924  0.000999  0.124325  0.136617  0.000421  1.017656  0.001
H  H8  1  0.69035479  0.16346572  0.92331240  1  0.159655  0.000998  0.124356  0.136757  0.00042  1.017498  0.001
H  H9  1  0.83657468  0.30964746  0.57668970  1  0.159337  0.000999  0.124361  0.13664  0.00042  1.017644  0.001
H  H10  1  0.52524389  0.77390591  0.94002594  1  0.140587  0.001139  0.118485  0.117904  0.000571  1.032966  0.001
H  H11  1  0.22608190  0.47474712  0.55998640  1  0.140973  0.001138  0.118454  0.117888  0.000571  1.032979  0.001
H  H12  1  0.47475884  0.22609713  0.05999593  1  0.140462  0.001138  0.118498  0.117996  0.00057  1.032889  0.001
H  H13  1  0.77391421  0.52525239  0.44001297  1  0.14102  0.001138  0.118443  0.117858  0.000571  1.032987  0.001
H  H14  1  0.31449846  0.75625206  0.65159564  1  0.09761  1e-06  0.10893  0.125878  -3.2e-05  1.047875  0.0
H  H15  1  0.24374467  0.68548825  0.84839700  1  0.094045  1e-06  0.108872  0.125826  -3.2e-05  1.047802  0.0
H  H16  1  0.68548700  0.24374066  0.34841009  1  0.094067  1e-06  0.108925  0.125872  -3.2e-05  1.047828  0.0
H  H17  1  0.75627118  0.31450411  0.15158251  1  0.097363  1e-06  0.10887  0.125809  -3.2e-05  1.047757  0.0
H  H18  1  0.46335494  0.77042275  0.49699968  1  0.112875  3e-05  0.118835  0.145663  8e-06  0.977534  0.0
H  H19  1  0.22960405  0.53664492  0.00299615  1  0.113019  3e-05  0.118807  0.145642  8e-06  0.977538  0.0
H  H20  1  0.53662719  0.22961109  0.50300690  1  0.112798  3e-05  0.118797  0.145646  8e-06  0.977527  0.0
H  H21  1  0.77040836  0.46337190  0.99699584  1  0.112841  3e-05  0.118827  0.145641  7e-06  0.977503  0.0
H  H22  1  0.73512268  0.02300484  0.62790985  1  0.279636  0.00049  0.130412  0.120139  0.000116  1.093687  0.001
H  H23  1  0.97699366  0.26487832  0.87210061  1  0.279911  0.00049  0.130372  0.120058  0.000116  1.093703  0.001
H  H24  1  0.26486466  0.97698906  0.37209280  1  0.279622  0.00049  0.130369  0.120095  0.000116  1.093636  0.001
H  H25  1  0.02300480  0.73513542  0.12789244  1  0.279973  0.00049  0.130372  0.12001  0.000116  1.093661  0.001
H  H26  1  0.87218590  0.84100103  0.34367321  1  0.168325  0.000928  0.117893  0.1195  0.000399  1.033847  0.001
H  H27  1  0.15904704  0.12777143  0.15630294  1  0.168186  0.000927  0.117892  0.119523  0.000398  1.033939  0.001
H  H28  1  0.12780779  0.15900174  0.65631633  1  0.168381  0.000928  0.11786  0.119453  0.000399  1.034009  0.001
H  H29  1  0.84095877  0.87222435  0.84368122  1  0.168068  0.000927  0.117861  0.119524  0.000398  1.03382  0.001
H  H30  1  0.65710706  0.76147618  0.40539130  1  0.142223  0.001084  0.123726  0.124652  0.000539  1.01454  0.001
H  H31  1  0.23855411  0.34287396  0.09460471  1  0.141905  0.001084  0.123724  0.124619  0.000539  1.014614  0.001
H  H32  1  0.34287021  0.23854858  0.59461099  1  0.141965  0.001084  0.123748  0.124649  0.000539  1.014571  0.001
H  H33  1  0.76143668  0.65713391  0.90539386  1  0.144073  0.001084  0.123734  0.1246  0.000539  1.014593  0.001
C  C34  1  0.22185927  0.92557957  0.84719592  1  0.908992  -0.001791  0.142329  0.090538  -0.002271  3.870283  -0.001
C  C35  1  0.07439584  0.77814672  0.65280713  1  0.908993  -0.001791  0.142207  0.090434  -0.002272  3.8703  -0.001
C  C36  1  0.77814678  0.07440088  0.15281193  1  0.908901  -0.00179  0.142194  0.090447  -0.00227  3.870444  -0.001
C  C37  1  0.92560546  0.22184728  0.34719150  1  0.908749  -0.001791  0.142207  0.090413  -0.002271  3.870321  -0.001
C  C38  1  0.30976935  0.85291736  0.99575623  1  0.452776  0.000907  0.008451  -0.009008  0.000568  3.937101  0.001
C  C39  1  0.14707519  0.69022010  0.50425310  1  0.452656  0.000906  0.008611  -0.008824  0.000568  3.937466  0.001
C  C40  1  0.69022779  0.14709575  0.00425801  1  0.452102  0.000907  0.00862  -0.008813  0.000567  3.937129  0.001
C  C41  1  0.85292109  0.30977064  0.49574265  1  0.451591  0.000908  0.008473  -0.008927  0.000568  3.937436  0.001
C  C42  1  0.41654390  0.82303804  0.92981806  1  0.211464  0.00418  -0.005857  -0.114333  0.002634  3.911785  0.003
C  C43  1  0.17694826  0.58344862  0.57019402  1  0.210809  0.004182  -0.005988  -0.114637  0.002634  3.912001  0.003
C  C44  1  0.58345768  0.17696221  0.07019632  1  0.211788  0.004178  -0.006042  -0.114755  0.002633  3.912138  0.003
C  C45  1  0.82305108  0.41654512  0.42980616  1  0.21139  0.00418  -0.005936  -0.114521  0.002633  3.912191  0.003
C  C46  1  0.42811144  0.85239582  0.74263537  1  0.194888  0.0012  0.075656  0.048816  0.000827  4.054192  0.001
C  C47  1  0.14758456  0.57188389  0.75737539  1  0.194243  0.0012  0.07562  0.048676  0.000827  4.054299  0.001
C  C48  1  0.57188855  0.14758962  0.25737703  1  0.195274  0.001201  0.075762  0.049003  0.000828  4.053754  0.001
C  C49  1  0.85242949  0.42811732  0.24262062  1  0.194859  0.001202  0.075649  0.048856  0.000828  4.054117  0.001
C  C50  1  0.39506086  0.79824367  0.65588092  1  0.044076  0.000258  -0.101963  -0.153859  0.000115  4.033972  0.0
C  C51  1  0.20175738  0.60492515  0.84412570  1  0.048061  0.000258  -0.101938  -0.153924  0.000115  4.034154  0.0
C  C52  1  0.60494673  0.20173001  0.34413684  1  0.047023  0.000258  -0.101992  -0.154059  0.000115  4.034414  0.0
C  C53  1  0.79826092  0.39506995  0.15587110  1  0.04438  0.000258  -0.101942  -0.153962  0.000115  4.034257  0.0
C  C54  1  0.47557530  0.80602032  0.57266602  1  0.01647  0.000636  -0.106587  -0.181222  0.000413  4.018165  0.0
C  C55  1  0.19399737  0.52441209  0.92733896  1  0.016104  0.000636  -0.106479  -0.181017  0.000413  4.018101  0.0
C  C56  1  0.52442329  0.19397998  0.42734917  1  0.016785  0.000637  -0.106623  -0.181146  0.000413  4.018115  0.0
C  C57  1  0.80601244  0.47559523  0.07265626  1  0.016347  0.000637  -0.106625  -0.181086  0.000414  4.018242  0.0
C  C58  1  0.56865758  0.86594066  0.59874249  1  0.226234  0.001268  0.091298  0.082114  0.000894  4.027208  0.001
C  C59  1  0.13405782  0.43134008  0.90125936  1  0.226338  0.001268  0.091371  0.082188  0.000894  4.026954  0.001
C  C60  1  0.43132715  0.13406923  0.40125766  1  0.226335  0.001267  0.091514  0.082292  0.000894  4.02683  0.001
C  C61  1  0.86594166  0.56867334  0.09873367  1  0.226537  0.001267  0.091336  0.082043  0.000894  4.027156  0.001
C  C62  1  0.74580029  0.96106537  0.55877667  1  0.894263  -0.000193  0.137363  0.090741  -0.000989  3.838604  0.0
C  C63  1  0.03895676  0.25418531  0.94122283  1  0.893957  -0.0002  0.137369  0.090724  -0.000994  3.83885  0.0
C  C64  1  0.25418633  0.03894670  0.44122190  1  0.894461  -0.000197  0.137448  0.090856  -0.000992  3.838581  0.0
C  C65  1  0.96104283  0.74582324  0.05876878  1  0.89407  -0.000198  0.137385  0.091041  -0.000992  3.838962  0.0
C  C66  1  0.80929827  0.86698037  0.41055775  1  0.387473  0.001932  0.00111  -0.023281  0.001306  3.997011  0.002
C  C67  1  0.13304842  0.19069174  0.08944003  1  0.387538  0.001934  0.00112  -0.023236  0.001309  3.997077  0.002
C  C68  1  0.19069781  0.13301811  0.58943938  1  0.387456  0.001933  0.001159  -0.023073  0.001308  3.997039  0.002
C  C69  1  0.86695434  0.80930800  0.91054713  1  0.387628  0.001933  0.001142  -0.023313  0.001311  3.996767  0.002
C  C70  1  0.70650053  0.82479823  0.44144359  1  0.239829  0.003983  -0.00904  -0.127859  0.002543  3.938657  0.003
C  C71  1  0.17522529  0.29348993  0.05855098  1  0.240014  0.003981  -0.00903  -0.127901  0.002542  3.938945  0.003
C  C72  1  0.29349334  0.17520870  0.55855646  1  0.240114  0.003983  -0.009029  -0.12792  0.002543  3.938635  0.003
C  C73  1  0.82476836  0.70651776  0.94144226  1  0.237737  0.003982  -0.009082  -0.127765  0.002542  3.938882  0.003
S  S74  1  0.55855178  0.91527293  0.72481043  1  0.273787  0.000469  0.117318  0.109733  0.000218  2.772222  0.0
S  S75  1  0.08471379  0.44145263  0.77519273  1  0.27416  0.000469  0.117383  0.109851  0.000217  2.7725  0.0
S  S76  1  0.44147976  0.08467489  0.27520661  1  0.273798  0.00047  0.11725  0.109676  0.000218  2.772253  0.0
S  S77  1  0.91530728  0.55854220  0.22479571  1  0.273841  0.000469  0.117363  0.109878  0.000218  2.772376  0.0
S  S78  1  0.85429983  0.14570859  0.75000018  1  3.778045  -0.000671  0.515019  1.416277  -0.001035  6.46641  -0.001
S  S79  1  0.14570204  0.85429558  0.24999524  1  3.778531  -0.000671  0.5151  1.416315  -0.001034  6.466637  -0.001
N  N80  1  0.19028941  0.91526887  0.94268823  1  -1.187094  0.084439  -0.357727  -0.263547  0.054474  3.60584  0.074
N  N81  1  0.08471406  0.80970606  0.55731352  1  -1.186321  0.084431  -0.357746  -0.263532  0.05447  3.606013  0.074
N  N82  1  0.80971531  0.08472551  0.05732393  1  -1.186855  0.084422  -0.357778  -0.263773  0.054464  3.606075  0.074
N  N83  1  0.91528535  0.19028079  0.44268149  1  -1.186099  0.084421  -0.357663  -0.26351  0.054463  3.60575  0.074
N  N84  1  0.36009927  0.86902532  0.83554356  1  -1.241955  0.002827  -0.230162  0.018324  0.001475  3.853838  0.002
N  N85  1  0.13095363  0.63990515  0.66446623  1  -1.241842  0.002826  -0.230033  0.018763  0.001475  3.853485  0.002
N  N86  1  0.63990568  0.13095935  0.16446575  1  -1.241698  0.002827  -0.23004  0.018678  0.001476  3.853666  0.002
N  N87  1  0.86904646  0.36009495  0.33553231  1  -1.241614  0.002827  -0.230029  0.018592  0.001476  3.853471  0.002
N  N88  1  0.83177115  0.95123506  0.48405295  1  -1.179712  0.086883  -0.36364  -0.262312  0.056167  3.603234  0.075
N  N89  1  0.04878327  0.16821635  0.01594932  1  -1.179627  0.086882  -0.363695  -0.262341  0.056167  3.602925  0.075
N  N90  1  0.16822331  0.04875952  0.51595259  1  -1.180068  0.086874  -0.363722  -0.262506  0.05616  3.603189  0.075
N  N91  1  0.95122473  0.83177693  0.98403787  1  -1.179864  0.086885  -0.363689  -0.262308  0.056164  3.602931  0.075
N  N92  1  0.66757106  0.88408951  0.53619630  1  -1.268456  0.003958  -0.228768  0.022116  0.002222  3.845522  0.003
N  N93  1  0.11592773  0.33241380  0.96379650  1  -1.268352  0.003957  -0.228849  0.022055  0.002222  3.84565  0.003
N  N94  1  0.33241040  0.11592313  0.46379857  1  -1.268468  0.003957  -0.228911  0.021924  0.002221  3.845792  0.003
N  N95  1  0.88406667  0.66759828  0.03619362  1  -1.268429  0.003959  -0.22869  0.021875  0.002223  3.845915  0.003
O  O96  1  0.91836943  0.05964795  0.83941613  1  -1.379236  -0.001308  -0.400549  -0.736887  -0.001518  2.309594  0.0
O  O97  1  0.94035631  0.08164092  0.66058006  1  -1.379259  -0.001308  -0.400572  -0.736892  -0.001517  2.309436  0.0
O  O98  1  0.08163151  0.94036160  0.16058752  1  -1.379451  -0.00131  -0.400637  -0.736959  -0.001519  2.309696  0.0
O  O99  1  0.05964621  0.91834301  0.33941495  1  -1.379612  -0.001309  -0.400568  -0.736783  -0.001518  2.309341  0.0
O  O100  1  0.71339439  0.14596676  0.73557961  1  -1.35583  0.001132  -0.413866  -0.705392  0.000719  2.112414  0.001
O  O101  1  0.85404070  0.28661587  0.76442261  1  -1.356204  0.00113  -0.413806  -0.705322  0.000718  2.112344  0.001
O  O102  1  0.28659934  0.85404399  0.26441962  1  -1.355837  0.001131  -0.413848  -0.70535  0.000719  2.112569  0.001
O  O103  1  0.14597076  0.71339239  0.23556199  1  -1.356078  0.001131  -0.413845  -0.70541  0.000719  2.112421  0.001
