# generated using pymatgen
data_Cu3H26C30(N2O5)2
_symmetry_space_group_name_H-M   'P 1'
_cell_length_a   7.78669318
_cell_length_b   10.20778925
_cell_length_c   10.34606045
_cell_angle_alpha   112.40409383
_cell_angle_beta   93.59240505
_cell_angle_gamma   106.46225524
_symmetry_Int_Tables_number   1
_chemical_formula_structural   Cu3H26C30(N2O5)2
_chemical_formula_sum   'Cu3 H26 C30 N4 O10'
_cell_volume   715.48147118
_cell_formula_units_Z   1
loop_
 _symmetry_equiv_pos_site_id
 _symmetry_equiv_pos_as_xyz
  1  'x, y, z'
loop_
 _atom_site_type_symbol
 _atom_site_label
 _atom_site_symmetry_multiplicity
 _atom_site_fract_x
 _atom_site_fract_y
 _atom_site_fract_z
 _atom_site_occupancy
 _atom_site_hle17_ddec_charge
 _atom_site_hle17_ddec_spin_density
 _atom_site_hle17_ddec_sum_bond_order
 _atom_site_hle17_magmom
 _atom_site_hse06_10hf_ddec_charge
 _atom_site_hse06_10hf_ddec_spin_density
 _atom_site_hse06_10hf_ddec_sum_bond_order
 _atom_site_hse06_10hf_magmom
 _atom_site_hse06_ddec_charge
 _atom_site_hse06_ddec_spin_density
 _atom_site_hse06_ddec_sum_bond_order
 _atom_site_hse06_magmom
 _atom_site_pbe_cm5_charge
 _atom_site_pbe_ddec_charge
 _atom_site_pbe_ddec_spin_density
 _atom_site_pbe_ddec_sum_bond_order
 _atom_site_pbe_magmom
Cu  Cu0  1  0.49627299  0.49772789  0.49880422  1  0.792429  0.558443  1.840636  0.394  0.806883  0.757436  2.224326  0.602  0.913432  0.864897  2.156401  0.719  0.720937  0.732263  0.616206  2.277076  0.474
Cu  Cu1  1  0.10252857  0.51206588  0.37633723  1  0.830401  0.671275  1.909417  0.464  0.831573  0.781262  2.316172  0.614  0.92483  0.853732  2.241295  0.701  0.73845  0.770488  0.721316  2.372329  0.548
Cu  Cu2  1  0.89642763  0.48738577  0.62381788  1  0.844413  -0.65589  1.934146  -0.445  0.837286  -0.783275  2.343794  -0.597  0.927529  -0.887753  2.269428  -0.697  0.743865  0.777698  -0.640481  2.398643  -0.479
H  H3  1  0.40531008  0.95233442  0.08599369  1  0.089164  -3.9e-05  0.97993  0.0  0.099418  -8.9e-05  1.044403  0.0  0.101009  -7.9e-05  1.045459  0.0  0.09603  0.098536  -0.000182  1.043134  0.0
H  H4  1  0.59524657  0.04627749  0.91516274  1  0.093363  -9.8e-05  0.975615  0.0  0.101126  0.000287  1.043212  0.0  0.102058  0.000201  1.045187  0.0  0.096797  0.100549  0.000512  1.041659  0.0
H  H5  1  0.67956263  0.88069929  0.10589876  1  0.07735  -0.000929  0.985081  -0.001  0.089263  -0.000783  1.048001  0.0  0.09146  -0.000552  1.047369  0.0  0.091331  0.087721  -0.000666  1.048631  0.0
H  H6  1  0.32065048  0.11770727  0.89684657  1  0.078358  -0.000165  0.981922  -0.001  0.088381  0.000687  1.048508  0.0  0.089872  0.000491  1.049161  0.0  0.091905  0.087677  0.000805  1.04749  0.0
H  H7  1  0.95562691  0.05788846  0.29545346  1  0.094904  0.000199  0.957629  0.0  0.106371  0.000202  1.020187  0.0  0.109244  0.000126  1.017779  0.0  0.096729  0.104348  0.000238  1.021942  0.0
H  H8  1  0.04396182  0.94179605  0.70806719  1  0.098424  4e-06  0.955156  0.001  0.107092  0.000175  1.020567  0.0  0.109564  0.000145  1.018538  0.0  0.096957  0.105564  0.000159  1.021832  0.0
H  H9  1  0.25460289  0.12501244  0.14976397  1  0.067756  0.001898  0.935621  0.002  0.087673  0.002926  0.992107  0.003  0.089992  0.002281  0.986553  0.003  0.122527  0.085149  0.002999  0.996353  0.003
H  H10  1  0.74339422  0.87200292  0.85125209  1  0.066627  0.003043  0.937212  0.004  0.085008  0.002679  0.994973  0.003  0.08713  0.002182  0.989572  0.003  0.121334  0.082349  0.002592  0.999559  0.003
H  H11  1  0.24193611  0.26790740  0.04391144  1  0.076004  0.004487  0.957414  0.005  0.091259  0.00364  1.018254  0.004  0.09321  0.002638  1.012795  0.003  0.121648  0.089235  0.004105  1.022898  0.004
H  H12  1  0.75918217  0.73414741  0.95637917  1  0.076094  -0.005116  0.958051  -0.005  0.089738  -0.00388  1.020224  -0.004  0.091004  -0.002984  1.015331  -0.003  0.121806  0.088944  -0.003817  1.023771  -0.004
H  H13  1  0.56960496  0.33391130  0.82258484  1  0.117129  0.000697  0.945795  0.001  0.127005  0.000402  1.004715  0.001  0.129164  0.000271  1.00401  0.0  0.106039  0.125424  0.000482  1.005716  0.001
H  H14  1  0.42970943  0.66554891  0.17692949  1  0.117503  -0.000491  0.944466  -0.001  0.128443  -0.000395  1.003092  0.0  0.13083  -0.000255  1.002399  0.0  0.106903  0.126666  -0.000463  1.00388  -0.001
H  H15  1  0.78742627  0.21711746  0.69226046  1  0.090495  -0.000619  0.95472  -0.001  0.097685  0.000243  1.023052  0.0  0.100411  0.00022  1.022315  0.0  0.094478  0.095205  0.000246  1.02433  0.0
H  H16  1  0.21313340  0.78338372  0.30777717  1  0.089101  -7e-05  0.956111  0.0  0.098974  -0.000195  1.020529  0.0  0.102007  -0.000197  1.019427  0.0  0.094438  0.096093  -0.000197  1.022524  0.0
H  H17  1  0.06036919  0.21573765  0.82810353  1  0.091613  0.000285  0.957702  0.001  0.103648  0.000139  1.019295  0.0  0.105792  9.4e-05  1.017977  0.0  0.096733  0.102036  0.000152  1.020215  0.0
H  H18  1  0.93952851  0.78452803  0.17221309  1  0.090293  -0.000139  0.959565  0.0  0.102987  -0.000181  1.02053  0.0  0.105137  -0.000114  1.019325  0.0  0.09636  0.10127  -0.00021  1.021558  0.0
H  H19  1  0.23085574  0.11934714  0.46138835  1  0.05934  -2.3e-05  0.95106  0.0  0.077436  -2.8e-05  1.018255  0.0  0.077805  -1.8e-05  1.017984  0.0  0.086147  0.077283  -5.1e-05  1.018483  0.0
H  H20  1  0.77086886  0.87987225  0.53850369  1  0.058249  -3e-05  0.952005  0.0  0.077791  -1.1e-05  1.0184  0.0  0.078431  -2.4e-05  1.017889  0.0  0.08614  0.077312  2.5e-05  1.018915  0.0
H  H21  1  0.23678429  0.14747412  0.64338379  1  0.055266  -0.000185  0.974743  0.0  0.078572  -9.5e-05  1.037933  0.0  0.079732  -7.2e-05  1.037196  0.0  0.083276  0.077476  -9.5e-05  1.038972  0.0
H  H22  1  0.76725484  0.85441593  0.35736528  1  0.055368  0.000103  0.977895  0.0  0.075743  5.6e-05  1.043647  0.0  0.076284  2.6e-05  1.043418  0.0  0.082247  0.075266  7.3e-05  1.044157  0.0
H  H23  1  0.44376767  0.19913448  0.58184734  1  0.079183  6.2e-05  0.943285  0.0  0.100581  3.9e-05  1.002114  0.0  0.100503  2.4e-05  1.003241  0.0  0.096293  0.100657  5.2e-05  1.001314  0.0
H  H24  1  0.55897729  0.80314250  0.41729970  1  0.079704  -1e-06  0.944838  0.0  0.102267  -4.8e-05  1.002092  0.0  0.10222  -5e-05  1.003387  0.0  0.096251  0.102416  -3.1e-05  1.000979  0.0
H  H25  1  0.65228935  0.50863267  0.20252620  1  0.385008  0.000442  0.877765  0.0  0.352472  0.000532  0.964822  0.0  0.363794  0.000345  0.951582  0.0  0.302412  0.344586  0.000701  0.97374  0.0
H  H26  1  0.34725681  0.49321444  0.79694168  1  0.382214  -0.000512  0.879752  0.0  0.350974  -0.000509  0.965228  0.0  0.362345  -0.000322  0.951818  0.0  0.301388  0.342877  -0.000619  0.974543  0.0
H  H27  1  0.17166361  0.33496961  0.56953093  1  0.37481  5e-05  0.916123  0.0  0.352113  -0.000124  0.98724  0.0  0.36331  -5.6e-05  0.975268  0.0  0.293101  0.344319  -0.000176  0.99539  0.0
H  H28  1  0.82607150  0.66312437  0.42890416  1  0.375533  -0.000225  0.913032  0.0  0.352882  1e-06  0.984324  0.0  0.363994  -4.3e-05  0.972409  0.0  0.29417  0.34511  5.7e-05  0.99246  0.0
C  C29  1  0.82686977  0.22244399  0.39016877  1  0.212134  0.007013  3.905634  0.009  0.198575  0.001673  4.175261  0.004  0.205709  0.000907  4.195738  0.003  0.045707  0.193596  0.001971  4.161401  0.004
C  C30  1  0.17200065  0.77701239  0.61110148  1  0.22821  0.03436  3.887242  0.027  0.205552  0.010841  4.172104  0.009  0.211239  0.007122  4.196026  0.007  0.050391  0.202232  0.014401  4.154446  0.012
C  C31  1  0.66702027  0.26211348  0.38071002  1  0.233576  0.011251  3.784525  0.009  0.214265  0.002862  4.045852  0.002  0.231328  0.001491  4.06421  0.001  0.07263  0.201729  0.00413  4.033414  0.003
C  C32  1  0.33501046  0.73997100  0.61735537  1  0.242401  0.014185  3.772349  0.005  0.217838  0.001676  4.047883  -0.001  0.232568  -0.001604  4.069955  -0.004  0.077471  0.20931  0.005703  4.030854  0.002
C  C33  1  0.51628169  0.16810973  0.26804492  1  -0.072222  0.00227  3.839876  0.002  -0.05554  0.000526  4.077554  0.001  -0.068457  -6.7e-05  4.102742  0.0  -0.031749  -0.047084  0.000765  4.060974  0.0
C  C34  1  0.48517683  0.83235598  0.73120395  1  -0.064313  0.009154  3.827617  0.009  -0.051697  0.00673  4.074927  0.008  -0.066094  0.004954  4.103163  0.007  -0.029691  -0.042229  0.00663  4.055356  0.008
C  C35  1  0.52287380  0.02765186  0.17075503  1  -0.112873  -0.003509  3.790198  -0.004  -0.131262  2.1e-05  4.03614  0.0  -0.129288  -4.9e-05  4.05893  0.0  -0.102203  -0.132051  0.001679  4.019816  0.001
C  C36  1  0.47799209  0.97161467  0.82989286  1  -0.103968  0.014303  3.769363  0.011  -0.133409  -0.002034  4.034858  -0.002  -0.132858  -0.004216  4.06178  -0.004  -0.100165  -0.133295  6.8e-05  4.015272  0.0
C  C37  1  0.67783568  0.98907296  0.18133297  1  -0.094359  0.006709  3.857517  0.006  -0.113623  -9.5e-05  4.118761  0.0  -0.118575  -0.000385  4.142092  -0.001  -0.114177  -0.110415  -0.00021  4.102178  -0.001
C  C38  1  0.32257978  0.01005838  0.82002861  1  -0.078061  0.02529  3.83189  0.022  -0.108962  0.006921  4.113109  0.007  -0.117247  0.003883  4.141667  0.005  -0.111072  -0.102246  0.010227  4.091077  0.01
C  C39  1  0.83161743  0.08679002  0.28907690  1  -0.164196  -0.003971  3.760054  -0.004  -0.181528  -0.000509  4.012557  -0.001  -0.18193  -0.000609  4.031215  -0.001  -0.109284  -0.180862  0.000849  3.999539  0.0
C  C40  1  0.16818521  0.91290368  0.71282707  1  -0.16808  -0.008658  3.745697  -0.009  -0.187618  -0.002688  4.011844  -0.002  -0.188266  -0.003195  4.033216  -0.003  -0.109722  -0.187222  -0.001322  3.996411  -0.001
C  C41  1  0.36347213  0.21067502  0.23925319  1  0.130196  0.009272  3.660707  0.01  0.092822  0.006445  3.914854  0.007  0.115357  0.002508  3.919571  0.003  0.074589  0.077326  0.010897  3.913249  0.011
C  C42  1  0.63579344  0.78750792  0.76021300  1  0.122772  -0.03066  3.657174  -0.027  0.090068  -0.014726  3.913478  -0.014  0.112507  -0.013658  3.919129  -0.014  0.073099  0.075082  -0.015565  3.911185  -0.014
C  C43  1  0.15050483  0.31553400  0.10857712  1  0.117756  -0.020017  3.676216  -0.018  0.08447  -0.000309  3.934104  0.0  0.108157  -0.001692  3.941786  -0.002  0.068027  0.067912  0.001849  3.929645  0.002
C  C44  1  0.84872664  0.68395525  0.89145648  1  0.117743  0.015613  3.681259  0.016  0.082701  0.007204  3.93843  0.009  0.105331  0.008295  3.946374  0.01  0.068288  0.067512  0.00552  3.933383  0.007
C  C45  1  0.99283776  0.31992089  0.03506418  1  -0.081154  0.02413  3.843364  0.024  -0.074861  0.004992  4.09677  0.006  -0.094097  0.002144  4.129228  0.003  -0.035601  -0.061396  0.008459  4.073582  0.009
C  C46  1  0.00645762  0.67991777  0.96491817  1  -0.089567  -0.005301  3.856597  -0.007  -0.075991  -0.00118  4.10037  -0.003  -0.093462  -0.000992  4.130741  -0.002  -0.037655  -0.065093  -0.001379  4.080486  -0.003
C  C47  1  0.86661813  0.38371781  0.10879275  1  0.224268  0.001741  3.84332  -0.007  0.214972  0.001902  4.101347  -0.002  0.234624  -1.1e-05  4.121705  -0.002  0.085545  0.20222  0.004844  4.086497  0.0
C  C48  1  0.13296074  0.61683399  0.89125050  1  0.221007  0.008423  3.856165  0.012  0.215649  0.002011  4.104495  0.005  0.235538  0.002435  4.123255  0.005  0.084234  0.20205  0.001389  4.092072  0.004
C  C49  1  0.71341436  0.38759657  0.02788260  1  0.225601  0.039453  3.799343  0.036  0.212472  0.008235  4.064736  0.01  0.215623  0.004868  4.081477  0.006  0.068654  0.210926  0.012194  4.05201  0.013
C  C50  1  0.28648429  0.61331771  0.97189058  1  0.219498  -0.01787  3.805237  -0.017  0.21248  -0.00654  4.062703  -0.008  0.216347  -0.004855  4.078739  -0.006  0.068312  0.20966  -0.007229  4.051718  -0.008
C  C51  1  0.68632833  0.32749818  0.88055537  1  -0.162316  -0.021965  3.736816  -0.021  -0.185078  -0.000248  4.009039  0.0  -0.184772  -0.000256  4.029386  0.0  -0.101963  -0.186337  -1.3e-05  3.995845  0.0
C  C52  1  0.31325454  0.67251654  0.11915882  1  -0.157106  0.004628  3.737881  0.005  -0.183799  0.000182  4.007195  0.0  -0.184599  0.001076  4.027674  0.001  -0.101164  -0.183377  -0.000683  3.993873  -0.001
C  C53  1  0.81025382  0.26322547  0.80828868  1  -0.084685  0.036288  3.831553  0.032  -0.123017  0.003341  4.133834  0.003  -0.130984  0.001056  4.158699  0.001  -0.113325  -0.116316  0.007035  4.115947  0.006
C  C54  1  0.18951352  0.73691442  0.19172095  1  -0.095657  -0.007353  3.843403  -0.006  -0.125592  0.000266  4.135186  0.001  -0.132438  -0.000216  4.159088  0.0  -0.115639  -0.121249  0.000225  4.119859  0.001
C  C55  1  0.96125919  0.26076873  0.88347017  1  -0.11099  -0.015218  3.769921  -0.015  -0.140511  -0.000965  4.045248  -0.001  -0.136655  -0.000666  4.068757  -0.001  -0.107532  -0.142301  -0.000296  4.027384  -0.001
C  C56  1  0.03847418  0.73939729  0.11669415  1  -0.110854  -0.000307  3.77454  0.0  -0.139925  -0.000234  4.043442  0.0  -0.13672  0.000743  4.066686  0.001  -0.107684  -0.141358  -0.000988  4.027225  -0.001
C  C57  1  0.30102248  0.19489495  0.57207223  1  -0.011617  -7.1e-05  3.678234  0.0  -0.099613  -0.00016  3.935257  0.0  -0.093178  -0.000137  3.939682  0.0  -0.154412  -0.103975  -0.000179  3.932068  0.0
C  C58  1  0.70112824  0.80596762  0.42737732  1  -0.012729  -0.000178  3.682301  0.0  -0.101095  -7.7e-05  3.939913  0.0  -0.094728  -8.2e-05  3.944495  0.0  -0.156118  -0.105423  2e-06  3.936562  0.0
N  N59  1  0.34505705  0.34275312  0.30520143  1  -0.199764  0.0456  3.256076  0.053  -0.165118  0.04606  3.572575  0.061  -0.19189  0.040202  3.593105  0.056  -0.257953  -0.150447  0.041127  3.562538  0.051
N  N60  1  0.65204747  0.65439887  0.69509874  1  -0.190453  0.050265  3.246454  0.063  -0.162216  0.048515  3.563921  0.067  -0.188947  0.044618  3.585026  0.065  -0.250794  -0.148059  0.041555  3.55377  0.055
N  N61  1  0.19926679  0.36837101  0.24805269  1  -0.219713  0.08461  3.327731  0.101  -0.192286  0.054845  3.655373  0.072  -0.222782  0.045953  3.675485  0.064  -0.280461  -0.172486  0.058918  3.6445  0.074
N  N62  1  0.79630939  0.62824654  0.75206020  1  -0.220458  -0.067007  3.343746  -0.081  -0.188168  -0.049382  3.672076  -0.066  -0.218271  -0.046231  3.692184  -0.064  -0.277638  -0.16755  -0.046221  3.660408  -0.059
O  O63  1  0.96777225  0.32376820  0.49563409  1  -0.615787  -0.069043  2.17109  -0.086  -0.579832  -0.051584  2.462129  -0.071  -0.620786  -0.043067  2.458117  -0.062  -0.35827  -0.550845  -0.051469  2.465232  -0.069
O  O64  1  0.03029332  0.67488517  0.50809007  1  -0.602375  0.096771  2.16803  0.122  -0.575935  0.055873  2.463804  0.079  -0.618713  0.042929  2.461487  0.064  -0.353877  -0.545546  0.065885  2.465869  0.089
O  O65  1  0.67178037  0.39244553  0.48388284  1  -0.566792  -0.006942  2.350577  -0.008  -0.535332  0.003768  2.693059  0.008  -0.590211  0.001231  2.688223  0.005  -0.352976  -0.496269  0.001371  2.696812  0.003
O  O66  1  0.33682857  0.61721720  0.50882305  1  -0.550904  0.125354  2.342487  0.163  -0.534492  0.089383  2.689297  0.131  -0.58983  0.071951  2.685416  0.111  -0.350587  -0.497511  0.094092  2.693741  0.131
O  O67  1  0.88005854  0.44219240  0.24668065  1  -0.521541  0.117569  2.211802  0.151  -0.496391  0.071358  2.503237  0.104  -0.544722  0.052142  2.506303  0.081  -0.324769  -0.465022  0.083908  2.502521  0.116
O  O68  1  0.11900004  0.55793036  0.75319480  1  -0.533587  -0.088134  2.210902  -0.111  -0.50292  -0.06424  2.500925  -0.091  -0.550074  -0.05105  2.503371  -0.075  -0.327796  -0.471607  -0.064596  2.499896  -0.088
O  O69  1  0.59715039  0.45147845  0.09898414  1  -0.490864  0.010868  2.1271  0.013  -0.44965  0.001095  2.351824  0.001  -0.468989  0.000394  2.344546  0.0  -0.355574  -0.434432  0.002865  2.355443  0.003
O  O70  1  0.40278039  0.54955302  0.90032916  1  -0.495224  -0.003148  2.129548  -0.003  -0.44959  -0.000547  2.349721  0.0  -0.46837  -0.000453  2.341921  0.0  -0.357337  -0.435719  -0.000668  2.354614  0.0
O  O71  1  0.29746371  0.34396634  0.60830512  1  -0.551304  -0.002188  2.187764  -0.002  -0.500926  -0.002159  2.437541  -0.002  -0.521716  -0.001771  2.425064  -0.001  -0.413538  -0.485148  -0.002319  2.44565  -0.002
O  O72  1  0.70198579  0.65602579  0.38927865  1  -0.547742  -3.2e-05  2.184407  0.001  -0.496532  -0.000144  2.432061  0.001  -0.516775  -0.000797  2.419772  0.0  -0.41291  -0.4812  0.000847  2.440036  0.002
