# generated using pymatgen
data_LiCuPH4C3O5
_symmetry_space_group_name_H-M   'P 1'
_cell_length_a   4.96498951
_cell_length_b   11.02788723
_cell_length_c   11.13214349
_cell_angle_alpha   80.88139677
_cell_angle_beta   77.11372156
_cell_angle_gamma   76.92252204
_symmetry_Int_Tables_number   1
_chemical_formula_structural   LiCuPH4C3O5
_chemical_formula_sum   'Li4 Cu4 P4 H16 C12 O20'
_cell_volume   575.00417282
_cell_formula_units_Z   4
loop_
 _symmetry_equiv_pos_site_id
 _symmetry_equiv_pos_as_xyz
  1  'x, y, z'
loop_
 _atom_site_type_symbol
 _atom_site_label
 _atom_site_symmetry_multiplicity
 _atom_site_fract_x
 _atom_site_fract_y
 _atom_site_fract_z
 _atom_site_occupancy
 _atom_site_hle17_ddec_charge
 _atom_site_hle17_ddec_spin_density
 _atom_site_hle17_ddec_sum_bond_order
 _atom_site_hle17_magmom
 _atom_site_hse06_10hf_ddec_charge
 _atom_site_hse06_10hf_ddec_spin_density
 _atom_site_hse06_10hf_ddec_sum_bond_order
 _atom_site_hse06_10hf_magmom
 _atom_site_hse06_ddec_charge
 _atom_site_hse06_ddec_spin_density
 _atom_site_hse06_ddec_sum_bond_order
 _atom_site_hse06_magmom
 _atom_site_pbe_cm5_charge
 _atom_site_pbe_ddec_charge
 _atom_site_pbe_ddec_spin_density
 _atom_site_pbe_ddec_sum_bond_order
 _atom_site_pbe_magmom
Li  Li0  1  0.04319186  0.50578204  0.34394817  1  0.857539  0.000201  0.413915  0.0  0.828479  0.000439  0.503293  0.0  0.836038  6.9e-05  0.489709  0.0  0.524212  0.822895  0.000792  0.512842  0.001
Li  Li1  1  0.89490888  0.99393043  0.15539991  1  0.85785  0.000154  0.413007  0.0  0.828118  0.000309  0.503345  0.0  0.8358  0.000383  0.489599  0.0  0.523866  0.822551  0.000198  0.512828  0.0
Li  Li2  1  0.95679720  0.49421718  0.65605726  1  0.857528  0.000202  0.413918  0.0  0.828435  0.000439  0.503348  0.0  0.836001  7e-05  0.489755  0.0  0.524187  0.822859  0.000795  0.512901  0.001
Li  Li3  1  0.10509051  0.00606976  0.84459463  1  0.85788  0.000153  0.412959  0.0  0.828129  0.000308  0.503313  0.0  0.83581  0.000383  0.489568  0.0  0.523858  0.822574  0.000197  0.512795  0.0
Cu  Cu4  1  0.49999465  0.49999727  0.50000287  1  1.07613  0.70007  1.640703  0.524  1.083205  0.797647  2.021408  0.653  1.168113  0.864356  1.960905  0.74  0.781384  1.013162  0.747863  2.08879  0.595
Cu  Cu5  1  0.49999803  0.00000273  0.99999648  1  1.075868  -0.732398  1.639969  -0.515  1.083294  -0.832805  2.020931  -0.65  1.168595  -0.917341  1.960426  -0.739  0.779249  1.010722  -0.755021  2.090062  -0.581
Cu  Cu6  1  0.40855762  0.25029878  0.74987809  1  1.153041  0.72054  1.642614  0.545  1.171012  0.82471  2.035835  0.682  1.255134  0.892203  1.972875  0.771  0.776995  1.113794  0.765331  2.07986  0.614
Cu  Cu7  1  0.59144613  0.74970045  0.25012297  1  1.153019  0.720551  1.642665  0.545  1.171001  0.824719  2.035865  0.682  1.255119  0.892214  1.972911  0.771  0.776997  1.11378  0.765371  2.079845  0.614
P  P8  1  0.81453841  0.22698649  0.94409244  1  1.537262  -0.000276  4.78646  -0.003  1.411976  0.001799  5.280233  -0.001  1.470271  0.000797  5.235736  -0.001  0.338459  1.370445  0.002841  5.309551  0.0
P  P9  1  0.98546526  0.27301208  0.55576563  1  1.539047  0.003183  4.781399  -0.004  1.413867  0.008464  5.276016  0.002  1.471973  0.006211  5.231847  0.002  0.339797  1.37274  0.01025  5.304914  0.002
P  P10  1  0.18545479  0.77301179  0.05591350  1  1.537197  -0.000266  4.786493  -0.003  1.411921  0.001799  5.280249  -0.001  1.470216  0.000798  5.235751  -0.001  0.338441  1.370382  0.00284  5.309574  0.0
P  P11  1  0.01453960  0.72698435  0.44423174  1  1.539154  0.003189  4.78157  -0.004  1.413935  0.008464  5.276166  0.002  1.472045  0.006211  5.231982  0.002  0.339859  1.372803  0.010247  5.305062  0.002
H  H12  1  0.02697400  0.28332221  0.08997001  1  0.13337  0.00133  0.935762  0.002  0.14724  0.000913  0.993185  0.001  0.148421  0.000579  0.994681  0.001  0.114403  0.146269  0.00117  0.99226  0.002
H  H13  1  0.40159666  0.21652049  0.41037413  1  0.133429  0.000975  0.935773  0.001  0.147492  0.000799  0.992892  0.001  0.148679  0.000493  0.994413  0.001  0.114394  0.146489  0.001033  0.99203  0.001
H  H14  1  0.97302711  0.71667889  0.91003265  1  0.133371  0.001327  0.935818  0.002  0.147226  0.000913  0.993264  0.001  0.148407  0.000579  0.994761  0.001  0.114428  0.14626  0.00117  0.992336  0.002
H  H15  1  0.59840148  0.78348250  0.58962010  1  0.133417  0.000974  0.935855  0.001  0.147455  0.000799  0.992961  0.001  0.14864  0.000493  0.994486  0.001  0.114416  0.146457  0.001033  0.9921  0.001
H  H16  1  0.41107723  0.42791290  0.10149920  1  0.122811  -0.000417  0.923113  -0.001  0.140735  -9.5e-05  0.977256  0.0  0.142596  -8.3e-05  0.977344  0.0  0.117037  0.139435  -8.2e-05  0.977355  0.0
H  H17  1  0.94213908  0.07215320  0.39842361  1  0.122611  0.000576  0.921051  0.001  0.140849  0.000279  0.97522  0.0  0.142708  0.000203  0.975226  0.0  0.116721  0.139465  0.000318  0.975412  0.0
H  H18  1  0.58892140  0.57208727  0.89850025  1  0.122788  -0.000419  0.923146  -0.001  0.140704  -9.5e-05  0.977276  0.0  0.142563  -8.3e-05  0.977367  0.0  0.117029  0.139411  -8.2e-05  0.977374  0.0
H  H19  1  0.05786051  0.92784885  0.60157383  1  0.122534  0.000575  0.92106  0.001  0.14079  0.000279  0.975226  0.0  0.142648  0.000203  0.975235  0.0  0.116709  0.139412  0.000318  0.975414  0.0
H  H20  1  0.91672271  0.41337898  0.98619421  1  0.140951  -0.001201  0.940839  -0.001  0.154876  -0.000769  0.998014  -0.001  0.156736  -0.000545  0.998535  -0.001  0.114407  0.153316  -0.000898  0.998  -0.001
H  H21  1  0.31728289  0.08659095  0.51431186  1  0.140838  0.000637  0.941738  0.001  0.154651  0.000592  0.998693  0.001  0.156408  0.000387  0.999353  0.001  0.114303  0.153297  0.000779  0.998504  0.001
H  H22  1  0.08327649  0.58662025  0.01380934  1  0.140973  -0.001201  0.940816  -0.001  0.154911  -0.000769  0.997978  -0.001  0.156772  -0.000545  0.998497  -0.001  0.114397  0.15335  -0.000898  0.99796  -0.001
H  H23  1  0.68272718  0.91341017  0.48568180  1  0.140893  0.000635  0.941685  0.001  0.154634  0.000592  0.998696  0.001  0.156393  0.000386  0.999353  0.001  0.114295  0.153278  0.000778  0.998503  0.001
H  H24  1  0.50660280  0.28775347  0.19475416  1  0.107576  -0.000368  0.930729  -0.001  0.125732  -0.000104  0.986181  0.0  0.127115  -7e-05  0.986598  0.0  0.111941  0.124643  -0.000123  0.9862  0.0
H  H25  1  0.99050441  0.21231053  0.30534059  1  0.107629  0.000442  0.929835  0.001  0.126179  0.000169  0.98525  0.0  0.127535  0.000119  0.985623  0.0  0.112455  0.125066  0.000202  0.985281  0.0
H  H26  1  0.49339356  0.71224763  0.80524498  1  0.107563  -0.000365  0.930748  -0.001  0.125712  -0.000104  0.986194  0.0  0.127093  -7e-05  0.986612  0.0  0.111931  0.124632  -0.000123  0.986218  0.0
H  H27  1  0.00949615  0.78769151  0.69465795  1  0.107569  0.00044  0.92994  0.001  0.126123  0.000169  0.985354  0.0  0.127478  0.000119  0.985729  0.0  0.112433  0.125017  0.000202  0.985387  0.0
C  C28  1  0.64459636  0.44285828  0.23668072  1  0.746377  -0.001925  3.786258  -0.004  0.708413  0.001052  4.087274  -0.001  0.744983  0.000468  4.076646  -0.001  0.234731  0.683367  0.001749  4.093333  0.0
C  C29  1  0.32582619  0.05725040  0.26322640  1  0.74563  0.001475  3.783639  0.005  0.707967  -0.001344  4.084663  0.001  0.744476  -0.000846  4.074008  0.001  0.235089  0.682851  -0.001845  4.090813  0.0
C  C30  1  0.35539152  0.55714096  0.76331760  1  0.746461  -0.001921  3.786157  -0.004  0.708347  0.001052  4.087371  -0.001  0.74492  0.000468  4.076739  -0.001  0.234697  0.683301  0.00175  4.093455  0.0
C  C31  1  0.67415072  0.94275072  0.73677359  1  0.745765  0.001472  3.783457  0.005  0.707918  -0.001344  4.084736  0.001  0.744428  -0.000846  4.074066  0.001  0.235102  0.682823  -0.001845  4.090901  0.0
C  C32  1  0.58581577  0.37032843  0.14320650  1  -0.216833  0.009188  3.657202  0.01  -0.257277  0.005488  3.897009  0.006  -0.26248  0.003531  3.906347  0.004  -0.148053  -0.25392  0.007115  3.891127  0.008
C  C33  1  0.10093035  0.12964296  0.35687976  1  -0.216059  -0.010173  3.651824  -0.011  -0.25779  -0.005606  3.89272  -0.006  -0.262829  -0.003718  3.901817  -0.004  -0.148227  -0.254339  -0.006899  3.886851  -0.008
C  C34  1  0.41418534  0.62967266  0.85679615  1  -0.216825  0.009196  3.657014  0.01  -0.25719  0.005492  3.89679  0.006  -0.262393  0.003535  3.90613  0.004  -0.148037  -0.253846  0.007117  3.890939  0.008
C  C35  1  0.89907001  0.87035534  0.64311899  1  -0.215877  -0.010179  3.651608  -0.011  -0.257654  -0.005609  3.892573  -0.006  -0.262697  -0.003722  3.901677  -0.004  -0.148168  -0.25421  -0.006902  3.886717  -0.008
C  C36  1  0.84879124  0.33188347  0.04573766  1  -0.409809  0.004768  3.670038  0.005  -0.429901  0.00258  3.911485  0.003  -0.44189  0.001325  3.923205  0.002  -0.158449  -0.421309  0.00378  3.903902  0.004
C  C37  1  0.22787494  0.16798414  0.45443204  1  -0.409875  0.010445  3.666992  0.011  -0.430406  0.006266  3.90974  0.007  -0.442473  0.004063  3.921629  0.005  -0.158393  -0.42182  0.007895  3.901712  0.008
C  C38  1  0.15120650  0.66811670  0.95426268  1  -0.409872  0.004766  3.670021  0.005  -0.429988  0.002581  3.911469  0.003  -0.44198  0.001324  3.923186  0.002  -0.158478  -0.421389  0.003779  3.903889  0.004
C  C39  1  0.77211865  0.83201885  0.54556468  1  -0.40997  0.010453  3.666976  0.011  -0.43034  0.006266  3.909569  0.007  -0.442412  0.004064  3.921473  0.005  -0.158443  -0.42175  0.007894  3.901533  0.008
O  O40  1  0.73302695  0.10719086  0.02544051  1  -0.946272  -0.047801  2.134173  -0.06  -0.897039  -0.034237  2.445086  -0.046  -0.93532  -0.029236  2.419  -0.041  -0.454173  -0.866562  -0.033892  2.461584  -0.045
O  O41  1  0.86506027  0.39216801  0.47350727  1  -0.943777  0.076024  2.129701  0.103  -0.896336  0.046669  2.441564  0.068  -0.934895  0.034553  2.415789  0.053  -0.453353  -0.865694  0.055731  2.457501  0.077
O  O42  1  0.26696548  0.89281117  0.97456412  1  -0.946187  -0.047811  2.133983  -0.06  -0.896987  -0.03424  2.444913  -0.046  -0.93526  -0.029237  2.41882  -0.041  -0.45414  -0.866517  -0.033902  2.461415  -0.045
O  O43  1  0.13492936  0.60782747  0.52649346  1  -0.943862  0.076025  2.129789  0.103  -0.896432  0.04667  2.441681  0.068  -0.934992  0.034552  2.415904  0.053  -0.453385  -0.865798  0.05573  2.457627  0.077
O  O44  1  0.87543259  0.47665866  0.21777811  1  -0.665453  0.002607  1.968566  0.004  -0.630583  0.001339  2.214342  0.003  -0.65304  0.00037  2.201719  0.001  -0.376911  -0.615059  0.002418  2.222763  0.004
O  O45  1  0.57196509  0.02359103  0.28187725  1  -0.664933  -0.002387  1.966264  -0.003  -0.629259  -0.001322  2.21096  -0.002  -0.651716  -0.00067  2.198521  -0.001  -0.376773  -0.613852  -0.001666  2.219386  -0.002
O  O46  1  0.12458436  0.52334619  0.78222107  1  -0.665417  0.002599  1.96888  0.004  -0.630477  0.001337  2.214708  0.003  -0.652936  0.000368  2.202086  0.001  -0.37682  -0.614948  0.002417  2.223152  0.004
O  O47  1  0.42807178  0.97640256  0.71812480  1  -0.664869  -0.002384  1.966801  -0.003  -0.629089  -0.001321  2.211569  -0.002  -0.651519  -0.000668  2.199088  -0.001  -0.376633  -0.613671  -0.001664  2.219993  -0.002
O  O48  1  0.11377448  0.17990770  0.86891770  1  -0.954076  0.056377  2.109832  0.077  -0.922057  0.038323  2.445497  0.055  -0.957742  0.028596  2.41064  0.043  -0.43731  -0.894884  0.044244  2.468163  0.061
O  O49  1  0.16086722  0.32056653  0.63123938  1  -0.955421  0.059468  2.108584  0.084  -0.923989  0.038163  2.444909  0.057  -0.95919  0.027524  2.409648  0.044  -0.440033  -0.897675  0.045518  2.468042  0.065
O  O50  1  0.88622893  0.82009058  0.13108836  1  -0.954013  0.056371  2.110003  0.077  -0.921986  0.038321  2.445642  0.055  -0.957673  0.028593  2.410791  0.043  -0.437296  -0.894817  0.044237  2.468277  0.061
O  O51  1  0.83915066  0.67943178  0.36875631  1  -0.955359  0.059467  2.108707  0.084  -0.923948  0.038161  2.44506  0.057  -0.959144  0.027524  2.409793  0.044  -0.440021  -0.897628  0.045516  2.468137  0.065
O  O52  1  0.59153008  0.29605448  0.86900045  1  -0.834802  0.06822  1.996292  0.092  -0.792587  0.043212  2.301717  0.063  -0.833305  0.031984  2.279254  0.049  -0.369555  -0.765271  0.049423  2.317561  0.068
O  O53  1  0.75650431  0.20398189  0.63073047  1  -0.835878  0.068401  1.995275  0.093  -0.794087  0.042302  2.300613  0.062  -0.8347  0.030896  2.278091  0.048  -0.369519  -0.766732  0.049087  2.316351  0.069
O  O54  1  0.40847049  0.70394569  0.13100120  1  -0.834753  0.068222  1.99629  0.092  -0.792557  0.043211  2.301739  0.063  -0.833279  0.031982  2.279281  0.049  -0.36957  -0.765249  0.04942  2.317566  0.068
O  O55  1  0.24350124  0.79601546  0.36927189  1  -0.835931  0.068393  1.995326  0.093  -0.79413  0.042302  2.300681  0.062  -0.834739  0.030893  2.278154  0.048  -0.369582  -0.766787  0.049089  2.316406  0.069
O  O56  1  0.44566179  0.46251231  0.33437746  1  -0.734686  0.077823  2.053236  0.108  -0.714831  0.05216  2.353509  0.078  -0.753741  0.038754  2.337508  0.062  -0.389423  -0.686002  0.060722  2.364334  0.087
O  O57  1  0.24381880  0.03767779  0.16561450  1  -0.734178  -0.08211  2.053335  -0.106  -0.714735  -0.054965  2.354234  -0.078  -0.753945  -0.041845  2.338609  -0.062  -0.388972  -0.685511  -0.061614  2.364865  -0.085
O  O58  1  0.55433725  0.53748881  0.66561898  1  -0.734698  0.077852  2.053082  0.108  -0.7148  0.052176  2.353415  0.078  -0.753718  0.038765  2.337415  0.062  -0.389412  -0.685965  0.060725  2.364253  0.087
O  O59  1  0.75618646  0.96232236  0.83438866  1  -0.734387  -0.082165  2.053032  -0.106  -0.714866  -0.054994  2.353873  -0.078  -0.754106  -0.041865  2.338289  -0.062  -0.389099  -0.685641  -0.061627  2.364515  -0.085
