# generated using pymatgen
data_CdH18C20N4O7
_symmetry_space_group_name_H-M   'P 1'
_cell_length_a   7.92648540
_cell_length_b   11.26400749
_cell_length_c   15.31094495
_cell_angle_alpha   107.10762364
_cell_angle_beta   96.34194785
_cell_angle_gamma   109.43598038
_symmetry_Int_Tables_number   1
_chemical_formula_structural   CdH18C20N4O7
_chemical_formula_sum   'Cd2 H36 C40 N8 O14'
_cell_volume   1198.71065827
_cell_formula_units_Z   2
loop_
 _symmetry_equiv_pos_site_id
 _symmetry_equiv_pos_as_xyz
  1  'x, y, z'
loop_
 _atom_site_type_symbol
 _atom_site_label
 _atom_site_symmetry_multiplicity
 _atom_site_fract_x
 _atom_site_fract_y
 _atom_site_fract_z
 _atom_site_occupancy
 _atom_site_hle17_bader_spin_density
 _atom_site_hle17_ddec_charge
 _atom_site_hle17_ddec_spin_density
 _atom_site_hle17_ddec_sum_bond_order
 _atom_site_hle17_magmom
 _atom_site_hse06_10hf_bader_spin_density
 _atom_site_hse06_10hf_ddec_charge
 _atom_site_hse06_10hf_ddec_spin_density
 _atom_site_hse06_10hf_ddec_sum_bond_order
 _atom_site_hse06_10hf_magmom
 _atom_site_hse06_bader_spin_density
 _atom_site_hse06_ddec_charge
 _atom_site_hse06_ddec_spin_density
 _atom_site_hse06_ddec_sum_bond_order
 _atom_site_hse06_magmom
 _atom_site_pbe_bader_spin_density
 _atom_site_pbe_cm5_charge
 _atom_site_pbe_ddec_charge
 _atom_site_pbe_ddec_spin_density
 _atom_site_pbe_ddec_sum_bond_order
 _atom_site_pbe_magmom
Cd  Cd0  1  0.74390860  0.59120788  0.15484615  1  0  1.12593  0  1.612864  0  0  0.93038  0  2.048251  0  0  0.98941  0  1.997686  0  0  0.775595  0.888632  0  2.082605  0
Cd  Cd1  1  0.25609197  0.40878755  0.84515757  1  0  1.125996  0  1.612871  0  0  0.930452  0  2.048268  0  0  0.989484  0  1.997702  0  0  0.775611  0.888707  0  2.082625  0
H  H2  1  0.41029731  0.76240719  0.69823744  1  0  0.364412  0  0.92434  0  0  0.333473  0  1.008524  0  0  0.344646  0  0.996348  0  0  0.299249  0.32563  0  1.016842  0
H  H3  1  0.58971023  0.23758454  0.30175177  1  0  0.364242  0  0.924608  0  0  0.333414  0  1.008644  0  0  0.344586  0  0.996468  0  0  0.299254  0.325572  0  1.016963  0
H  H4  1  0.92466840  0.31954290  0.67772257  1  0  0.362887  0  0.923929  0  0  0.333589  0  1.004771  0  0  0.345097  0  0.992445  0  0  0.303254  0.325452  0  1.01331  0
H  H5  1  0.07534896  0.68048803  0.32227836  1  0  0.362595  0  0.924474  0  0  0.333389  0  1.005137  0  0  0.344888  0  0.992846  0  0  0.303154  0.325251  0  1.013676  0
H  H6  1  0.67424893  0.27414257  0.10885545  1  0  0.076797  0  0.947523  0  0  0.082614  0  1.015438  0  0  0.085746  0  1.012026  0  0  0.113025  0.080252  0  1.018043  0
H  H7  1  0.32576817  0.72584714  0.89114528  1  0  0.076999  0  0.947521  0  0  0.082784  0  1.01545  0  0  0.085918  0  1.012035  0  0  0.11306  0.080422  0  1.018054  0
H  H8  1  0.56112669  0.06739915  0.96534402  1  0  0.105642  0  0.96055  0  0  0.114515  0  1.024698  0  0  0.117606  0  1.023749  0  0  0.108081  0.112293  0  1.02548  0
H  H9  1  0.43889993  0.93259333  0.03465076  1  0  0.105673  0  0.960478  0  0  0.114522  0  1.024647  0  0  0.117604  0  1.023725  0  0  0.108049  0.112305  0  1.025426  0
H  H10  1  0.71381426  0.32521930  0.80342715  1  0  0.115596  0  0.948058  0  0  0.125805  0  1.006571  0  0  0.129439  0  1.005297  0  0  0.110015  0.123119  0  1.007792  0
H  H11  1  0.28620309  0.67476529  0.19657007  1  0  0.115681  0  0.947899  0  0  0.12588  0  1.006428  0  0  0.129512  0  1.005159  0  0  0.110087  0.123195  0  1.007648  0
H  H12  1  0.82086627  0.52121781  0.95241773  1  0  0.080435  0  0.945356  0  0  0.090686  0  1.003835  0  0  0.09287  0  1.002311  0  0  0.115634  0.08908  0  1.004934  0
H  H13  1  0.17913706  0.47877427  0.04757841  1  0  0.080368  0  0.945484  0  0  0.090655  0  1.003897  0  0  0.09284  0  1.002371  0  0  0.115604  0.08905  0  1.004996  0
H  H14  1  0.56125460  0.08952730  0.71850529  1  0  0.088684  0  0.948037  0  0  0.095363  0  1.020011  0  0  0.098502  0  1.017372  0  0  0.114983  0.093021  0  1.022073  0
H  H15  1  0.43873408  0.91046662  0.28149395  1  0  0.088697  0  0.948147  0  0  0.095366  0  1.020096  0  0  0.098503  0  1.017456  0  0  0.115008  0.093026  0  1.022152  0
H  H16  1  0.91644411  0.90970464  0.26677290  1  0  0.091154  0  0.945453  0  0  0.101577  0  1.001635  0  0  0.10445  0  0.999303  0  0  0.117911  0.099418  0  1.00346  0
H  H17  1  0.08355484  0.09030555  0.73323202  1  0  0.091327  0  0.945471  0  0  0.101759  0  1.001635  0  0  0.104633  0  0.999302  0  0  0.118018  0.099597  0  1.00346  0
H  H18  1  0.92447207  0.08382170  0.41570627  1  0  0.117104  0  0.932276  0  0  0.125957  0  0.989982  0  0  0.130022  0  0.988214  0  0  0.113374  0.123094  0  0.991296  0
H  H19  1  0.07551272  0.91618175  0.58428978  1  0  0.117104  0  0.932173  0  0  0.125974  0  0.989854  0  0  0.130039  0  0.988091  0  0  0.113374  0.123111  0  0.991166  0
H  H20  1  0.50473046  0.76771141  0.46595325  1  0  0.111511  0  0.944811  0  0  0.122589  0  1.002128  0  0  0.125769  0  1.001565  0  0  0.108967  0.120268  0  1.00274  0
H  H21  1  0.49526598  0.23230983  0.53405672  1  0  0.111586  0  0.944712  0  0  0.122615  0  1.00209  0  0  0.125797  0  1.001532  0  0  0.109039  0.120296  0  1.002701  0
H  H22  1  0.50848654  0.60856722  0.31310246  1  0  0.084387  0  0.941049  0  0  0.095709  0  1.000284  0  0  0.098096  0  0.997885  0  0  0.11574  0.093861  0  1.002148  0
H  H23  1  0.49151575  0.39144851  0.68691157  1  0  0.084245  0  0.941098  0  0  0.095595  0  1.000302  0  0  0.097982  0  0.997903  0  0  0.115689  0.093741  0  1.002176  0
H  H24  1  0.62726118  0.99234105  0.58616903  1  0  0.092262  0  0.935982  0  0  0.100593  0  1.003786  0  0  0.104451  0  0.999793  0  0  0.11685  0.097751  0  1.006758  0
H  H25  1  0.37270949  0.00767799  0.41383001  1  0  0.092247  0  0.936241  0  0  0.100558  0  1.004059  0  0  0.104415  0  1.000064  0  0  0.116864  0.097713  0  1.007026  0
H  H26  1  0.16915808  0.98924874  0.14186121  1  0  0.099466  0  0.979029  0  0  0.105214  0  1.045929  0  0  0.108577  0  1.044035  0  0  0.101303  0.102733  0  1.047473  0
H  H27  1  0.83084689  0.01073334  0.85813131  1  0  0.099471  0  0.978923  0  0  0.105196  0  1.045858  0  0  0.108555  0  1.043971  0  0  0.101282  0.102715  0  1.047401  0
H  H28  1  0.69460484  0.82066258  0.91216129  1  0  0.089715  0  0.972309  0  0  0.09886  0  1.038545  0  0  0.102147  0  1.036168  0  0  0.101407  0.096467  0  1.040296  0
H  H29  1  0.30540391  0.17931810  0.08783913  1  0  0.089873  0  0.972148  0  0  0.098925  0  1.038467  0  0  0.102214  0  1.036089  0  0  0.101432  0.096535  0  1.040213  0
H  H30  1  0.66053201  0.43029630  0.45976301  1  0  0.096915  0  0.939794  0  0  0.108163  0  0.995999  0  0  0.111697  0  0.994033  0  0  0.105433  0.105573  0  0.997546  0
H  H31  1  0.33946663  0.56969189  0.54023534  1  0  0.096904  0  0.939767  0  0  0.108166  0  0.995964  0  0  0.111674  0  0.994029  0  0  0.105424  0.105575  0  0.997511  0
H  H32  1  0.17852034  0.53628941  0.37987643  1  0  0.096707  0  0.944204  0  0  0.109111  0  1.000658  0  0  0.112344  0  0.998823  0  0  0.106369  0.106689  0  1.002171  0
H  H33  1  0.82147459  0.46370649  0.62012104  1  0  0.09674  0  0.9442  0  0  0.109143  0  1.000643  0  0  0.112378  0  0.998806  0  0  0.106375  0.106722  0  1.002159  0
H  H34  1  0.50266217  0.40042453  0.19574253  1  0  0.412025  0  0.894032  0  0  0.379468  0  0.960909  0  0  0.390982  0  0.944075  0  0  0.284094  0.371343  0  0.972763  0
H  H35  1  0.49736141  0.59958924  0.80426432  1  0  0.412095  0  0.893933  0  0  0.379528  0  0.960833  0  0  0.39105  0  0.943985  0  0  0.284069  0.371401  0  0.972691  0
H  H36  1  0.39700172  0.38467383  0.09249448  1  0  0.421567  0  0.890035  0  0  0.388289  0  0.958597  0  0  0.399848  0  0.942009  0  0  0.282326  0.380145  0  0.970244  0
H  H37  1  0.60300696  0.61532293  0.90751208  1  0  0.421592  0  0.890021  0  0  0.388338  0  0.958559  0  0  0.399898  0  0.941967  0  0  0.282325  0.380194  0  0.970205  0
C  C38  1  0.68111328  0.28127932  0.03966547  1  0  0.127493  0  3.724291  0  0  0.097246  0  3.979887  0  0  0.105242  0  3.99672  0  0  0.039781  0.091934  0  3.968541  0
C  C39  1  0.31887785  0.71870842  0.96032828  1  0  0.127125  0  3.724521  0  0  0.096907  0  3.980044  0  0  0.104896  0  3.996885  0  0  0.039712  0.091599  0  3.968696  0
C  C40  1  0.61762763  0.16643146  0.95988784  1  0  -0.140684  0  3.685826  0  0  -0.163048  0  3.936215  0  0  -0.170276  0  3.956867  0  0  -0.077757  -0.158375  0  3.922393  0
C  C41  1  0.38237599  0.83355546  0.04010413  1  0  -0.140535  0  3.685789  0  0  -0.162888  0  3.936131  0  0  -0.170114  0  3.956777  0  0  -0.077654  -0.158212  0  3.922294  0
C  C42  1  0.62349977  0.17915306  0.87155315  1  0  0.122971  0  3.774529  0  0  0.137182  0  4.013595  0  0  0.142429  0  4.032494  0  0  0.017402  0.133745  0  4.000674  0
C  C43  1  0.37648556  0.82083374  0.12844324  1  0  0.12287  0  3.774599  0  0  0.13709  0  4.013638  0  0  0.142331  0  4.032548  0  0  0.017341  0.133655  0  4.000717  0
C  C44  1  0.70158120  0.30967848  0.86966155  1  0  -0.136721  0  3.670099  0  0  -0.159283  0  3.923754  0  0  -0.165989  0  3.941825  0  0  -0.078514  -0.155113  0  3.911873  0
C  C45  1  0.29841087  0.69032091  0.13032977  1  0  -0.136845  0  3.670043  0  0  -0.159425  0  3.923737  0  0  -0.166132  0  3.941809  0  0  -0.078594  -0.155255  0  3.911854  0
C  C46  1  0.76259652  0.41922578  0.95268448  1  0  0.137329  0  3.719043  0  0  0.105484  0  3.978073  0  0  0.113522  0  3.995456  0  0  0.040782  0.100212  0  3.966167  0
C  C47  1  0.23739394  0.58075798  0.04730850  1  0  0.137397  0  3.719053  0  0  0.105535  0  3.978096  0  0  0.113577  0  3.995473  0  0  0.040772  0.10026  0  3.966195  0
C  C48  1  0.55597935  0.06634248  0.78299865  1  0  0.024121  0  3.680762  0  0  -0.020085  0  3.959733  0  0  -0.014307  0  3.968467  0  0  0.040572  -0.023647  0  3.953797  0
C  C49  1  0.44400514  0.93364856  0.21700301  1  0  0.024272  0  3.680659  0  0  -0.019865  0  3.959509  0  0  -0.014083  0  3.968248  0  0  0.040687  -0.023426  0  3.95357  0
C  C50  1  0.82657372  0.88368322  0.31294858  1  0  0.127075  0  3.716224  0  0  0.095439  0  3.971704  0  0  0.102835  0  3.989452  0  0  0.04186  0.090503  0  3.959763  0
C  C51  1  0.17342732  0.11632124  0.68705809  1  0  0.127031  0  3.716721  0  0  0.095349  0  3.972224  0  0  0.102752  0  3.989965  0  0  0.041784  0.090412  0  3.960281  0
C  C52  1  0.83206717  0.97910757  0.39574121  1  0  -0.141498  0  3.689097  0  0  -0.163341  0  3.939739  0  0  -0.170246  0  3.959527  0  0  -0.076228  -0.158978  0  3.926582  0
C  C53  1  0.16793033  0.02091238  0.60426338  1  0  -0.141444  0  3.689586  0  0  -0.163286  0  3.940112  0  0  -0.170202  0  3.959926  0  0  -0.076052  -0.158914  0  3.926952  0
C  C54  1  0.71809649  0.93911928  0.45451241  1  0  0.107718  0  3.804613  0  0  0.123693  0  4.041661  0  0  0.127925  0  4.06287  0  0  0.011659  0.120928  0  4.027274  0
C  C55  1  0.28189340  0.06089554  0.54549132  1  0  0.107672  0  3.804263  0  0  0.123746  0  4.041157  0  0  0.127986  0  4.062357  0  0  0.011722  0.120965  0  4.026805  0
C  C56  1  0.59912396  0.80311628  0.42404994  1  0  -0.162934  0  3.711726  0  0  -0.184157  0  3.962015  0  0  -0.191229  0  3.981815  0  0  -0.083848  -0.179695  0  3.948832  0
C  C57  1  0.40088717  0.19691746  0.57596670  1  0  -0.163119  0  3.711747  0  0  -0.184374  0  3.962107  0  0  -0.191453  0  3.981908  0  0  -0.084105  -0.179905  0  3.948926  0
C  C58  1  0.60069322  0.71431550  0.33942820  1  0  0.125045  0  3.733629  0  0  0.092201  0  3.992857  0  0  0.099855  0  4.010904  0  0  0.03965  0.087248  0  3.98049  0
C  C59  1  0.39930474  0.28569590  0.66058078  1  0  0.125271  0  3.733644  0  0  0.092424  0  3.992843  0  0  0.100075  0  4.010894  0  0  0.039782  0.087478  0  3.98047  0
C  C60  1  0.72011692  0.03157327  0.54427524  1  0  0.005671  0  3.690735  0  0  -0.037124  0  3.971068  0  0  -0.033089  0  3.981357  0  0  0.037188  -0.039497  0  3.963975  0
C  C61  1  0.27988960  0.96844369  0.45572560  1  0  0.005889  0  3.690773  0  0  -0.036897  0  3.971006  0  0  -0.032863  0  3.981291  0  0  0.037316  -0.039264  0  3.963914  0
C  C62  1  0.85024441  0.77666980  0.06320104  1  0  0.633098  0  3.910358  0  0  0.584162  0  4.196583  0  0  0.618912  0  4.19002  0  0  0.200718  0.560841  0  4.199868  0
C  C63  1  0.14974124  0.22331821  0.93679887  1  0  0.633209  0  3.910457  0  0  0.584233  0  4.196734  0  0  0.618992  0  4.19017  0  0  0.200693  0.560903  0  4.200017  0
C  C64  1  0.92484161  0.89184792  0.03021360  1  0  -0.052827  0  3.758949  0  0  -0.028727  0  3.986557  0  0  -0.035827  0  4.009434  0  0  -0.015862  -0.024386  0  3.971295  0
C  C65  1  0.07516174  0.10813613  0.96977979  1  0  -0.052864  0  3.758893  0  0  -0.028728  0  3.986452  0  0  -0.035863  0  4.009373  0  0  -0.015992  -0.024352  0  3.971143  0
C  C66  1  0.09573436  0.99474509  0.07985595  1  0  -0.071469  0  3.740468  0  0  -0.094455  0  3.988462  0  0  -0.095571  0  4.009461  0  0  -0.085682  -0.093799  0  3.974468  0
C  C67  1  0.90426390  0.00523238  0.92014372  1  0  -0.071902  0  3.740728  0  0  -0.094883  0  3.988809  0  0  -0.095988  0  4.009823  0  0  -0.085871  -0.094237  0  3.974798  0
C  C68  1  0.82893493  0.89838463  0.95034155  1  0  -0.073469  0  3.739698  0  0  -0.096084  0  3.985426  0  0  -0.097192  0  4.00602  0  0  -0.086016  -0.094975  0  3.971417  0
C  C69  1  0.17106473  0.10158954  0.04965175  1  0  -0.073847  0  3.739448  0  0  -0.096377  0  3.985181  0  0  -0.097474  0  4.005785  0  0  -0.086076  -0.095279  0  3.971163  0
C  C70  1  0.81116083  0.46504298  0.31522590  1  0  0.669347  0  3.860327  0  0  0.612106  0  4.159891  0  0  0.646574  0  4.152374  0  0  0.222543  0.588881  0  4.163935  0
C  C71  1  0.18885784  0.53497037  0.68477591  1  0  0.669628  0  3.860005  0  0  0.612252  0  4.159747  0  0  0.646728  0  4.152226  0  0  0.22259  0.589019  0  4.163795  0
C  C72  1  0.90952479  0.48138483  0.41005621  1  0  -0.061616  0  3.752313  0  0  -0.040739  0  3.989725  0  0  -0.046977  0  4.011714  0  0  -0.013863  -0.036693  0  3.974788  0
C  C73  1  0.09046827  0.51862293  0.58994324  1  0  -0.061907  0  3.752568  0  0  -0.040971  0  3.989971  0  0  -0.047211  0  4.011949  0  0  -0.013922  -0.036923  0  3.975035  0
C  C74  1  0.80928489  0.46033193  0.47786334  1  0  -0.068021  0  3.735354  0  0  -0.090558  0  3.983716  0  0  -0.091702  0  4.004285  0  0  -0.081331  -0.089648  0  3.969686  0
C  C75  1  0.19071595  0.53967595  0.52213543  1  0  -0.067932  0  3.735232  0  0  -0.090493  0  3.983602  0  0  -0.091613  0  4.004177  0  0  -0.081309  -0.089583  0  3.96957  0
C  C76  1  0.10099797  0.52101133  0.43286609  1  0  -0.067099  0  3.739944  0  0  -0.092238  0  3.990564  0  0  -0.092855  0  4.010511  0  0  -0.081334  -0.091707  0  3.97705  0
C  C77  1  0.89900046  0.47897871  0.56713061  1  0  -0.067048  0  3.740273  0  0  -0.092186  0  3.990842  0  0  -0.0928  0  4.010793  0  0  -0.081281  -0.091659  0  3.977332  0
N  N78  1  0.75015713  0.40681337  0.03683022  1  0  -0.360868  0  3.258841  0  0  -0.283982  0  3.528117  0  0  -0.304442  0  3.545504  0  0  -0.33967  -0.270013  0  3.515922  0
N  N79  1  0.24983113  0.59317467  0.96316924  1  0  -0.360708  0  3.258999  0  0  -0.283819  0  3.528246  0  0  -0.304278  0  3.545634  0  0  -0.33958  -0.269851  0  3.51605  0
N  N80  1  0.49836077  0.94353025  0.78056429  1  0  -0.091194  0  2.940174  0  0  -0.068665  0  3.229773  0  0  -0.069611  0  3.239407  0  0  -0.220149  -0.068448  0  3.223014  0
N  N81  1  0.50162296  0.05645532  0.21942848  1  0  -0.091345  0  2.939996  0  0  -0.06886  0  3.229645  0  0  -0.06981  0  3.239279  0  0  -0.220246  -0.068644  0  3.22289  0
N  N82  1  0.71343612  0.75274020  0.28462441  1  0  -0.345715  0  3.244149  0  0  -0.271172  0  3.514975  0  0  -0.291556  0  3.534662  0  0  -0.333218  -0.25726  0  3.501262  0
N  N83  1  0.28656612  0.24726280  0.71538995  1  0  -0.345875  0  3.244061  0  0  -0.271316  0  3.514912  0  0  -0.2917  0  3.534589  0  0  -0.333341  -0.257403  0  3.5012  0
N  N84  1  0.83399268  0.15560069  0.57373056  1  0  -0.079194  0  2.95474  0  0  -0.06265  0  3.252598  0  0  -0.062239  0  3.264006  0  0  -0.216683  -0.063299  0  3.244557  0
N  N85  1  0.16602356  0.84443161  0.42627707  1  0  -0.079357  0  2.954762  0  0  -0.062878  0  3.252713  0  0  -0.062467  0  3.264116  0  0  -0.216968  -0.063525  0  3.244668  0
O  O86  1  0.44593161  0.85235231  0.68981892  1  0  -0.431545  0  2.04909  0  0  -0.38276  0  2.274195  0  0  -0.404374  0  2.269111  0  0  -0.279172  -0.366952  0  2.276843  0
O  O87  1  0.55407281  0.14764641  0.31017326  1  0  -0.431385  0  2.049152  0  0  -0.382662  0  2.27415  0  0  -0.404276  0  2.269066  0  0  -0.279179  -0.366854  0  2.276799  0
O  O88  1  0.82036391  0.22912200  0.65991216  1  0  -0.424997  0  2.102001  0  0  -0.375201  0  2.344951  0  0  -0.398677  0  2.341968  0  0  -0.262753  -0.358056  0  2.346265  0
O  O89  1  0.17963402  0.77091019  0.34008419  1  0  -0.424782  0  2.102457  0  0  -0.375003  0  2.345315  0  0  -0.398462  0  2.342306  0  0  -0.262555  -0.357863  0  2.34663  0
O  O90  1  0.95020021  0.77392977  0.13348293  1  0  -0.622939  0  2.0001  0  0  -0.558378  0  2.244496  0  0  -0.58774  0  2.236093  0  0  -0.320536  -0.537756  0  2.249196  0
O  O91  1  0.04977460  0.22606027  0.86652171  1  0  -0.622947  0  2.000095  0  0  -0.558344  0  2.24445  0  0  -0.587724  0  2.236092  0  0  -0.320418  -0.537714  0  2.249132  0
O  O92  1  0.69072536  0.68481552  0.02212410  1  0  -0.662308  0  2.020523  0  0  -0.59549  0  2.252211  0  0  -0.625164  0  2.245224  0  0  -0.321491  -0.57464  0  2.256181  0
O  O93  1  0.30925747  0.31517594  0.97786900  1  0  -0.66237  0  2.020492  0  0  -0.595581  0  2.252253  0  0  -0.625252  0  2.24526  0  0  -0.32156  -0.574733  0  2.256229  0
O  O94  1  0.89841343  0.53992853  0.27288253  1  0  -0.643923  0  2.05025  0  0  -0.571796  0  2.294055  0  0  -0.601145  0  2.282447  0  0  -0.314399  -0.55119  0  2.301077  0
O  O95  1  0.10160772  0.46008022  0.72712323  1  0  -0.644036  0  2.049954  0  0  -0.571848  0  2.293872  0  0  -0.601195  0  2.282236  0  0  -0.314423  -0.551249  0  2.300916  0
O  O96  1  0.64606502  0.38004474  0.28196481  1  0  -0.630408  0  1.999122  0  0  -0.567721  0  2.217127  0  0  -0.593045  0  2.205381  0  0  -0.304854  -0.550125  0  2.224543  0
O  O97  1  0.35395608  0.61995925  0.71802767  1  0  -0.630548  0  1.999187  0  0  -0.567739  0  2.217244  0  0  -0.593073  0  2.205493  0  0  -0.304825  -0.550134  0  2.224659  0
O  O98  1  0.45633603  0.44749559  0.15911893  1  0  -0.843279  0  1.879195  0  0  -0.781527  0  2.073428  0  0  -0.80544  0  2.039532  0  0  -0.592297  -0.764587  0  2.096774  0
O  O99  1  0.54367017  0.55250578  0.84088368  1  0  -0.84336  0  1.8791  0  0  -0.78166  0  2.073307  0  0  -0.805576  0  2.039403  0  0  -0.59227  -0.764718  0  2.096652  0
