# generated using pymatgen
data_Tb2H18(C3O8)3
_symmetry_space_group_name_H-M   'P 1'
_cell_length_a   8.79261146
_cell_length_b   8.79261259
_cell_length_c   8.79259917
_cell_angle_alpha   66.24952966
_cell_angle_beta   66.24959104
_cell_angle_gamma   66.24957618
_symmetry_Int_Tables_number   1
_chemical_formula_structural   Tb2H18(C3O8)3
_chemical_formula_sum   'Tb2 H18 C9 O24'
_cell_volume   545.51441877
_cell_formula_units_Z   1
loop_
 _symmetry_equiv_pos_site_id
 _symmetry_equiv_pos_as_xyz
  1  'x, y, z'
loop_
 _atom_site_type_symbol
 _atom_site_label
 _atom_site_symmetry_multiplicity
 _atom_site_fract_x
 _atom_site_fract_y
 _atom_site_fract_z
 _atom_site_occupancy
 _atom_site_hle17_bader_spin_density
 _atom_site_hle17_ddec_charge
 _atom_site_hle17_ddec_spin_density
 _atom_site_hle17_ddec_sum_bond_order
 _atom_site_hle17_magmom
 _atom_site_hse06_10hf_bader_spin_density
 _atom_site_hse06_10hf_ddec_charge
 _atom_site_hse06_10hf_ddec_spin_density
 _atom_site_hse06_10hf_ddec_sum_bond_order
 _atom_site_hse06_10hf_magmom
 _atom_site_hse06_bader_spin_density
 _atom_site_hse06_ddec_charge
 _atom_site_hse06_ddec_spin_density
 _atom_site_hse06_ddec_sum_bond_order
 _atom_site_hse06_magmom
 _atom_site_pbe_bader_spin_density
 _atom_site_pbe_cm5_charge
 _atom_site_pbe_ddec_charge
 _atom_site_pbe_ddec_spin_density
 _atom_site_pbe_ddec_sum_bond_order
 _atom_site_pbe_magmom
Tb  Tb0  1  0.26785288  0.26785255  0.26785309  1  0  2.220751  0  1.759773  0  0  2.218244  0  1.930213  0  0  2.183076  0  2.045302  0  0  1.502921  2.107041  0  2.111219  0
Tb  Tb1  1  0.73214650  0.73214732  0.73214570  1  0  2.220675  0  1.759843  0  0  2.21819  0  1.93026  0  0  2.183057  0  2.045287  0  0  1.502917  2.107024  0  2.111202  0
H  H2  1  0.30958467  0.17508464  0.94984147  1  0  0.418868  0  0.876155  0  0  0.385096  0  0.953756  0  0  0.397855  0  0.935259  0  0  0.308897  0.376196  0  0.966395  0
H  H3  1  0.94984183  0.30958634  0.17508425  1  0  0.418838  0  0.876164  0  0  0.38506  0  0.953798  0  0  0.397818  0  0.935303  0  0  0.308891  0.37616  0  0.966437  0
H  H4  1  0.17508497  0.94984054  0.30958553  1  0  0.418879  0  0.87614  0  0  0.385102  0  0.953748  0  0  0.397861  0  0.93525  0  0  0.308902  0.376202  0  0.966387  0
H  H5  1  0.05015692  0.82491483  0.69041593  1  0  0.418865  0  0.876116  0  0  0.385087  0  0.953755  0  0  0.397844  0  0.93526  0  0  0.308895  0.376186  0  0.966394  0
H  H6  1  0.82491536  0.69041661  0.05015543  1  0  0.418889  0  0.876104  0  0  0.385123  0  0.953708  0  0  0.39788  0  0.935214  0  0  0.308914  0.376223  0  0.966347  0
H  H7  1  0.69041562  0.05015666  0.82491439  1  0  0.418864  0  0.876109  0  0  0.38509  0  0.953747  0  0  0.397846  0  0.935255  0  0  0.308898  0.37619  0  0.966386  0
H  H8  1  0.27350516  0.21603143  0.63811767  1  0  0.448317  0  0.845703  0  0  0.415726  0  0.909247  0  0  0.427679  0  0.891788  0  0  0.300985  0.406836  0  0.922166  0
H  H9  1  0.63811844  0.27350491  0.21602951  1  0  0.448331  0  0.845685  0  0  0.415738  0  0.90923  0  0  0.42769  0  0.891773  0  0  0.30098  0.406848  0  0.922151  0
H  H10  1  0.21603158  0.63811691  0.27350383  1  0  0.448339  0  0.84567  0  0  0.415744  0  0.909218  0  0  0.427696  0  0.891761  0  0  0.300986  0.406854  0  0.922138  0
H  H11  1  0.36187978  0.78397210  0.72649542  1  0  0.448385  0  0.845592  0  0  0.415722  0  0.909249  0  0  0.427675  0  0.891791  0  0  0.300966  0.406832  0  0.922169  0
H  H12  1  0.78397174  0.72649523  0.36187942  1  0  0.448358  0  0.845631  0  0  0.415698  0  0.909282  0  0  0.427652  0  0.891823  0  0  0.300975  0.406809  0  0.922202  0
H  H13  1  0.72649479  0.36188033  0.78397091  1  0  0.448321  0  0.845693  0  0  0.415725  0  0.909244  0  0  0.427678  0  0.891785  0  0  0.300984  0.406835  0  0.922164  0
H  H14  1  0.45731449  0.12579887  0.52484394  1  0  0.443631  0  0.84358  0  0  0.415106  0  0.904792  0  0  0.42591  0  0.888529  0  0  0.311747  0.40744  0  0.915994  0
H  H15  1  0.52484467  0.45731463  0.12579819  1  0  0.443642  0  0.843559  0  0  0.415118  0  0.904771  0  0  0.425922  0  0.888508  0  0  0.31174  0.407453  0  0.915972  0
H  H16  1  0.12579809  0.52484272  0.45731363  1  0  0.443667  0  0.843532  0  0  0.415144  0  0.904736  0  0  0.425947  0  0.888475  0  0  0.311761  0.407477  0  0.915939  0
H  H17  1  0.47515625  0.87420225  0.54268606  1  0  0.443624  0  0.843597  0  0  0.415096  0  0.904804  0  0  0.4259  0  0.888543  0  0  0.311735  0.40743  0  0.916007  0
H  H18  1  0.87420192  0.54268679  0.47515502  1  0  0.443645  0  0.843567  0  0  0.415122  0  0.904768  0  0  0.425926  0  0.888506  0  0  0.311762  0.407456  0  0.91597  0
H  H19  1  0.54268606  0.47515565  0.87420106  1  0  0.443642  0  0.843568  0  0  0.415113  0  0.904783  0  0  0.425918  0  0.88852  0  0  0.311746  0.407447  0  0.915986  0
C  C20  1  0.50000014  0.96408288  0.03591698  1  0  0.326249  0  3.68429  0  0  0.304328  0  3.954349  0  0  0.312524  0  3.951999  0  0  0.157661  0.298238  0  3.950066  0
C  C21  1  0.03591732  0.50000159  0.96408277  1  0  0.326162  0  3.684412  0  0  0.304299  0  3.95439  0  0  0.312495  0  3.952038  0  0  0.157654  0.298208  0  3.950107  0
C  C22  1  0.96408229  0.03591728  0.50000022  1  0  0.326248  0  3.684292  0  0  0.304334  0  3.954337  0  0  0.312526  0  3.95199  0  0  0.157657  0.298243  0  3.950054  0
C  C23  1  0.58210393  0.91520188  0.18362021  1  0  0.622014  0  3.808583  0  0  0.564461  0  4.115505  0  0  0.597558  0  4.105499  0  0  0.233572  0.542079  0  4.118291  0
C  C24  1  0.18361912  0.58210414  0.91520137  1  0  0.622053  0  3.80845  0  0  0.564488  0  4.115381  0  0  0.597587  0  4.105371  0  0  0.233593  0.542106  0  4.118168  0
C  C25  1  0.91520289  0.18361981  0.58210330  1  0  0.622031  0  3.808491  0  0  0.564503  0  4.115394  0  0  0.597603  0  4.105386  0  0  0.233612  0.542122  0  4.11818  0
C  C26  1  0.81637758  0.08479306  0.41790165  1  0  0.621953  0  3.808797  0  0  0.56446  0  4.115642  0  0  0.597559  0  4.105638  0  0  0.233541  0.542079  0  4.118429  0
C  C27  1  0.08479037  0.41790306  0.81637728  1  0  0.621904  0  3.80887  0  0  0.564412  0  4.115694  0  0  0.59751  0  4.105685  0  0  0.233519  0.542032  0  4.118478  0
C  C28  1  0.41790052  0.81637768  0.08479292  1  0  0.621988  0  3.808806  0  0  0.564507  0  4.115629  0  0  0.597605  0  4.10562  0  0  0.233568  0.542128  0  4.118413  0
O  O29  1  0.37817484  0.12694281  0.03763484  1  0  -0.692406  0  2.246583  0  0  -0.660921  0  2.481738  0  0  -0.669903  0  2.46763  0  0  -0.435332  -0.639291  0  2.49541  0
O  O30  1  0.03763457  0.37817587  0.12694307  1  0  -0.692345  0  2.246615  0  0  -0.660863  0  2.481758  0  0  -0.669846  0  2.467652  0  0  -0.435331  -0.639232  0  2.495429  0
O  O31  1  0.12694333  0.03763542  0.37817468  1  0  -0.692414  0  2.246574  0  0  -0.660928  0  2.481731  0  0  -0.669911  0  2.467623  0  0  -0.435337  -0.639298  0  2.495403  0
O  O32  1  0.96236558  0.87305598  0.62182373  1  0  -0.69239  0  2.246544  0  0  -0.660897  0  2.481706  0  0  -0.669882  0  2.467598  0  0  -0.435311  -0.639271  0  2.495378  0
O  O33  1  0.87305739  0.62182524  0.96236480  1  0  -0.692391  0  2.246579  0  0  -0.660925  0  2.481717  0  0  -0.669909  0  2.467609  0  0  -0.435335  -0.6393  0  2.49539  0
O  O34  1  0.62182329  0.96236559  0.87305665  1  0  -0.692388  0  2.246557  0  0  -0.660902  0  2.481726  0  0  -0.669887  0  2.46762  0  0  -0.435329  -0.639277  0  2.495398  0
O  O35  1  0.33414129  0.18067742  0.52896624  1  0  -0.929265  0  1.914822  0  0  -0.899279  0  2.104301  0  0  -0.909036  0  2.076306  0  0  -0.667229  -0.875549  0  2.135537  0
O  O36  1  0.52896618  0.33414065  0.18067611  1  0  -0.929274  0  1.914782  0  0  -0.89929  0  2.104266  0  0  -0.909046  0  2.076278  0  0  -0.667203  -0.875559  0  2.135503  0
O  O37  1  0.18067615  0.52896580  0.33413908  1  0  -0.929302  0  1.914746  0  0  -0.899326  0  2.104238  0  0  -0.909078  0  2.076244  0  0  -0.66723  -0.875606  0  2.1355  0
O  O38  1  0.47103357  0.81932363  0.66585729  1  0  -0.92929  0  1.914787  0  0  -0.899257  0  2.104328  0  0  -0.909016  0  2.076331  0  0  -0.667185  -0.875532  0  2.135562  0
O  O39  1  0.81932207  0.66585944  0.47103337  1  0  -0.929291  0  1.91479  0  0  -0.89926  0  2.104324  0  0  -0.90902  0  2.076326  0  0  -0.667221  -0.875537  0  2.135565  0
O  O40  1  0.66585887  0.47103268  0.81932313  1  0  -0.929276  0  1.914833  0  0  -0.899285  0  2.104296  0  0  -0.909042  0  2.076298  0  0  -0.667223  -0.875565  0  2.135544  0
O  O41  1  0.49272794  0.99021869  0.30134355  1  0  -0.655885  0  2.079612  0  0  -0.615553  0  2.319804  0  0  -0.632947  0  2.313103  0  0  -0.353336  -0.5893  0  2.327698  0
O  O42  1  0.30134668  0.49272570  0.99021878  1  0  -0.655861  0  2.079493  0  0  -0.615549  0  2.319702  0  0  -0.632948  0  2.313012  0  0  -0.35332  -0.589293  0  2.327596  0
O  O43  1  0.99021887  0.30134330  0.49272795  1  0  -0.655858  0  2.0796  0  0  -0.615576  0  2.319831  0  0  -0.632966  0  2.313119  0  0  -0.353345  -0.589321  0  2.327725  0
O  O44  1  0.69865589  0.00978389  0.50727352  1  0  -0.655772  0  2.079896  0  0  -0.615508  0  2.320114  0  0  -0.632897  0  2.313392  0  0  -0.353286  -0.589261  0  2.328007  0
O  O45  1  0.00978286  0.50727113  0.69865898  1  0  -0.655672  0  2.080008  0  0  -0.615404  0  2.320201  0  0  -0.632802  0  2.313504  0  0  -0.353232  -0.589155  0  2.328091  0
O  O46  1  0.50727048  0.69865818  0.00978373  1  0  -0.655781  0  2.079929  0  0  -0.61551  0  2.320108  0  0  -0.632912  0  2.313419  0  0  -0.353267  -0.589263  0  2.328  0
O  O47  1  0.72656766  0.79978482  0.18080223  1  0  -0.558704  0  2.008875  0  0  -0.496238  0  2.212109  0  0  -0.521095  0  2.200544  0  0  -0.279139  -0.479898  0  2.221461  0
O  O48  1  0.18080069  0.72657006  0.79978290  1  0  -0.558731  0  2.008809  0  0  -0.496252  0  2.212052  0  0  -0.521108  0  2.200485  0  0  -0.279159  -0.479911  0  2.221403  0
O  O49  1  0.79978303  0.18080043  0.72656976  1  0  -0.558709  0  2.008772  0  0  -0.496259  0  2.211986  0  0  -0.521117  0  2.200419  0  0  -0.279167  -0.479918  0  2.221336  0
O  O50  1  0.81919644  0.20022058  0.27343113  1  0  -0.558688  0  2.008689  0  0  -0.496261  0  2.211899  0  0  -0.521121  0  2.200334  0  0  -0.279136  -0.479923  0  2.221253  0
O  O51  1  0.20022373  0.27343330  0.81919467  1  0  -0.558709  0  2.008649  0  0  -0.496298  0  2.211865  0  0  -0.521158  0  2.200296  0  0  -0.279159  -0.47996  0  2.221218  0
O  O52  1  0.27343416  0.81919429  0.20022359  1  0  -0.558732  0  2.008712  0  0  -0.496296  0  2.2119  0  0  -0.521155  0  2.200334  0  0  -0.279171  -0.479957  0  2.221252  0
