# generated using pymatgen
data_H16PbC14N2O7
_symmetry_space_group_name_H-M   'P 1'
_cell_length_a   7.55251043
_cell_length_b   7.70091060
_cell_length_c   15.17506353
_cell_angle_alpha   87.49150420
_cell_angle_beta   92.86529791
_cell_angle_gamma   115.62701737
_symmetry_Int_Tables_number   1
_chemical_formula_structural   H16PbC14N2O7
_chemical_formula_sum   'H32 Pb2 C28 N4 O14'
_cell_volume   794.54221389
_cell_formula_units_Z   2
loop_
 _symmetry_equiv_pos_site_id
 _symmetry_equiv_pos_as_xyz
  1  'x, y, z'
loop_
 _atom_site_type_symbol
 _atom_site_label
 _atom_site_symmetry_multiplicity
 _atom_site_fract_x
 _atom_site_fract_y
 _atom_site_fract_z
 _atom_site_occupancy
 _atom_site_hle17_bader_spin_density
 _atom_site_hle17_ddec_charge
 _atom_site_hle17_ddec_spin_density
 _atom_site_hle17_ddec_sum_bond_order
 _atom_site_hle17_magmom
 _atom_site_hse06_10hf_bader_spin_density
 _atom_site_hse06_10hf_ddec_charge
 _atom_site_hse06_10hf_ddec_spin_density
 _atom_site_hse06_10hf_ddec_sum_bond_order
 _atom_site_hse06_10hf_magmom
 _atom_site_hse06_bader_spin_density
 _atom_site_hse06_ddec_charge
 _atom_site_hse06_ddec_spin_density
 _atom_site_hse06_ddec_sum_bond_order
 _atom_site_hse06_magmom
 _atom_site_pbe_bader_spin_density
 _atom_site_pbe_cm5_charge
 _atom_site_pbe_ddec_charge
 _atom_site_pbe_ddec_spin_density
 _atom_site_pbe_ddec_sum_bond_order
 _atom_site_pbe_magmom
H  H0  1  0.24736107  0.87754944  0.48640963  1  0  0.283029  0  0.930466  0  0  0.260012  0  0.996743  0  0  0.269888  0  0.988948  0  0  0.32086  0.253088  0  1.002243  0
H  H1  1  0.75267407  0.12242049  0.51359288  1  0  0.283042  0  0.930393  0  0  0.259803  0  0.996898  0  0  0.269685  0  0.989097  0  0  0.320727  0.252884  0  1.002386  0
H  H2  1  0.29025269  0.66926515  0.20297657  1  0  0.099866  0  0.965423  0  0  0.108505  0  1.030278  0  0  0.111213  0  1.028654  0  0  0.110534  0.106519  0  1.031488  0
H  H3  1  0.70974650  0.33065851  0.79702706  1  0  0.099935  0  0.965266  0  0  0.10859  0  1.030087  0  0  0.111317  0  1.028419  0  0  0.110628  0.106589  0  1.031332  0
H  H4  1  0.35740253  0.84237103  0.34459422  1  0  0.112807  0  0.974159  0  0  0.119538  0  1.039294  0  0  0.123801  0  1.036324  0  0  0.105834  0.116432  0  1.04158  0
H  H5  1  0.64258834  0.15763517  0.65539055  1  0  0.112714  0  0.974126  0  0  0.119427  0  1.039298  0  0  0.123698  0  1.036324  0  0  0.105814  0.116319  0  1.041594  0
H  H6  1  0.69510942  0.32082253  0.27582673  1  0  0.09393  0  0.964001  0  0  0.10407  0  1.026526  0  0  0.107291  0  1.02419  0  0  0.10578  0.101672  0  1.028357  0
H  H7  1  0.30485654  0.67919566  0.72417522  1  0  0.093947  0  0.963969  0  0  0.10404  0  1.026566  0  0  0.107258  0  1.024233  0  0  0.105707  0.101653  0  1.028379  0
H  H8  1  0.76077557  0.49564141  0.41801897  1  0  0.105749  0  0.967821  0  0  0.113394  0  1.034742  0  0  0.116451  0  1.033316  0  0  0.106036  0.111199  0  1.035836  0
H  H9  1  0.23924580  0.50436972  0.58199072  1  0  0.105859  0  0.967726  0  0  0.113471  0  1.034662  0  0  0.116532  0  1.033234  0  0  0.106094  0.111274  0  1.035769  0
H  H10  1  0.63962727  0.52950678  0.58529175  1  0  0.133253  0  0.955043  0  0  0.149563  0  1.020783  0  0  0.151689  0  1.020079  0  0  0.097179  0.147982  0  1.021396  0
H  H11  1  0.36034019  0.47055212  0.41469792  1  0  0.133119  0  0.954901  0  0  0.149425  0  1.020704  0  0  0.151567  0  1.019986  0  0  0.097042  0.147838  0  1.021319  0
H  H12  1  0.59457507  0.73061998  0.55397582  1  0  0.140491  0  0.94061  0  0  0.157343  0  1.004629  0  0  0.159934  0  1.002937  0  0  0.09878  0.155511  0  1.005825  0
H  H13  1  0.40551994  0.26951205  0.44597203  1  0  0.140056  0  0.9407  0  0  0.157106  0  1.004552  0  0  0.159702  0  1.002862  0  0  0.098704  0.155263  0  1.00576  0
H  H14  1  0.52665321  0.61895195  0.66133506  1  0  0.127391  0  0.967035  0  0  0.148254  0  1.025004  0  0  0.150746  0  1.023803  0  0  0.095997  0.146457  0  1.025868  0
H  H15  1  0.47333925  0.38123341  0.33862141  1  0  0.127323  0  0.967387  0  0  0.148226  0  1.0253  0  0  0.150717  0  1.024112  0  0  0.09585  0.146422  0  1.026156  0
H  H16  1  0.23490602  0.98756632  0.76560903  1  0  0.166777  0  0.940835  0  0  0.18276  0  1.003595  0  0  0.186426  0  1.00158  0  0  0.109767  0.180056  0  1.005139  0
H  H17  1  0.76508623  0.01243908  0.23439488  1  0  0.166757  0  0.940817  0  0  0.182721  0  1.003578  0  0  0.186384  0  1.001569  0  0  0.109815  0.180019  0  1.005118  0
H  H18  1  0.13486968  0.14078625  0.72188871  1  0  0.143051  0  0.962221  0  0  0.159301  0  1.024741  0  0  0.161804  0  1.024578  0  0  0.099942  0.157545  0  1.024857  0
H  H19  1  0.86517265  0.85923471  0.27809624  1  0  0.142957  0  0.962294  0  0  0.159282  0  1.024712  0  0  0.161782  0  1.024555  0  0  0.099998  0.157524  0  1.024827  0
H  H20  1  0.39351058  0.20688118  0.71038369  1  0  0.1284  0  0.952379  0  0  0.151033  0  1.008059  0  0  0.152695  0  1.008323  0  0  0.096703  0.149801  0  1.007934  0
H  H21  1  0.60652910  0.79311722  0.28962519  1  0  0.12835  0  0.952481  0  0  0.150942  0  1.008222  0  0  0.152606  0  1.008487  0  0  0.096646  0.149711  0  1.008094  0
H  H22  1  0.41860715  0.50498292  0.10711044  1  0  0.150952  0  0.958053  0  0  0.166417  0  1.020491  0  0  0.170021  0  1.017976  0  0  0.09606  0.163841  0  1.022304  0
H  H23  1  0.58135139  0.49499276  0.89291094  1  0  0.15072  0  0.958249  0  0  0.166279  0  1.020621  0  0  0.169878  0  1.018109  0  0  0.09599  0.163703  0  1.022431  0
H  H24  1  0.64126793  0.58055047  0.17443578  1  0  0.127119  0  0.963629  0  0  0.14666  0  1.027639  0  0  0.148085  0  1.028388  0  0  0.092817  0.145663  0  1.027099  0
H  H25  1  0.35870773  0.41938282  0.82557322  1  0  0.126993  0  0.963753  0  0  0.146582  0  1.027757  0  0  0.148  0  1.028524  0  0  0.092827  0.145584  0  1.027214  0
H  H26  1  0.63028720  0.48378869  0.07019236  1  0  0.149399  0  0.946036  0  0  0.167687  0  1.006087  0  0  0.170275  0  1.005586  0  0  0.103913  0.165819  0  1.00652  0
H  H27  1  0.36963821  0.51615735  0.92981091  1  0  0.149329  0  0.945839  0  0  0.167648  0  1.005902  0  0  0.170243  0  1.005389  0  0  0.103943  0.165778  0  1.006336  0
H  H28  1  0.47684134  0.85733356  0.84390298  1  0  0.429479  0  0.870348  0  0  0.396048  0  0.938588  0  0  0.407093  0  0.922428  0  0  0.289261  0.388174  0  0.950086  0
H  H29  1  0.52314009  0.14263122  0.15610908  1  0  0.429336  0  0.870512  0  0  0.395897  0  0.938772  0  0  0.406937  0  0.92262  0  0  0.289237  0.388027  0  0.950265  0
H  H30  1  0.67528548  0.88404016  0.79736608  1  0  0.417895  0  0.881786  0  0  0.38503  0  0.948084  0  0  0.396323  0  0.931451  0  0  0.286317  0.377037  0  0.959832  0
H  H31  1  0.32469623  0.11593791  0.20263727  1  0  0.41791  0  0.881753  0  0  0.385145  0  0.947884  0  0  0.396429  0  0.93127  0  0  0.286362  0.377148  0  0.959636  0
Pb  Pb32  1  0.81250081  0.15632942  0.97265678  1  0  1.404641  0  1.329691  0  0  1.224805  0  1.715341  0  0  1.287652  0  1.668946  0  0  0.661782  1.179074  0  1.748043  0
Pb  Pb33  1  0.18746761  0.84362422  0.02734460  1  0  1.404634  0  1.32971  0  0  1.224804  0  1.715372  0  0  1.287655  0  1.668967  0  0  0.661801  1.17907  0  1.748071  0
C  C34  1  0.94812646  0.38416778  0.14380728  1  0  0.636316  0  3.943341  0  0  0.583817  0  4.238637  0  0  0.618456  0  4.233833  0  0  0.209835  0.560438  0  4.24076  0
C  C35  1  0.05186034  0.61579473  0.85619173  1  0  0.63611  0  3.943599  0  0  0.583536  0  4.238997  0  0  0.61818  0  4.23419  0  0  0.209764  0.560152  0  4.241128  0
C  C36  1  0.98774051  0.48535468  0.22987834  1  0  -0.072823  0  3.753623  0  0  -0.053916  0  3.990616  0  0  -0.064467  0  4.016924  0  0  -0.017159  -0.04724  0  3.972953  0
C  C37  1  0.01225343  0.51461464  0.77013062  1  0  -0.072919  0  3.753809  0  0  -0.053936  0  3.990767  0  0  -0.064486  0  4.017067  0  0  -0.017239  -0.047259  0  3.973116  0
C  C38  1  0.17441238  0.63117391  0.25007130  1  0  -0.051554  0  3.738012  0  0  -0.070919  0  3.98083  0  0  -0.06967  0  4.002903  0  0  -0.07436  -0.071362  0  3.965767  0
C  C39  1  0.82556145  0.36879916  0.74991284  1  0  -0.051757  0  3.738192  0  0  -0.071188  0  3.981107  0  0  -0.069938  0  4.003185  0  0  -0.074528  -0.071628  0  3.966045  0
C  C40  1  0.21254817  0.72802639  0.32898508  1  0  -0.141746  0  3.709503  0  0  -0.162374  0  3.964322  0  0  -0.168886  0  3.98471  0  0  -0.085912  -0.158063  0  3.950448  0
C  C41  1  0.78745557  0.27197214  0.67101387  1  0  -0.141287  0  3.709599  0  0  -0.161899  0  3.96444  0  0  -0.168418  0  3.984835  0  0  -0.085722  -0.157588  0  3.95057  0
C  C42  1  0.83916219  0.43665612  0.29116271  1  0  -0.068013  0  3.771079  0  0  -0.09036  0  4.023494  0  0  -0.089773  0  4.045747  0  0  -0.084101  -0.090344  0  4.00828  0
C  C43  1  0.16081352  0.56334730  0.70885080  1  0  -0.06784  0  3.770624  0  0  -0.09017  0  4.022979  0  0  -0.089597  0  4.045263  0  0  -0.083954  -0.090158  0  4.007785  0
C  C44  1  0.87444497  0.53202875  0.37010974  1  0  -0.159131  0  3.751387  0  0  -0.18368  0  4.014012  0  0  -0.190693  0  4.03719  0  0  -0.09714  -0.179145  0  3.998346  0
C  C45  1  0.12555156  0.46798988  0.62988753  1  0  -0.159375  0  3.751263  0  0  -0.183884  0  4.013858  0  0  -0.190903  0  4.037033  0  0  -0.097233  -0.179353  0  3.9982  0
C  C46  1  0.06213639  0.67823221  0.38881283  1  0  0.202642  0  3.800392  0  0  0.190275  0  4.058561  0  0  0.197776  0  4.08163  0  0  0.096806  0.185573  0  4.042728  0
C  C47  1  0.93788291  0.32178090  0.61118362  1  0  0.202529  0  3.800444  0  0  0.190094  0  4.05854  0  0  0.197602  0  4.081604  0  0  0.096645  0.185396  0  4.042711  0
C  C48  1  0.00768553  0.84726955  0.59718950  1  0  -0.137181  0  3.68586  0  0  -0.13629  0  3.955782  0  0  -0.150056  0  3.97487  0  0  0.076476  -0.12741  0  3.942868  0
C  C49  1  0.99234668  0.15275779  0.40281232  1  0  -0.137044  0  3.686012  0  0  -0.136209  0  3.955938  0  0  -0.149985  0  3.97504  0  0  0.076587  -0.127317  0  3.943051  0
C  C50  1  0.83204812  0.79352707  0.65021594  1  0  0.480179  0  3.702776  0  0  0.460625  0  3.976642  0  0  0.482757  0  3.982598  0  0  0.158385  0.4457  0  3.972309  0
C  C51  1  0.16797404  0.20652632  0.34977881  1  0  0.479868  0  3.702987  0  0  0.460337  0  3.976937  0  0  0.482464  0  3.982903  0  0  0.158125  0.445356  0  3.972676  0
C  C52  1  0.63556622  0.65900779  0.61033359  1  0  -0.42904  0  3.691009  0  0  -0.512373  0  3.930206  0  0  -0.517401  0  3.9335  0  0  -0.250724  -0.508694  0  3.927859  0
C  C53  1  0.36446417  0.34110581  0.38963033  1  0  -0.428437  0  3.690878  0  0  -0.511932  0  3.929901  0  0  -0.51699  0  3.933224  0  0  -0.250308  -0.50821  0  3.927563  0
C  C54  1  0.20666908  0.98680056  0.62503627  1  0  0.492902  0  3.655997  0  0  0.472636  0  3.934984  0  0  0.497705  0  3.935722  0  0  0.156903  0.455795  0  3.933983  0
C  C55  1  0.79337012  0.01319091  0.37496673  1  0  0.493121  0  3.655565  0  0  0.472875  0  3.934417  0  0  0.497947  0  3.935151  0  0  0.15705  0.456035  0  3.933419  0
C  C56  1  0.24541571  0.08886613  0.71023955  1  0  -0.431426  0  3.663051  0  0  -0.512042  0  3.897837  0  0  -0.518527  0  3.899976  0  0  -0.24973  -0.507308  0  3.896257  0
C  C57  1  0.75461119  0.91113684  0.28976045  1  0  -0.431209  0  3.663119  0  0  -0.511847  0  3.89784  0  0  -0.518335  0  3.899995  0  0  -0.249747  -0.507119  0  3.896257  0
C  C58  1  0.65867328  0.77217691  0.06574841  1  0  0.766934  0  3.818066  0  0  0.724928  0  4.104569  0  0  0.760583  0  4.097669  0  0  0.220674  0.700558  0  4.108256  0
C  C59  1  0.34130792  0.22779643  0.93426487  1  0  0.767316  0  3.817344  0  0  0.724985  0  4.104375  0  0  0.760647  0  4.097467  0  0  0.220731  0.700611  0  4.108068  0
C  C60  1  0.57951863  0.57258535  0.10686794  1  0  -0.467757  0  3.628394  0  0  -0.54174  0  3.857566  0  0  -0.549228  0  3.859016  0  0  -0.249866  -0.536446  0  3.856467  0
C  C61  1  0.42044568  0.42737348  0.89314584  1  0  -0.467468  0  3.628455  0  0  -0.541508  0  3.8577  0  0  -0.549001  0  3.859156  0  0  -0.249827  -0.536204  0  3.856598  0
N  N62  1  0.10531597  0.77954688  0.46743238  1  0  -0.178028  0  3.46417  0  0  -0.120437  0  3.709858  0  0  -0.139918  0  3.727119  0  0  -0.240436  -0.107893  0  3.69819  0
N  N63  1  0.89472346  0.22048259  0.53255440  1  0  -0.178129  0  3.464303  0  0  -0.120217  0  3.709829  0  0  -0.139696  0  3.72708  0  0  -0.240235  -0.107681  0  3.698171  0
N  N64  1  0.96734428  0.75443246  0.52115037  1  0  -0.073845  0  3.130533  0  0  -0.067425  0  3.412928  0  0  -0.057617  0  3.428002  0  0  -0.160798  -0.073103  0  3.402361  0
N  N65  1  0.03267678  0.24561236  0.47884313  1  0  -0.073828  0  3.131248  0  0  -0.067468  0  3.413574  0  0  -0.057666  0  3.428663  0  0  -0.160797  -0.073143  0  3.403008  0
O  O66  1  0.77778762  0.24377396  0.13032407  1  0  -0.66431  0  2.020804  0  0  -0.590992  0  2.251756  0  0  -0.62172  0  2.243781  0  0  -0.2968  -0.569343  0  2.256468  0
O  O67  1  0.22217742  0.75620554  0.86967631  1  0  -0.664025  0  2.021247  0  0  -0.590751  0  2.252311  0  0  -0.62148  0  2.244342  0  0  -0.296593  -0.569102  0  2.257024  0
O  O68  1  0.08156931  0.44122820  0.08768552  1  0  -0.672482  0  1.980737  0  0  -0.610545  0  2.210159  0  0  -0.640653  0  2.205139  0  0  -0.299171  -0.589359  0  2.212937  0
O  O69  1  0.91840455  0.55872214  0.91232721  1  0  -0.672562  0  1.98012  0  0  -0.610591  0  2.20956  0  0  -0.640705  0  2.204533  0  0  -0.299307  -0.589396  0  2.212342  0
O  O70  1  0.34692063  0.01942839  0.57526326  1  0  -0.505385  0  1.918848  0  0  -0.458084  0  2.126232  0  0  -0.477301  0  2.120207  0  0  -0.273009  -0.444947  0  2.130153  0
O  O71  1  0.65314302  0.98049907  0.42476466  1  0  -0.505728  0  1.918723  0  0  -0.458274  0  2.126004  0  0  -0.477489  0  2.119965  0  0  -0.27322  -0.445144  0  2.129935  0
O  O72  1  0.84360285  0.85639138  0.72527968  1  0  -0.477225  0  1.966547  0  0  -0.417964  0  2.165629  0  0  -0.437805  0  2.162423  0  0  -0.248219  -0.404588  0  2.167819  0
O  O73  1  0.15642553  0.14363016  0.27472279  1  0  -0.476889  0  1.966381  0  0  -0.417853  0  2.165636  0  0  -0.437665  0  2.162404  0  0  -0.248095  -0.404456  0  2.16786  0
O  O74  1  0.84431640  0.87028277  0.05992129  1  0  -0.705504  0  1.940975  0  0  -0.628827  0  2.170901  0  0  -0.662773  0  2.163414  0  0  -0.299233  -0.604824  0  2.17532  0
O  O75  1  0.15565179  0.12968117  0.94010833  1  0  -0.705637  0  1.94056  0  0  -0.628852  0  2.170645  0  0  -0.662803  0  2.163157  0  0  -0.299249  -0.604844  0  2.175066  0
O  O76  1  0.54096038  0.84255723  0.03655179  1  0  -0.689664  0  1.981136  0  0  -0.606799  0  2.214914  0  0  -0.640996  0  2.207662  0  0  -0.289927  -0.582666  0  2.219128  0
O  O77  1  0.45901846  0.15740489  0.96345498  1  0  -0.689848  0  1.980976  0  0  -0.60681  0  2.2148  0  0  -0.641016  0  2.207553  0  0  -0.289924  -0.582672  0  2.219012  0
O  O78  1  0.61475979  0.94699770  0.83280565  1  0  -0.868036  0  1.815466  0  0  -0.807882  0  1.99481  0  0  -0.831123  0  1.964037  0  0  -0.580056  -0.791147  0  2.016319  0
O  O79  1  0.38524033  0.05296451  0.16720285  1  0  -0.867998  0  1.815505  0  0  -0.807876  0  1.994744  0  0  -0.831114  0  1.963985  0  0  -0.580112  -0.791138  0  2.016244  0
