# generated using pymatgen
data_CuH4C7N3
_symmetry_space_group_name_H-M   'P 1'
_cell_length_a   21.73869044
_cell_length_b   27.16444132
_cell_length_c   29.12765587
_cell_angle_alpha   89.51010533
_cell_angle_beta   92.45848590
_cell_angle_gamma   89.98284047
_symmetry_Int_Tables_number   1
_chemical_formula_structural   CuH4C7N3
_chemical_formula_sum   'Cu12 H48 C84 N36'
_cell_volume   17183.98142957
_cell_formula_units_Z   12
loop_
 _symmetry_equiv_pos_site_id
 _symmetry_equiv_pos_as_xyz
  1  'x, y, z'
loop_
 _atom_site_type_symbol
 _atom_site_label
 _atom_site_symmetry_multiplicity
 _atom_site_fract_x
 _atom_site_fract_y
 _atom_site_fract_z
 _atom_site_occupancy
 _atom_site_pbe_bader_charge
 _atom_site_pbe_bader_spin_density
 _atom_site_pbe_cm5_charge
 _atom_site_pbe_ddec_charge
 _atom_site_pbe_ddec_spin_density
 _atom_site_pbe_ddec_sum_bond_order
 _atom_site_pbe_magmom
Cu  Cu0  1  0.41949709  0.43321470  0.35500327  1  0.538112  0  0.488884  0.206693  0  2.143291  0
Cu  Cu1  1  0.35867727  0.39863816  0.44338763  1  0.542426  0  0.485055  0.209012  0  2.104656  0
Cu  Cu2  1  0.41291091  0.31953279  0.37370701  1  0.54786  0  0.484931  0.210389  0  2.095033  0
Cu  Cu3  1  0.63333950  0.11193680  0.83435078  1  0.54281  0  0.491229  0.210848  0  2.131411  0
Cu  Cu4  1  0.63287076  0.10505086  0.94290292  1  0.548499  0  0.485869  0.210764  0  2.098232  0
Cu  Cu5  1  0.55172807  0.18441539  0.88665501  1  0.541374  0  0.485012  0.206249  0  2.115165  0
Cu  Cu6  1  0.91026298  0.57132123  0.14781040  1  0.540322  0  0.489205  0.205669  0  2.14768  0
Cu  Cu7  1  0.85393675  0.59713613  0.05092660  1  0.545923  0  0.485413  0.210712  0  2.09785  0
Cu  Cu8  1  0.91453049  0.68097362  0.11750798  1  0.546853  0  0.483462  0.209448  0  2.091159  0
Cu  Cu9  1  0.11678281  0.90369789  0.66821820  1  0.539226  0  0.48972  0.205108  0  2.148813  0
Cu  Cu10  1  0.12577442  0.89157386  0.56316855  1  0.544474  0  0.487139  0.211217  0  2.107332  0
Cu  Cu11  1  0.06450660  0.80680917  0.62475563  1  0.544109  0  0.483433  0.209489  0  2.091114  0
H  H12  1  0.35129972  0.53480141  0.33526030  1  0.130853  0  0.124862  0.124165  0  0.985228  0
H  H13  1  0.27109600  0.49114239  0.46328294  1  0.136399  0  0.124694  0.124502  0  0.986329  0
H  H14  1  0.48608447  0.27973346  0.28692014  1  0.075421  0  0.122639  0.12211  0  0.990957  0
H  H15  1  0.51825420  0.43718842  0.27849214  1  0.114012  0  0.12281  0.121016  0  0.993676  0
H  H16  1  0.35059646  0.33011589  0.53178665  1  0.112239  0  0.125147  0.124726  0  0.984356  0
H  H17  1  0.39004358  0.22074849  0.42950202  1  0.109728  0  0.124601  0.124874  0  0.98508  0
H  H18  1  0.73344166  0.03214518  0.81395529  1  0.130252  0  0.12135  0.119587  0  0.996928  0
H  H19  1  0.70845013  0.00413595  0.95890772  1  0.11283  0  0.121669  0.120009  0  0.995524  0
H  H20  1  0.44674876  0.20799904  0.80738332  1  0.129823  0  0.127459  0.128799  0  0.978645  0
H  H21  1  0.57523075  0.11994614  0.73308348  1  0.11562  0  0.128321  0.128787  0  0.976212  0
H  H22  1  0.63766789  0.15215258  0.04226258  1  0.094806  0  0.126608  0.127671  0  0.980627  0
H  H23  1  0.54629110  0.26796417  0.96184372  1  0.106257  0  0.126909  0.127114  0  0.979618  0
H  H24  1  0.83423796  0.47624665  0.17220354  1  0.093079  0  0.124997  0.124328  0  0.985247  0
H  H25  1  0.76300070  0.50473246  0.03301453  1  0.073669  0  0.124623  0.124206  0  0.985831  0
H  H26  1  0.99606439  0.72706002  0.20336232  1  0.086341  0  0.124175  0.124554  0  0.985639  0
H  H27  1  0.00917266  0.57009793  0.23108545  1  0.115285  0  0.124637  0.123203  0  0.988337  0
H  H28  1  0.84339778  0.65880307  0.95745091  1  0.126127  0  0.124856  0.124779  0  0.986024  0
H  H29  1  0.89013108  0.77474132  0.05426483  1  0.109233  0  0.124495  0.124013  0  0.986175  0
H  H30  1  0.21472095  0.98913972  0.68779473  1  0.100585  0  0.122605  0.120904  0  0.99485  0
H  H31  1  0.20746149  0.98657789  0.53864520  1  0.069504  0  0.122422  0.121309  0  0.993242  0
H  H32  1  0.97272240  0.77131112  0.70345058  1  0.127784  0  0.125383  0.125981  0  0.983584  0
H  H33  1  0.03915492  0.91113019  0.75656495  1  0.095356  0  0.125797  0.125454  0  0.984802  0
H  H34  1  0.11880378  0.84099443  0.46621226  1  0.10275  0  0.125591  0.125506  0  0.984088  0
H  H35  1  0.07236684  0.71791543  0.55395253  1  0.117309  0  0.125285  0.125005  0  0.983839  0
H  H36  1  0.75304083  0.92139189  0.94585086  1  0.110107  0  0.110707  0.10742  0  1.024792  0
H  H37  1  0.81418768  0.97274145  0.81773804  1  0.071413  0  0.11106  0.107446  0  1.024692  0
H  H38  1  0.90892576  0.91256479  0.76533855  1  0.083792  0  0.110718  0.10733  0  1.022517  0
H  H39  1  0.96492332  0.77154044  0.81398979  1  0.076826  0  0.110475  0.108443  0  1.021106  0
H  H40  1  0.91639029  0.73127317  0.90691735  1  0.076529  0  0.111137  0.108549  0  1.020868  0
H  H41  1  0.80247582  0.82067241  0.98615640  1  0.09949  0  0.110383  0.107481  0  1.020615  0
H  H42  1  0.25223769  0.59975035  0.45865293  1  0.098712  0  0.110207  0.108029  0  1.021235  0
H  H43  1  0.22663746  0.55460020  0.32034929  1  0.076739  0  0.110368  0.107002  0  1.024033  0
H  H44  1  0.12227181  0.59969908  0.25871261  1  0.093603  0  0.110976  0.10761  0  1.021151  0
H  H45  1  0.01458130  0.71725175  0.30616844  1  0.088292  0  0.110077  0.107986  0  1.022868  0
H  H46  1  0.04627392  0.76183517  0.40493156  1  0.055691  0  0.110184  0.107936  0  1.02245  0
H  H47  1  0.17582350  0.68838245  0.49398821  1  0.048538  0  0.110519  0.107386  0  1.021596  0
H  H48  1  0.25125724  0.07478929  0.54559807  1  0.076136  0  0.110277  0.1074  0  1.023391  0
H  H49  1  0.30914629  0.03548796  0.68183084  1  0.083292  0  0.111051  0.107639  0  1.023822  0
H  H50  1  0.40783845  0.09622218  0.73491195  1  0.080022  0  0.110172  0.107358  0  1.021234  0
H  H51  1  0.48136052  0.22474834  0.67507062  1  0.092413  0  0.110151  0.108437  0  1.022854  0
H  H52  1  0.43180535  0.25927679  0.57734937  1  0.076206  0  0.110617  0.107722  0  1.02152  0
H  H53  1  0.30439547  0.17130286  0.50063007  1  0.057055  0  0.110062  0.107809  0  1.021347  0
H  H54  1  0.74258446  0.39646341  0.04815812  1  0.095675  0  0.110219  0.107939  0  1.022935  0
H  H55  1  0.70980026  0.45878437  0.17762337  1  0.102153  0  0.110506  0.106773  0  1.023462  0
H  H56  1  0.61191118  0.41435120  0.23846391  1  0.071916  0  0.111378  0.108348  0  1.023417  0
H  H57  1  0.51687434  0.28403819  0.19948851  1  0.09176  0  0.110118  0.107321  0  1.024313  0
H  H58  1  0.54725365  0.23246156  0.10577816  1  0.069589  0  0.110142  0.107955  0  1.021294  0
H  H59  1  0.67022907  0.30186804  0.01687295  1  0.0904  0  0.110614  0.107761  0  1.021578  0
C  C60  1  0.33867731  0.51712513  0.36704443  1  0.36854  0  0.001888  -0.097746  0  3.969545  0
C  C61  1  0.29362112  0.53031823  0.39757191  1  0.451846  0  0.073533  0.084049  0  4.09397  0
C  C62  1  0.29788610  0.49503222  0.43288360  1  0.38112  0  0.002341  -0.096094  0  3.961628  0
C  C63  1  0.48738741  0.31935305  0.29099956  1  0.430275  0  -0.001957  -0.103853  0  3.965643  0
C  C64  1  0.51908934  0.35527668  0.26663551  1  0.43722  0  0.07489  0.08752  0  4.096793  0
C  C65  1  0.50436265  0.39999860  0.28702045  1  0.411402  0  -0.001824  -0.103572  0  3.972655  0
C  C66  1  0.36120858  0.31008402  0.50104403  1  0.41788  0  0.002745  -0.096149  0  3.971037  0
C  C67  1  0.36908363  0.25943096  0.49515856  1  0.393507  0  0.072758  0.082073  0  4.095971  0
C  C68  1  0.38072460  0.25381559  0.44863524  1  0.399906  0  0.002429  -0.095679  0  3.965842  0
C  C69  1  0.72134331  0.03231479  0.84966286  1  0.37977  0  -0.003378  -0.10634  0  3.972761  0
C  C70  1  0.73779847  0.99972562  0.88560874  1  0.386339  0  0.076217  0.090965  0  4.094652  0
C  C71  1  0.70809247  0.01770610  0.92379609  1  0.420347  0  -0.003467  -0.105487  0  3.968272  0
C  C72  1  0.48522271  0.18643229  0.79608512  1  0.386326  0  0.007882  -0.087626  0  3.968252  0
C  C73  1  0.49426684  0.16514990  0.75333382  1  0.415258  0  0.069496  0.0734  0  4.09705  0
C  C74  1  0.55128616  0.14139682  0.75800976  1  0.42498  0  0.008816  -0.084023  0  3.969847  0
C  C75  1  0.61385930  0.17473670  0.01624164  1  0.387288  0  0.005985  -0.088941  0  3.965105  0
C  C76  1  0.59462462  0.22379598  0.01818906  1  0.488666  0  0.069625  0.074074  0  4.092265  0
C  C77  1  0.56735568  0.23408021  0.97477921  1  0.3683  0  0.006498  -0.088948  0  3.96997  0
C  C78  1  0.82407881  0.49000103  0.13762004  1  0.44663  0  0.001784  -0.097578  0  3.969555  0
C  C79  1  0.78026421  0.47380072  0.10452635  1  0.436422  0  0.074296  0.083377  0  4.095051  0
C  C80  1  0.78782629  0.50421225  0.06612877  1  0.410036  0  0.002135  -0.095087  0  3.960469  0
C  C81  1  0.99215151  0.68725228  0.20376494  1  0.412972  0  0.001636  -0.09754  0  3.960299  0
C  C82  1  0.02031188  0.65240348  0.23351574  1  0.418885  0  0.073589  0.08378  0  4.091545  0
C  C83  1  0.99932752  0.60669560  0.21750412  1  0.418935  0  0.001941  -0.096164  0  3.971769  0
C  C84  1  0.85619532  0.68094965  0.98715918  1  0.427173  0  0.001678  -0.097808  0  3.969412  0
C  C85  1  0.86396218  0.73194164  0.99050445  1  0.380485  0  0.072643  0.081704  0  4.097148  0
C  C86  1  0.87949357  0.74042305  0.03687749  1  0.439933  0  0.002465  -0.095546  0  3.966986  0
C  C87  1  0.20640213  0.98168335  0.65156164  1  0.437317  0  -0.002535  -0.105236  0  3.971828  0
C  C88  1  0.22937078  0.00527714  0.61293645  1  0.398834  0  0.075918  0.089604  0  4.092522  0
C  C89  1  0.20222118  0.98075789  0.57512399  1  0.416506  0  -0.002644  -0.103904  0  3.965519  0
C  C90  1  0.99630701  0.80579415  0.71046217  1  0.419208  0  0.003424  -0.093818  0  3.959732  0
C  C91  1  0.98790943  0.84010485  0.74522536  1  0.412117  0  0.072254  0.080677  0  4.094749  0
C  C92  1  0.03023591  0.87768560  0.73732844  1  0.428541  0  0.003914  -0.095239  0  3.977391  0
C  C93  1  0.10618945  0.81663392  0.49396546  1  0.443113  0  0.003348  -0.093123  0  3.967996  0
C  C94  1  0.09770696  0.76561111  0.49410693  1  0.373702  0  0.071391  0.079166  0  4.096824  0
C  C95  1  0.08296664  0.75355165  0.53914142  1  0.430469  0  0.003993  -0.093475  0  3.969781  0
C  C96  1  0.81754795  0.88413916  0.89844650  1  0.0013  0  -0.032948  -0.01273  0  4.10002  0
C  C97  1  0.83820583  0.83681452  0.91594430  1  0.028229  0  -0.035259  -0.018115  0  4.101325  0
C  C98  1  0.87668756  0.80604313  0.88863222  1  0.017561  0  -0.034863  -0.014773  0  4.101176  0
C  C99  1  0.89804335  0.82401031  0.84532357  1  0.042669  0  -0.033938  -0.013344  0  4.098571  0
C  C100  1  0.87954724  0.87242209  0.82894854  1  0.037427  0  -0.036099  -0.017512  0  4.115608  0
C  C101  1  0.83781288  0.90160164  0.85452350  1  0.041889  0  -0.03269  -0.011704  0  4.10913  0
C  C102  1  0.77900673  0.91999348  0.91497454  1  0.302847  0  -0.023105  -0.152952  0  3.930084  0
C  C103  1  0.81068759  0.94709940  0.84618092  1  0.2821  0  -0.022983  -0.152293  0  3.936153  0
C  C104  1  0.90974178  0.88138608  0.78882694  1  0.293673  0  -0.023294  -0.153667  0  3.947174  0
C  C105  1  0.93844669  0.80534234  0.81414868  1  0.264866  0  -0.023973  -0.155629  0  3.934686  0
C  C106  1  0.88825957  0.76314151  0.91361592  1  0.299119  0  -0.023646  -0.154312  0  3.941578  0
C  C107  1  0.82890879  0.81156843  0.95666950  1  0.27367  0  -0.023287  -0.153116  0  3.936499  0
C  C108  1  0.18643997  0.63099386  0.40357086  1  0.033509  0  -0.034825  -0.014377  0  4.103255  0
C  C109  1  0.15059018  0.67147118  0.41982901  1  0.001465  0  -0.035878  -0.01611  0  4.107967  0
C  C110  1  0.10658415  0.69681721  0.38918380  1  0.025785  0  -0.035113  -0.016908  0  4.094567  0
C  C111  1  0.09531384  0.67916789  0.34288794  1  0.077376  0  -0.033763  -0.01386  0  4.093912  0
C  C112  1  0.13135828  0.63849294  0.32675390  1  0.06145  0  -0.03452  -0.012901  0  4.109162  0
C  C113  1  0.17828184  0.61586717  0.35627570  1  -0.042178  0  -0.03546  -0.015183  0  4.115584  0
C  C114  1  0.23125406  0.60066813  0.42421211  1  0.290009  0  -0.023978  -0.156063  0  3.933332  0
C  C115  1  0.21894385  0.57757036  0.34978837  1  0.327034  0  -0.024489  -0.154994  0  3.943044  0
C  C116  1  0.10868183  0.62722984  0.28299837  1  0.229536  0  -0.024582  -0.154737  0  3.9466  0
C  C117  1  0.05226281  0.69105182  0.30792628  1  0.268538  0  -0.024848  -0.156419  0  3.933038  0
C  C118  1  0.08127120  0.73462579  0.41409552  1  0.301487  0  -0.024578  -0.155706  0  3.939489  0
C  C119  1  0.14934060  0.69436945  0.46206506  1  0.344279  0  -0.023961  -0.153869  0  3.946132  0
C  C120  1  0.32046604  0.11333820  0.59280675  1  0.039521  0  -0.032878  -0.014187  0  4.095876  0
C  C121  1  0.34494647  0.15743020  0.57235129  1  0.01452  0  -0.034811  -0.016416  0  4.095148  0
C  C122  1  0.38805154  0.18783949  0.59874146  1  -0.008853  0  -0.035373  -0.013661  0  4.104553  0
C  C123  1  0.40913695  0.17318359  0.64447286  1  0.062462  0  -0.036093  -0.016322  0  4.106574  0
C  C124  1  0.38426623  0.12926368  0.66486922  1  0.064811  0  -0.037134  -0.018344  0  4.118253  0
C  C125  1  0.33942514  0.10007212  0.63953151  1  0.057229  0  -0.032947  -0.010042  0  4.10916  0
C  C126  1  0.27796447  0.07826393  0.57767456  1  0.265106  0  -0.023937  -0.154143  0  3.927558  0
C  C127  1  0.30764419  0.05786615  0.65084642  1  0.271224  0  -0.023988  -0.154363  0  3.940193  0
C  C128  1  0.41219007  0.12395197  0.70827057  1  0.261661  0  -0.023257  -0.153074  0  3.948633  0
C  C129  1  0.45163421  0.19277615  0.67628450  1  0.279713  0  -0.024185  -0.156479  0  3.943974  0
C  C130  1  0.40119877  0.22824544  0.57160331  1  0.289696  0  -0.024541  -0.155302  0  3.947771  0
C  C131  1  0.33441864  0.18051164  0.52998872  1  0.299644  0  -0.024301  -0.155076  0  3.937323  0
C  C132  1  0.67734387  0.36979405  0.10146631  1  0.021904  0  -0.034701  -0.013133  0  4.103284  0
C  C133  1  0.64488781  0.32564383  0.08766829  1  0.009963  0  -0.03573  -0.01632  0  4.107653  0
C  C134  1  0.60296170  0.30180898  0.11819966  1  0.021723  0  -0.035485  -0.018027  0  4.096203  0
C  C135  1  0.59088273  0.32400433  0.16183820  1  0.07861  0  -0.03249  -0.012873  0  4.094747  0
C  C136  1  0.62256165  0.36887920  0.17513317  1  0.048742  0  -0.033883  -0.010926  0  4.111303  0
C  C137  1  0.66699155  0.39068646  0.14590047  1  0.041366  0  -0.035884  -0.017191  0  4.117462  0
C  C138  1  0.72046908  0.39930681  0.08067369  1  0.292039  0  -0.024083  -0.156388  0  3.935005  0
C  C139  1  0.70444059  0.43171925  0.15061315  1  0.240113  0  -0.024204  -0.154668  0  3.941379  0
C  C140  1  0.60023344  0.38332045  0.21668858  1  0.292405  0  -0.024327  -0.156722  0  3.946006  0
C  C141  1  0.55067912  0.31302228  0.19624752  1  0.273053  0  -0.024101  -0.155297  0  3.928452  0
C  C142  1  0.58017054  0.26016978  0.09586255  1  0.300037  0  -0.0241  -0.154789  0  3.938242  0
C  C143  1  0.64515426  0.29790966  0.04803521  1  0.257815  0  -0.024264  -0.15448  0  3.950493  0
N  N144  1  0.34281248  0.46250763  0.42371911  1  -0.764572  0  -0.336991  -0.136836  0  3.756811  0
N  N145  1  0.36769564  0.47610988  0.38303391  1  -0.77632  0  -0.341459  -0.135483  0  3.784289  0
N  N146  1  0.46614066  0.39118310  0.32149734  1  -0.792984  0  -0.342131  -0.135372  0  3.790766  0
N  N147  1  0.45532976  0.34159505  0.32386062  1  -0.751283  0  -0.335571  -0.134877  0  3.771708  0
N  N148  1  0.38004481  0.29864661  0.42801878  1  -0.746639  0  -0.337539  -0.138557  0  3.758421  0
N  N149  1  0.36822989  0.33338010  0.46050011  1  -0.773045  0  -0.335636  -0.132468  0  3.774682  0
N  N150  1  0.67559164  0.05849569  0.91112157  1  -0.764515  0  -0.336986  -0.13598  0  3.779497  0
N  N151  1  0.68404348  0.06756530  0.86555126  1  -0.749459  0  -0.341058  -0.135468  0  3.788389  0
N  N152  1  0.57488518  0.14795009  0.80105035  1  -0.772263  0  -0.342221  -0.139534  0  3.770952  0
N  N153  1  0.53404992  0.17578704  0.82466472  1  -0.77037  0  -0.336951  -0.13566  0  3.764779  0
N  N154  1  0.57053309  0.19371125  0.94835699  1  -0.765879  0  -0.337779  -0.135118  0  3.773416  0
N  N155  1  0.59916968  0.15688719  0.97400026  1  -0.765345  0  -0.337017  -0.138687  0  3.750405  0
N  N156  1  0.83354052  0.53678582  0.07592484  1  -0.745353  0  -0.336279  -0.13813  0  3.759319  0
N  N157  1  0.85557410  0.52804947  0.12006155  1  -0.774715  0  -0.34178  -0.133896  0  3.789513  0
N  N158  1  0.96105186  0.61385096  0.18039424  1  -0.789678  0  -0.341872  -0.135185  0  3.792607  0
N  N159  1  0.95621259  0.66346351  0.17196532  1  -0.750913  0  -0.335036  -0.135481  0  3.760346  0
N  N160  1  0.88093411  0.69696930  0.05986268  1  -0.769746  0  -0.335607  -0.135747  0  3.760814  0
N  N161  1  0.86681151  0.66019842  0.02909990  1  -0.770796  0  -0.335896  -0.134943  0  3.76663  0
N  N162  1  0.16512381  0.94471316  0.59049325  1  -0.812818  0  -0.338466  -0.137281  0  3.776816  0
N  N163  1  0.16801659  0.94520325  0.63748831  1  -0.69874  0  -0.341482  -0.133071  0  3.79604  0
N  N164  1  0.06175982  0.86664393  0.69994721  1  -0.773736  0  -0.341947  -0.133437  0  3.793869  0
N  N165  1  0.04111037  0.82223926  0.68331028  1  -0.775801  0  -0.334718  -0.136486  0  3.752303  0
N  N166  1  0.08319317  0.79494364  0.56450569  1  -0.772931  0  -0.335159  -0.135654  0  3.769787  0
N  N167  1  0.09730592  0.83399248  0.53653354  1  -0.764526  0  -0.338138  -0.13768  0  3.758172  0
N  N168  1  0.77502363  0.95802328  0.88299606  1  -1.280775  0  -0.237725  0.053687  0  3.902046  0
N  N169  1  0.94521765  0.84050957  0.78002767  1  -1.268689  0  -0.240887  0.047105  0  3.893969  0
N  N170  1  0.85928196  0.76690876  0.95485059  1  -1.277328  0  -0.24007  0.049454  0  3.899429  0
N  N171  1  0.25078261  0.56854336  0.39119068  1  -1.271224  0  -0.239384  0.049887  0  3.901187  0
N  N172  1  0.06074572  0.65922644  0.27173121  1  -1.237451  0  -0.240657  0.046581  0  3.892659  0
N  N173  1  0.10729932  0.73259380  0.45828935  1  -1.272015  0  -0.240849  0.047864  0  3.897628  0
N  N174  1  0.27041569  0.04483540  0.61319812  1  -1.249498  0  -0.238008  0.052954  0  3.901421  0
N  N175  1  0.45276727  0.16271169  0.71491004  1  -1.25804  0  -0.245314  0.039038  0  3.899606  0
N  N176  1  0.36861137  0.22351282  0.53001770  1  -1.236156  0  -0.240458  0.047467  0  3.90148  0
N  N177  1  0.73667633  0.43668111  0.11088641  1  -1.279739  0  -0.239239  0.051083  0  3.900571  0
N  N178  1  0.55655033  0.34936821  0.22927998  1  -1.283605  0  -0.238023  0.055226  0  3.897508  0
N  N179  1  0.60604420  0.25829136  0.05331483  1  -1.245043  0  -0.242003  0.045493  0  3.89356  0
