# generated using pymatgen
data_HgPH12C13I2O
_symmetry_space_group_name_H-M   'P 1'
_cell_length_a   8.99582790
_cell_length_b   13.65469363
_cell_length_c   13.65484366
_cell_angle_alpha   99.79449223
_cell_angle_beta   100.51955674
_cell_angle_gamma   100.51803679
_symmetry_Int_Tables_number   1
_chemical_formula_structural   HgPH12C13I2O
_chemical_formula_sum   'Hg4 P4 H48 C52 I8 O4'
_cell_volume   1585.08248877
_cell_formula_units_Z   4
loop_
 _symmetry_equiv_pos_site_id
 _symmetry_equiv_pos_as_xyz
  1  'x, y, z'
loop_
 _atom_site_type_symbol
 _atom_site_label
 _atom_site_symmetry_multiplicity
 _atom_site_fract_x
 _atom_site_fract_y
 _atom_site_fract_z
 _atom_site_occupancy
 _atom_site_hle17_bader_spin_density
 _atom_site_hle17_ddec_charge
 _atom_site_hle17_ddec_spin_density
 _atom_site_hle17_ddec_sum_bond_order
 _atom_site_hle17_magmom
 _atom_site_hse06_10hf_bader_spin_density
 _atom_site_hse06_10hf_ddec_charge
 _atom_site_hse06_10hf_ddec_spin_density
 _atom_site_hse06_10hf_ddec_sum_bond_order
 _atom_site_hse06_10hf_magmom
 _atom_site_hse06_bader_spin_density
 _atom_site_hse06_ddec_charge
 _atom_site_hse06_ddec_spin_density
 _atom_site_hse06_ddec_sum_bond_order
 _atom_site_hse06_magmom
 _atom_site_pbe_bader_spin_density
 _atom_site_pbe_cm5_charge
 _atom_site_pbe_ddec_charge
 _atom_site_pbe_ddec_spin_density
 _atom_site_pbe_ddec_sum_bond_order
 _atom_site_pbe_magmom
Hg  Hg0  1  0.75000725  0.83356105  0.16644759  1  0  0.671049  0  2.165388  0  0  0.561391  0  2.656746  0  0  0.606458  0  2.621065  0  0  0.403229  0.530961  0  2.680624  0
Hg  Hg1  1  0.24999334  0.16644591  0.83355659  1  0  0.67097  0  2.165478  0  0  0.561357  0  2.656824  0  0  0.606418  0  2.621149  0  0  0.40322  0.530928  0  2.68069  0
Hg  Hg2  1  0.49998415  0.00000361  0.00000119  1  0  0.423184  0  2.284226  0  0  0.333708  0  2.752301  0  0  0.3753  0  2.730463  0  0  0.284635  0.306122  0  2.76653  0
Hg  Hg3  1  0.00000036  0.00000657  0.99999396  1  0  0.423169  0  2.284175  0  0  0.333693  0  2.752251  0  0  0.37529  0  2.730409  0  0  0.284675  0.306107  0  2.766479  0
P  P4  1  0.70469754  0.53366266  0.12658084  1  0  0.994392  0  4.370698  0  0  0.899783  0  4.792138  0  0  0.930874  0  4.782886  0  0  0.246963  0.878314  0  4.798205  0
P  P5  1  0.79530642  0.87341673  0.46634021  1  0  0.994508  0  4.370557  0  0  0.899806  0  4.792136  0  0  0.930899  0  4.782904  0  0  0.247047  0.878349  0  4.798176  0
P  P6  1  0.29529431  0.46634200  0.87341314  1  0  0.994284  0  4.370589  0  0  0.899617  0  4.792191  0  0  0.930721  0  4.78297  0  0  0.246979  0.878151  0  4.798235  0
P  P7  1  0.20469793  0.12658795  0.53366255  1  0  0.994258  0  4.370354  0  0  0.89971  0  4.791902  0  0  0.930798  0  4.782653  0  0  0.247036  0.878258  0  4.797952  0
H  H8  1  0.63653442  0.49666550  0.94529875  1  0  0.118582  0  0.959468  0  0  0.133992  0  1.019056  0  0  0.135305  0  1.020611  0  0  0.10387  0.133042  0  1.018091  0
H  H9  1  0.86346356  0.05470554  0.50333923  1  0  0.118604  0  0.959372  0  0  0.134014  0  1.018941  0  0  0.135333  0  1.020501  0  0  0.103878  0.133061  0  1.017974  0
H  H10  1  0.36345504  0.50333535  0.05469576  1  0  0.11869  0  0.959389  0  0  0.134154  0  1.01891  0  0  0.135479  0  1.020471  0  0  0.103912  0.133201  0  1.017943  0
H  H11  1  0.13654639  0.94530220  0.49667204  1  0  0.118659  0  0.959391  0  0  0.134111  0  1.01891  0  0  0.135425  0  1.020462  0  0  0.103889  0.133162  0  1.017945  0
H  H12  1  0.54399540  0.39471183  0.99271795  1  0  0.118576  0  0.960722  0  0  0.130341  0  1.026847  0  0  0.132827  0  1.026117  0  0  0.096068  0.128549  0  1.027469  0
H  H13  1  0.95600245  0.00728090  0.60528858  1  0  0.118603  0  0.960757  0  0  0.130362  0  1.026867  0  0  0.132853  0  1.026141  0  0  0.096062  0.128566  0  1.027488  0
H  H14  1  0.45599376  0.60529129  0.00728644  1  0  0.118614  0  0.960703  0  0  0.130367  0  1.026852  0  0  0.132863  0  1.026131  0  0  0.096085  0.128571  0  1.02747  0
H  H15  1  0.04400758  0.99271694  0.39471733  1  0  0.118618  0  0.960819  0  0  0.130367  0  1.026942  0  0  0.13285  0  1.026217  0  0  0.096091  0.128575  0  1.027566  0
H  H16  1  0.63841259  0.32239401  0.16546364  1  0  0.084646  0  0.97271  0  0  0.090854  0  1.046942  0  0  0.093853  0  1.045211  0  0  0.088691  0.088685  0  1.048226  0
H  H17  1  0.86158839  0.83453497  0.67760234  1  0  0.084604  0  0.972823  0  0  0.09088  0  1.046978  0  0  0.093879  0  1.045249  0  0  0.0887  0.088713  0  1.048262  0
H  H18  1  0.36159746  0.67760765  0.83452975  1  0  0.084676  0  0.97273  0  0  0.090923  0  1.046938  0  0  0.093923  0  1.045209  0  0  0.088689  0.088754  0  1.048219  0
H  H19  1  0.13841120  0.16546894  0.32240194  1  0  0.084672  0  0.972799  0  0  0.09093  0  1.046967  0  0  0.093933  0  1.045231  0  0  0.088719  0.088761  0  1.048254  0
H  H20  1  0.51608747  0.25393709  0.29509788  1  0  0.087514  0  0.979461  0  0  0.098521  0  1.040427  0  0  0.100739  0  1.040586  0  0  0.089301  0.0969  0  1.040488  0
H  H21  1  0.98390447  0.70489298  0.74606083  1  0  0.087575  0  0.979363  0  0  0.098547  0  1.04036  0  0  0.100765  0  1.040517  0  0  0.089297  0.096923  0  1.040413  0
H  H22  1  0.48392876  0.74605925  0.70489678  1  0  0.08755  0  0.97948  0  0  0.098556  0  1.040437  0  0  0.100773  0  1.040596  0  0  0.089285  0.096934  0  1.040499  0
H  H23  1  0.01606433  0.29509639  0.25393881  1  0  0.087562  0  0.979527  0  0  0.098534  0  1.040507  0  0  0.100749  0  1.040674  0  0  0.089315  0.096914  0  1.040575  0
H  H24  1  0.41809365  0.36683364  0.41868285  1  0  0.087757  0  0.95932  0  0  0.099378  0  1.018154  0  0  0.101489  0  1.018368  0  0  0.100057  0.097853  0  1.018092  0
H  H25  1  0.08191490  0.58131102  0.63317321  1  0  0.087653  0  0.959223  0  0  0.099307  0  1.018045  0  0  0.101417  0  1.01826  0  0  0.099984  0.097779  0  1.017984  0
H  H26  1  0.58192421  0.63316423  0.58131226  1  0  0.087709  0  0.959213  0  0  0.099301  0  1.018091  0  0  0.101412  0  1.018307  0  0  0.100009  0.097774  0  1.018035  0
H  H27  1  0.91807251  0.41868677  0.36683005  1  0  0.087666  0  0.959228  0  0  0.099326  0  1.018039  0  0  0.101436  0  1.018254  0  0  0.09999  0.097796  0  1.017985  0
H  H28  1  0.45666234  0.55250055  0.41950184  1  0  0.083341  0  0.96293  0  0  0.095417  0  1.02189  0  0  0.097989  0  1.021379  0  0  0.099531  0.093583  0  1.022319  0
H  H29  1  0.04336000  0.58049688  0.44750866  1  0  0.083433  0  0.96277  0  0  0.095438  0  1.021816  0  0  0.098009  0  1.021297  0  0  0.099579  0.093609  0  1.022241  0
H  H30  1  0.54334142  0.44749576  0.58048990  1  0  0.083294  0  0.962972  0  0  0.095344  0  1.021961  0  0  0.097908  0  1.021455  0  0  0.099497  0.093512  0  1.022383  0
H  H31  1  0.95664902  0.41951162  0.55249678  1  0  0.083361  0  0.962798  0  0  0.095382  0  1.021827  0  0  0.097953  0  1.021314  0  0  0.099536  0.09355  0  1.022249  0
H  H32  1  0.58820853  0.62362564  0.29207685  1  0  0.101432  0  0.955719  0  0  0.108493  0  1.023814  0  0  0.111842  0  1.021608  0  0  0.102391  0.106065  0  1.025449  0
H  H33  1  0.91179996  0.70791852  0.37637750  1  0  0.101437  0  0.955602  0  0  0.108483  0  1.023721  0  0  0.111831  0  1.021514  0  0  0.10242  0.106059  0  1.025346  0
H  H34  1  0.41178137  0.37636989  0.70790800  1  0  0.101408  0  0.955744  0  0  0.108528  0  1.023762  0  0  0.111877  0  1.021554  0  0  0.102396  0.1061  0  1.025394  0
H  H35  1  0.08821045  0.29209074  0.62362896  1  0  0.10142  0  0.955687  0  0  0.10853  0  1.023705  0  0  0.111879  0  1.021498  0  0  0.102396  0.106102  0  1.025332  0
H  H36  1  0.78592188  0.34683961  0.01903473  1  0  0.07785  0  0.998667  0  0  0.086341  0  1.07033  0  0  0.089491  0  1.068278  0  0  0.083309  0.084079  0  1.071838  0
H  H37  1  0.71406261  0.98096268  0.65316373  1  0  0.077896  0  0.998679  0  0  0.086403  0  1.070322  0  0  0.089553  0  1.068271  0  0  0.083342  0.084141  0  1.071834  0
H  H38  1  0.21405674  0.65315892  0.98097056  1  0  0.077917  0  0.99852  0  0  0.086351  0  1.070295  0  0  0.0895  0  1.068241  0  0  0.083327  0.084097  0  1.071777  0
H  H39  1  0.28594677  0.01903669  0.34683945  1  0  0.077912  0  0.998588  0  0  0.086366  0  1.070337  0  0  0.089509  0  1.068305  0  0  0.083309  0.084114  0  1.071814  0
H  H40  1  0.03476320  0.29198353  0.03606546  1  0  0.079914  0  0.988271  0  0  0.083212  0  1.065186  0  0  0.086511  0  1.063387  0  0  0.079855  0.080848  0  1.066539  0
H  H41  1  0.46521039  0.96391666  0.70799876  1  0  0.080007  0  0.988248  0  0  0.083221  0  1.065265  0  0  0.086522  0  1.063465  0  0  0.079864  0.080855  0  1.066622  0
H  H42  1  0.96521291  0.70800737  0.96393823  1  0  0.079908  0  0.988331  0  0  0.083175  0  1.065248  0  0  0.08647  0  1.063455  0  0  0.079812  0.080813  0  1.066602  0
H  H43  1  0.53479951  0.03607737  0.29200501  1  0  0.080087  0  0.988208  0  0  0.083251  0  1.065252  0  0  0.086552  0  1.063452  0  0  0.079856  0.080886  0  1.066614  0
H  H44  1  0.27140667  0.40189562  0.15593408  1  0  0.085204  0  0.969602  0  0  0.09437  0  1.034471  0  0  0.096297  0  1.034891  0  0  0.093911  0.092996  0  1.0342  0
H  H45  1  0.22858408  0.84404146  0.59807867  1  0  0.085091  0  0.969759  0  0  0.094383  0  1.034507  0  0  0.096318  0  1.034903  0  0  0.093925  0.09301  0  1.034233  0
H  H46  1  0.72857555  0.59809683  0.84406400  1  0  0.085272  0  0.969586  0  0  0.094373  0  1.034522  0  0  0.096303  0  1.034931  0  0  0.093939  0.092998  0  1.034248  0
H  H47  1  0.77143149  0.15594573  0.40192826  1  0  0.085127  0  0.969598  0  0  0.094312  0  1.034481  0  0  0.096244  0  1.034883  0  0  0.093873  0.09294  0  1.034204  0
H  H48  1  0.26319560  0.57393238  0.24837991  1  0  0.082109  0  0.969475  0  0  0.093494  0  1.030265  0  0  0.095976  0  1.029824  0  0  0.095073  0.091737  0  1.030628  0
H  H49  1  0.23681596  0.75159964  0.42604414  1  0  0.082202  0  0.96926  0  0  0.093564  0  1.030064  0  0  0.096049  0  1.029625  0  0  0.095116  0.091809  0  1.030422  0
H  H50  1  0.73679643  0.42606620  0.75160573  1  0  0.08221  0  0.969271  0  0  0.093582  0  1.030065  0  0  0.096062  0  1.029632  0  0  0.095128  0.091827  0  1.030429  0
H  H51  1  0.76319397  0.24838754  0.57396285  1  0  0.082185  0  0.969296  0  0  0.093571  0  1.030079  0  0  0.096057  0  1.029636  0  0  0.095093  0.091814  0  1.030438  0
H  H52  1  0.01331529  0.63113521  0.22932676  1  0  0.089515  0  0.969269  0  0  0.097207  0  1.037961  0  0  0.100685  0  1.035353  0  0  0.095251  0.094674  0  1.039897  0
H  H53  1  0.48671217  0.77067524  0.36886092  1  0  0.08937  0  0.969497  0  0  0.097166  0  1.038067  0  0  0.100616  0  1.035486  0  0  0.095234  0.094628  0  1.040018  0
H  H54  1  0.98668150  0.36887100  0.77065708  1  0  0.08947  0  0.969299  0  0  0.097163  0  1.037978  0  0  0.100639  0  1.035374  0  0  0.095279  0.094636  0  1.039907  0
H  H55  1  0.51329681  0.22932641  0.63113894  1  0  0.089442  0  0.96949  0  0  0.097242  0  1.038034  0  0  0.100696  0  1.035449  0  0  0.095261  0.094711  0  1.039972  0
C  C56  1  0.57303289  0.47827543  0.00372616  1  0  -0.333193  0  3.665764  0  0  -0.351709  0  3.903625  0  0  -0.357905  0  3.913472  0  0  -0.16233  -0.347441  0  3.897165  0
C  C57  1  0.92697691  0.99627933  0.52173191  1  0  -0.333185  0  3.665763  0  0  -0.35175  0  3.903721  0  0  -0.357994  0  3.913595  0  0  -0.162333  -0.347463  0  3.897242  0
C  C58  1  0.42695940  0.52173379  0.99627672  1  0  -0.33325  0  3.665777  0  0  -0.351845  0  3.903657  0  0  -0.358123  0  3.913574  0  0  -0.162346  -0.347561  0  3.897184  0
C  C59  1  0.07303260  0.00372385  0.47827119  1  0  -0.333273  0  3.666069  0  0  -0.351867  0  3.903954  0  0  -0.358068  0  3.913781  0  0  -0.162359  -0.347604  0  3.897499  0
C  C60  1  0.61775789  0.47768388  0.21971988  1  0  -0.206332  0  3.772564  0  0  -0.165668  0  4.009809  0  0  -0.174658  0  4.035961  0  0  -0.032462  -0.159653  0  3.992126  0
C  C61  1  0.88225206  0.78027942  0.52231459  1  0  -0.20616  0  3.772588  0  0  -0.165544  0  4.009934  0  0  -0.174524  0  4.036078  0  0  -0.032425  -0.159541  0  3.992266  0
C  C62  1  0.38224109  0.52231167  0.78027044  1  0  -0.205948  0  3.772367  0  0  -0.165216  0  4.009548  0  0  -0.174202  0  4.0357  0  0  -0.032294  -0.159213  0  3.991875  0
C  C63  1  0.11775870  0.21972756  0.47768932  1  0  -0.205971  0  3.772506  0  0  -0.165375  0  4.009847  0  0  -0.174355  0  4.035991  0  0  -0.032363  -0.15936  0  3.992155  0
C  C64  1  0.59848450  0.37347148  0.22057809  1  0  -0.064117  0  3.760346  0  0  -0.0836  0  4.002578  0  0  -0.084084  0  4.02394  0  0  -0.089934  -0.083069  0  3.98801  0
C  C65  1  0.90152102  0.77941690  0.62652737  1  0  -0.064233  0  3.760482  0  0  -0.083763  0  4.002721  0  0  -0.084253  0  4.024086  0  0  -0.089996  -0.083235  0  3.988158  0
C  C66  1  0.40152213  0.62652333  0.77941006  1  0  -0.064418  0  3.760439  0  0  -0.083972  0  4.002673  0  0  -0.084461  0  4.024043  0  0  -0.090075  -0.083441  0  3.988102  0
C  C67  1  0.09847947  0.22058625  0.37347981  1  0  -0.064385  0  3.760313  0  0  -0.083896  0  4.002579  0  0  -0.084382  0  4.023937  0  0  -0.090056  -0.083375  0  3.988024  0
C  C68  1  0.52895755  0.33444773  0.29327703  1  0  -0.065475  0  3.757199  0  0  -0.074525  0  3.998213  0  0  -0.077036  0  4.019028  0  0  -0.095043  -0.072837  0  3.98405  0
C  C69  1  0.97104121  0.70671902  0.66555425  1  0  -0.065495  0  3.75712  0  0  -0.074512  0  3.998143  0  0  -0.077025  0  4.018963  0  0  -0.094988  -0.072812  0  3.983965  0
C  C70  1  0.47105263  0.66555089  0.70671585  1  0  -0.065415  0  3.757172  0  0  -0.07446  0  3.998193  0  0  -0.076973  0  4.019012  0  0  -0.094961  -0.07277  0  3.984027  0
C  C71  1  0.02894317  0.29328333  0.33444871  1  0  -0.065423  0  3.75707  0  0  -0.074455  0  3.998109  0  0  -0.076968  0  4.018925  0  0  -0.094972  -0.072764  0  3.983954  0
C  C72  1  0.47628769  0.39856256  0.36406556  1  0  -0.055228  0  3.745337  0  0  -0.068201  0  3.987631  0  0  -0.068614  0  4.008124  0  0  -0.084335  -0.067742  0  3.973564  0
C  C73  1  0.02371917  0.63592964  0.60143999  1  0  -0.055153  0  3.745193  0  0  -0.068138  0  3.987435  0  0  -0.068552  0  4.007928  0  0  -0.084325  -0.067678  0  3.973365  0
C  C74  1  0.52372176  0.60143377  0.63592977  1  0  -0.055093  0  3.745193  0  0  -0.068015  0  3.987433  0  0  -0.068427  0  4.007925  0  0  -0.084255  -0.067557  0  3.973369  0
C  C75  1  0.97627212  0.36406968  0.39856179  1  0  -0.05514  0  3.745161  0  0  -0.068107  0  3.987379  0  0  -0.068519  0  4.00787  0  0  -0.084294  -0.067648  0  3.973312  0
C  C76  1  0.49728084  0.50244766  0.36412959  1  0  -0.076454  0  3.76861  0  0  -0.086888  0  4.012893  0  0  -0.090308  0  4.034925  0  0  -0.089877  -0.08456  0  3.997839  0
C  C77  1  0.00273390  0.63586788  0.49755898  1  0  -0.076539  0  3.768764  0  0  -0.086912  0  4.013009  0  0  -0.090326  0  4.035037  0  0  -0.089902  -0.084597  0  3.997961  0
C  C78  1  0.50272043  0.49754789  0.63586393  1  0  -0.076417  0  3.768718  0  0  -0.086831  0  4.012998  0  0  -0.090243  0  4.035026  0  0  -0.089865  -0.084506  0  3.99794  0
C  C79  1  0.99727161  0.36413680  0.50244685  1  0  -0.076366  0  3.768656  0  0  -0.086764  0  4.012914  0  0  -0.090181  0  4.034948  0  0  -0.089845  -0.084437  0  3.997849  0
C  C80  1  0.56904437  0.54245861  0.29263077  1  0  -0.055633  0  3.747589  0  0  -0.075963  0  3.989985  0  0  -0.076474  0  4.011936  0  0  -0.081182  -0.075435  0  3.975064  0
C  C81  1  0.93096592  0.70736782  0.45754601  1  0  -0.055643  0  3.747641  0  0  -0.075938  0  3.990005  0  0  -0.07645  0  4.011947  0  0  -0.081204  -0.075415  0  3.975092  0
C  C82  1  0.43095060  0.45753845  0.70736007  1  0  -0.055794  0  3.747811  0  0  -0.076187  0  3.990183  0  0  -0.076697  0  4.01213  0  0  -0.08127  -0.075663  0  3.975268  0
C  C83  1  0.06904197  0.29264068  0.54246076  1  0  -0.055879  0  3.747801  0  0  -0.076209  0  3.99016  0  0  -0.076724  0  4.012109  0  0  -0.081279  -0.075681  0  3.975233  0
C  C84  1  0.88305980  0.49120441  0.12627463  1  0  -0.197148  0  3.774103  0  0  -0.155704  0  4.008711  0  0  -0.164787  0  4.035155  0  0  -0.027744  -0.149629  0  3.990811  0
C  C85  1  0.61694179  0.87372260  0.50879648  1  0  -0.197197  0  3.774116  0  0  -0.155692  0  4.008678  0  0  -0.164771  0  4.035109  0  0  -0.027723  -0.14961  0  3.990766  0
C  C86  1  0.11693382  0.50879873  0.87372223  1  0  -0.197175  0  3.774447  0  0  -0.155681  0  4.008976  0  0  -0.164765  0  4.03542  0  0  -0.027784  -0.149594  0  3.991056  0
C  C87  1  0.38306794  0.12627449  0.49120342  1  0  -0.197036  0  3.774027  0  0  -0.155676  0  4.008747  0  0  -0.164763  0  4.035206  0  0  -0.02779  -0.149616  0  3.990854  0
C  C88  1  0.88958833  0.39671779  0.07019458  1  0  -0.050559  0  3.747164  0  0  -0.070668  0  3.98562  0  0  -0.071208  0  4.00807  0  0  -0.086308  -0.0701  0  3.970336  0
C  C89  1  0.61040336  0.92980244  0.60328237  1  0  -0.050574  0  3.747201  0  0  -0.070701  0  3.985572  0  0  -0.071242  0  4.008025  0  0  -0.086367  -0.070134  0  3.970288  0
C  C90  1  0.11039229  0.60327998  0.92980789  1  0  -0.050596  0  3.747139  0  0  -0.070693  0  3.985545  0  0  -0.071231  0  4.007994  0  0  -0.086324  -0.070127  0  3.970259  0
C  C91  1  0.38960580  0.07019616  0.39672358  1  0  -0.050595  0  3.747245  0  0  -0.070667  0  3.985607  0  0  -0.071206  0  4.008047  0  0  -0.086296  -0.070093  0  3.970331  0
C  C92  1  0.02998714  0.36558909  0.07975938  1  0  -0.066027  0  3.750015  0  0  -0.075517  0  3.995824  0  0  -0.078605  0  4.016356  0  0  -0.093798  -0.073483  0  3.981955  0
C  C93  1  0.47000078  0.92023039  0.63439959  1  0  -0.066011  0  3.749858  0  0  -0.075472  0  3.995755  0  0  -0.078561  0  4.016282  0  0  -0.093708  -0.073437  0  3.981887  0
C  C94  1  0.96999274  0.63440639  0.92024480  1  0  -0.066025  0  3.750003  0  0  -0.075479  0  3.995812  0  0  -0.078566  0  4.016343  0  0  -0.09374  -0.073452  0  3.98195  0
C  C95  1  0.53001276  0.07976441  0.36560475  1  0  -0.066163  0  3.749998  0  0  -0.075543  0  3.995795  0  0  -0.078628  0  4.016316  0  0  -0.09375  -0.07351  0  3.981933  0
C  C96  1  0.16327006  0.42823752  0.14575953  1  0  -0.061821  0  3.753259  0  0  -0.073714  0  3.996581  0  0  -0.073988  0  4.017218  0  0  -0.088617  -0.073373  0  3.98256  0
C  C97  1  0.33672497  0.85422663  0.57174503  1  0  -0.061844  0  3.753056  0  0  -0.07385  0  3.996353  0  0  -0.074121  0  4.017004  0  0  -0.088704  -0.073506  0  3.982324  0
C  C98  1  0.83671369  0.57175950  0.85424244  1  0  -0.061857  0  3.753104  0  0  -0.073687  0  3.996417  0  0  -0.073957  0  4.017053  0  0  -0.088659  -0.073342  0  3.982391  0
C  C99  1  0.66328481  0.14576360  0.42825954  1  0  -0.061878  0  3.752954  0  0  -0.073794  0  3.996203  0  0  -0.074065  0  4.016852  0  0  -0.088672  -0.073449  0  3.982173  0
C  C100  1  0.15801712  0.52404176  0.19924865  1  0  -0.077873  0  3.771978  0  0  -0.089055  0  4.017299  0  0  -0.092477  0  4.039396  0  0  -0.094541  -0.086761  0  4.002242  0
C  C101  1  0.34199353  0.80073944  0.47594461  1  0  -0.077988  0  3.771065  0  0  -0.089147  0  4.016501  0  0  -0.092573  0  4.03859  0  0  -0.094571  -0.08685  0  4.001437  0
C  C102  1  0.84197436  0.47595833  0.80074596  1  0  -0.077975  0  3.771575  0  0  -0.089149  0  4.01691  0  0  -0.092571  0  4.039003  0  0  -0.094555  -0.08686  0  4.001869  0
C  C103  1  0.65801703  0.19925306  0.52406411  1  0  -0.077854  0  3.771306  0  0  -0.089015  0  4.016623  0  0  -0.092438  0  4.038713  0  0  -0.094513  -0.086727  0  4.001575  0
C  C104  1  0.01847102  0.55586057  0.18954076  1  0  -0.051248  0  3.753043  0  0  -0.072013  0  3.99309  0  0  -0.072211  0  4.014422  0  0  -0.08203  -0.071681  0  3.978564  0
C  C105  1  0.48154825  0.81045408  0.44413189  1  0  -0.051027  0  3.752809  0  0  -0.071877  0  3.992789  0  0  -0.072051  0  4.014134  0  0  -0.082022  -0.071548  0  3.978276  0
C  C106  1  0.98152370  0.44414258  0.81045110  1  0  -0.051174  0  3.752969  0  0  -0.071927  0  3.993  0  0  -0.072125  0  4.014337  0  0  -0.08202  -0.071601  0  3.978466  0
C  C107  1  0.51846741  0.18954377  0.55587102  1  0  -0.05123  0  3.753224  0  0  -0.072058  0  3.993255  0  0  -0.072237  0  4.014601  0  0  -0.082024  -0.071725  0  3.978732  0
I  I108  1  0.44296481  0.81415297  0.13267673  1  0  -0.276811  0  1.320536  0  0  -0.230349  0  1.683343  0  0  -0.252028  0  1.662897  0  0  -0.118245  -0.215671  0  1.697188  0
I  I109  1  0.05704699  0.86734216  0.18584835  1  0  -0.276866  0  1.320524  0  0  -0.230393  0  1.6833  0  0  -0.252094  0  1.662899  0  0  -0.11831  -0.215713  0  1.697137  0
I  I110  1  0.55703446  0.18585322  0.86733522  1  0  -0.276797  0  1.320595  0  0  -0.230356  0  1.683421  0  0  -0.252036  0  1.66297  0  0  -0.118259  -0.215672  0  1.697256  0
I  I111  1  0.94295216  0.13266404  0.81414895  1  0  -0.27678  0  1.320543  0  0  -0.230336  0  1.683356  0  0  -0.252014  0  1.662907  0  0  -0.118261  -0.215657  0  1.697193  0
I  I112  1  0.75322958  0.10551795  0.14074796  1  0  -0.267217  0  1.344419  0  0  -0.222151  0  1.701369  0  0  -0.24294  0  1.68657  0  0  -0.116652  -0.208287  0  1.711294  0
I  I113  1  0.74676276  0.85925069  0.89448475  1  0  -0.2672  0  1.34437  0  0  -0.222157  0  1.701347  0  0  -0.242942  0  1.686541  0  0  -0.116666  -0.208293  0  1.711265  0
I  I114  1  0.24675850  0.89447528  0.85924581  1  0  -0.267233  0  1.34452  0  0  -0.222165  0  1.701514  0  0  -0.242948  0  1.686701  0  0  -0.116644  -0.208299  0  1.711425  0
I  I115  1  0.25324580  0.14075325  0.10551106  1  0  -0.267206  0  1.344533  0  0  -0.222151  0  1.701508  0  0  -0.242944  0  1.686719  0  0  -0.116645  -0.208287  0  1.711424  0
O  O116  1  0.73181526  0.64778765  0.15357714  1  0  -0.732894  0  2.019043  0  0  -0.663254  0  2.290201  0  0  -0.687436  0  2.275557  0  0  -0.375159  -0.646175  0  2.299628  0
O  O117  1  0.76818379  0.84642591  0.35221374  1  0  -0.732996  0  2.019055  0  0  -0.663309  0  2.290244  0  0  -0.687492  0  2.275598  0  0  -0.375182  -0.646238  0  2.299668  0
O  O118  1  0.26817954  0.35221549  0.84642571  1  0  -0.732854  0  2.018952  0  0  -0.663254  0  2.290191  0  0  -0.687438  0  2.275546  0  0  -0.375171  -0.646182  0  2.299617  0
O  O119  1  0.23182371  0.15357802  0.64778999  1  0  -0.73282  0  2.018997  0  0  -0.663229  0  2.290199  0  0  -0.687415  0  2.275555  0  0  -0.375157  -0.646159  0  2.299624  0
