# generated using pymatgen
data_CuH6C10N3
_symmetry_space_group_name_H-M   'P 1'
_cell_length_a   32.90665066
_cell_length_b   32.93151838
_cell_length_c   33.64202259
_cell_angle_alpha   89.70421044
_cell_angle_beta   92.83116300
_cell_angle_gamma   89.82663620
_symmetry_Int_Tables_number   1
_chemical_formula_structural   CuH6C10N3
_chemical_formula_sum   'Cu12 H72 C120 N36'
_cell_volume   36411.53509639
_cell_formula_units_Z   12
loop_
 _symmetry_equiv_pos_site_id
 _symmetry_equiv_pos_as_xyz
  1  'x, y, z'
loop_
 _atom_site_type_symbol
 _atom_site_label
 _atom_site_symmetry_multiplicity
 _atom_site_fract_x
 _atom_site_fract_y
 _atom_site_fract_z
 _atom_site_occupancy
 _atom_site_pbe_bader_charge
 _atom_site_pbe_bader_spin_density
 _atom_site_pbe_cm5_charge
 _atom_site_pbe_ddec_charge
 _atom_site_pbe_ddec_spin_density
 _atom_site_pbe_ddec_sum_bond_order
 _atom_site_pbe_magmom
Cu  Cu0  1  0.87595002  0.91256442  0.83313086  1  0.541963  0  0.485972  0.204999  0  2.120001  0
Cu  Cu1  1  0.83887877  0.87641383  0.91035160  1  0.540905  0  0.486596  0.204567  0  2.119768  0
Cu  Cu2  1  0.91130938  0.82994754  0.87020616  1  0.54224  0  0.484498  0.205698  0  2.106495  0
Cu  Cu3  1  0.13205074  0.59053014  0.33883161  1  0.541353  0  0.486502  0.204588  0  2.125262  0
Cu  Cu4  1  0.17167277  0.62630399  0.41922192  1  0.541976  0  0.483697  0.205177  0  2.10164  0
Cu  Cu5  1  0.09015086  0.66495018  0.37894531  1  0.541017  0  0.484627  0.205039  0  2.11171  0
Cu  Cu6  1  0.36106563  0.09996980  0.66889707  1  0.542152  0  0.485538  0.20627  0  2.113558  0
Cu  Cu7  1  0.32836248  0.12574183  0.58234795  1  0.543474  0  0.483161  0.203624  0  2.110507  0
Cu  Cu8  1  0.41503605  0.15462136  0.61505805  1  0.542385  0  0.48619  0.206331  0  2.119413  0
Cu  Cu9  1  0.62430006  0.41361359  0.16421341  1  0.543909  0  0.486519  0.205093  0  2.115509  0
Cu  Cu10  1  0.66154064  0.37352097  0.08895474  1  0.541181  0  0.488267  0.204297  0  2.129557  0
Cu  Cu11  1  0.58709047  0.33133103  0.12878078  1  0.54513  0  0.485757  0.204692  0  2.11346  0
H  H12  1  0.81404402  0.98570411  0.81392403  1  0.111353  0  0.121123  0.113327  0  0.989867  0
H  H13  1  0.77340249  0.94448475  0.92776613  1  0.08356  0  0.121573  0.114015  0  0.989592  0
H  H14  1  0.97780719  0.80907615  0.80731190  1  0.096427  0  0.121136  0.113073  0  0.989377  0
H  H15  1  0.93927634  0.92894698  0.76716014  1  0.098353  0  0.120829  0.11243  0  0.989615  0
H  H16  1  0.82214447  0.81610858  0.98125553  1  0.101107  0  0.120718  0.112574  0  0.988714  0
H  H17  1  0.92587486  0.75709598  0.93176614  1  0.09126  0  0.120892  0.112616  0  0.99067  0
H  H18  1  0.19633662  0.52274401  0.32023859  1  0.076865  0  0.120778  0.112123  0  0.99047  0
H  H19  1  0.24504945  0.56341382  0.43513216  1  0.089781  0  0.120989  0.113032  0  0.990368  0
H  H20  1  0.01677918  0.68249316  0.31519468  1  0.10172  0  0.120939  0.112982  0  0.989581  0
H  H21  1  0.06897306  0.57387438  0.26624433  1  0.097363  0  0.120948  0.112491  0  0.990426  0
H  H22  1  0.18693080  0.68691731  0.49172041  1  0.096834  0  0.120813  0.112301  0  0.99036  0
H  H23  1  0.07109893  0.73172698  0.44261284  1  0.102043  0  0.120602  0.111895  0  0.990332  0
H  H24  1  0.29484538  0.03479836  0.69071151  1  0.072709  0  0.120939  0.112864  0  0.990144  0
H  H25  1  0.25972397  0.05841178  0.56695326  1  0.068908  0  0.121375  0.113224  0  0.990393  0
H  H26  1  0.49707171  0.15782086  0.66949051  1  0.106693  0  0.120779  0.112645  0  0.989416  0
H  H27  1  0.41604530  0.09950964  0.74965940  1  0.105195  0  0.120819  0.112203  0  0.989907  0
H  H28  1  0.31205685  0.19015525  0.51149376  1  0.091735  0  0.121251  0.113133  0  0.988956  0
H  H29  1  0.43664947  0.21839585  0.54859058  1  0.073734  0  0.121246  0.113193  0  0.990094  0
H  H30  1  0.68636182  0.48665218  0.17978486  1  0.0982  0  0.121218  0.113174  0  0.990046  0
H  H31  1  0.73096617  0.43678404  0.07124441  1  0.09743  0  0.120845  0.11207  0  0.990995  0
H  H32  1  0.52092358  0.31278602  0.19196450  1  0.093675  0  0.121116  0.112683  0  0.990737  0
H  H33  1  0.56223309  0.43142000  0.23120347  1  0.133778  0  0.121174  0.11284  0  0.990707  0
H  H34  1  0.67708193  0.31174947  0.01970702  1  0.114066  0  0.120902  0.112203  0  0.989651  0
H  H35  1  0.56948846  0.25880981  0.06777416  1  0.098203  0  0.120965  0.112887  0  0.989538  0
H  H36  1  0.70883797  0.08005036  0.93366310  1  0.11295  0  0.104258  0.104269  0  1.009255  0
H  H37  1  0.67852449  0.05932650  0.80985420  1  0.102071  0  0.103733  0.103421  0  1.012226  0
H  H38  1  0.73202818  0.00574553  0.80844602  1  0.083075  0  0.099654  0.100918  0  0.99826  0
H  H39  1  0.76174575  0.02577948  0.93300468  1  0.046305  0  0.099855  0.101187  0  0.999631  0
H  H40  1  0.31568338  0.42771511  0.43570182  1  0.103059  0  0.103869  0.103858  0  1.007937  0
H  H41  1  0.32837538  0.45210974  0.31141981  1  0.086843  0  0.103815  0.103979  0  1.005635  0
H  H42  1  0.27564827  0.50641048  0.31345700  1  0.05941  0  0.099774  0.100654  0  1.000874  0
H  H43  1  0.26422702  0.48307777  0.43862005  1  0.066262  0  0.099628  0.100523  0  0.998447  0
H  H44  1  0.19571612  0.92286997  0.57168643  1  0.127645  0  0.103793  0.103779  0  1.009907  0
H  H45  1  0.16612715  0.95525880  0.69029546  1  0.089273  0  0.103391  0.103398  0  1.008378  0
H  H46  1  0.21611620  0.01183017  0.68986292  1  0.067282  0  0.099469  0.10025  0  0.999806  0
H  H47  1  0.24524406  0.97977431  0.57045320  1  0.05339  0  0.099982  0.100702  0  1.000388  0
H  H48  1  0.80006749  0.57066332  0.06110489  1  0.084389  0  0.104546  0.105086  0  1.004723  0
H  H49  1  0.82097392  0.55698413  0.18749689  1  0.090087  0  0.104382  0.104611  0  1.006702  0
H  H50  1  0.76677302  0.50432087  0.18852940  1  0.063912  0  0.099774  0.100405  0  0.999774  0
H  H51  1  0.74717240  0.51666291  0.06138049  1  0.061809  0  0.100091  0.101641  0  0.999446  0
H  H52  1  0.07211533  0.93217865  0.70421030  1  0.055939  0  0.103562  0.103395  0  1.011837  0
H  H53  1  0.04543878  0.80788164  0.67550367  1  0.094218  0  0.103905  0.104564  0  1.009085  0
H  H54  1  0.99306531  0.80637941  0.72646292  1  0.062164  0  0.099874  0.101372  0  0.998943  0
H  H55  1  0.01933510  0.93141654  0.75473113  1  0.074256  0  0.099546  0.100365  0  1.00008  0
H  H56  1  0.45412685  0.30898430  0.32148938  1  0.086686  0  0.103813  0.10391  0  1.010392  0
H  H57  1  0.43085964  0.43554777  0.29856773  1  0.084885  0  0.104171  0.104434  0  1.010599  0
H  H58  1  0.48301115  0.43584796  0.24741758  1  0.071925  0  0.099922  0.101225  0  0.99986  0
H  H59  1  0.50569312  0.30855051  0.26979822  1  0.049166  0  0.099473  0.100891  0  0.99976  0
H  H60  1  0.94583517  0.69138127  0.17912533  1  0.083252  0  0.104397  0.105519  0  1.004558  0
H  H61  1  0.93185473  0.56280138  0.19538207  1  0.091946  0  0.104228  0.104826  0  1.004085  0
H  H62  1  0.98715301  0.56310263  0.24873085  1  0.051263  0  0.099889  0.101243  0  0.99955  0
H  H63  1  0.99950418  0.69253057  0.23401963  1  0.067587  0  0.100072  0.101618  0  0.998014  0
H  H64  1  0.51842175  0.14953513  0.85405967  1  0.075786  0  0.1037  0.10376  0  1.007165  0
H  H65  1  0.60426993  0.10923842  0.77053733  1  0.077522  0  0.103404  0.103042  0  1.008178  0
H  H66  1  0.54985079  0.11033561  0.71638480  1  0.061052  0  0.099603  0.100547  0  0.999353  0
H  H67  1  0.46318677  0.14857159  0.80066757  1  0.038215  0  0.09973  0.101074  0  0.999139  0
H  H68  1  0.93876296  0.68993038  0.06561748  1  0.107793  0  0.10446  0.105238  0  1.003788  0
H  H69  1  0.80833514  0.68419729  0.05342838  1  0.077831  0  0.104621  0.105661  0  1.002581  0
H  H70  1  0.80817178  0.73688659  0.00003966  1  0.054754  0  0.099814  0.100488  0  0.999074  0
H  H71  1  0.93920169  0.74077830  0.01055696  1  0.095672  0  0.100019  0.100812  0  0.999376  0
H  H72  1  0.31837789  0.32568449  0.44301177  1  0.091559  0  0.104153  0.103875  0  1.011125  0
H  H73  1  0.43978988  0.28895893  0.41820975  1  0.059123  0  0.104101  0.104355  0  1.007851  0
H  H74  1  0.43743037  0.23476258  0.46996422  1  0.024942  0  0.099478  0.100657  0  1.000473  0
H  H75  1  0.31508584  0.27092499  0.49404400  1  0.054165  0  0.099991  0.101019  0  0.998734  0
H  H76  1  0.55873378  0.18913098  0.93501341  1  0.083172  0  0.103663  0.103246  0  1.008234  0
H  H77  1  0.68902895  0.18216022  0.94879313  1  0.088508  0  0.104293  0.104829  0  1.007212  0
H  H78  1  0.68867181  0.23444031  0.00198172  1  0.061151  0  0.099849  0.100805  0  1.000425  0
H  H79  1  0.55773930  0.24000082  0.98946351  1  0.038844  0  0.100079  0.101164  0  0.9988  0
H  H80  1  0.18872142  0.81950487  0.56464895  1  0.09033  0  0.104127  0.104887  0  1.006173  0
H  H81  1  0.06098328  0.79752799  0.57422483  1  0.082191  0  0.103687  0.103646  0  1.005949  0
H  H82  1  0.06292177  0.74586941  0.52059565  1  0.063259  0  0.099377  0.100283  0  0.99979  0
H  H83  1  0.19155548  0.76658273  0.51234643  1  0.049457  0  0.099746  0.100733  0  1.000267  0
C  C84  1  0.35507168  0.40308151  0.37206500  1  1.108806  0  0.253778  0.385647  0  4.031909  0
C  C85  1  0.38069346  0.34365530  0.39763047  1  1.070546  0  0.253404  0.385462  0  4.028604  0
C  C86  1  0.40851635  0.37253988  0.34375204  1  1.064716  0  0.252885  0.38554  0  4.02214  0
C  C87  1  0.65765724  0.10362426  0.87285529  1  1.065483  0  0.253928  0.386822  0  4.030085  0
C  C88  1  0.59728789  0.12869874  0.84744163  1  1.055012  0  0.253  0.385847  0  4.026558  0
C  C89  1  0.62458854  0.15278342  0.90597737  1  1.062646  0  0.253872  0.38811  0  4.026526  0
C  C90  1  0.84563134  0.59837852  0.12398341  1  1.062594  0  0.253818  0.386612  0  4.027709  0
C  C91  1  0.87376146  0.65344352  0.09515070  1  1.056046  0  0.254154  0.38867  0  4.024015  0
C  C92  1  0.90315247  0.62653664  0.15198648  1  1.073855  0  0.254247  0.387193  0  4.026269  0
C  C93  1  0.14838242  0.90175362  0.63110999  1  1.069814  0  0.253032  0.385233  0  4.028581  0
C  C94  1  0.09346382  0.87111681  0.65681066  1  1.06943  0  0.25322  0.384971  0  4.024102  0
C  C95  1  0.12310654  0.84353189  0.60350373  1  1.079572  0  0.254078  0.386828  0  4.027978  0
C  C96  1  0.80858645  0.97010469  0.84164023  1  0.364329  0  0.006333  -0.0547  0  3.96438  0
C  C97  1  0.78085300  0.97931644  0.87072449  1  0.003877  0  -0.035209  -0.036794  0  4.090274  0
C  C98  1  0.78853293  0.94960180  0.90024205  1  0.427598  0  0.006264  -0.056298  0  3.965661  0
C  C99  1  0.96314206  0.83829318  0.80194639  1  0.39351  0  0.006501  -0.053897  0  3.95878  0
C  C100  1  0.97168543  0.86871064  0.77417502  1  0.009213  0  -0.034689  -0.035912  0  4.089181  0
C  C101  1  0.94409870  0.89990769  0.78209136  1  0.373605  0  0.005278  -0.055723  0  3.964526  0
C  C102  1  0.84726822  0.80633754  0.96384707  1  0.4076  0  0.005784  -0.056112  0  3.963386  0
C  C103  1  0.87384593  0.77323368  0.96997908  1  -0.014643  0  -0.035284  -0.035933  0  4.091108  0
C  C104  1  0.90084730  0.77677041  0.93912276  1  0.404203  0  0.006221  -0.054346  0  3.964443  0
C  C105  1  0.20346975  0.53800218  0.34822484  1  0.4072  0  0.005987  -0.054492  0  3.964583  0
C  C106  1  0.23457666  0.52983017  0.37724992  1  0.02559  0  -0.035218  -0.03666  0  4.089965  0
C  C107  1  0.22777810  0.55813480  0.40733001  1  0.385795  0  0.006063  -0.055444  0  3.963034  0
C  C108  1  0.03496370  0.65622018  0.30804927  1  0.352846  0  0.005695  -0.056008  0  3.96204  0
C  C109  1  0.02913425  0.62817572  0.27700021  1  0.045081  0  -0.03507  -0.036307  0  4.088922  0
C  C110  1  0.06102672  0.60017154  0.28360259  1  0.368348  0  0.005827  -0.055221  0  3.96614  0
C  C111  1  0.15895273  0.69338236  0.47437055  1  0.389936  0  0.005748  -0.054701  0  3.962829  0
C  C112  1  0.12855087  0.72226521  0.48095757  1  -0.023248  0  -0.034757  -0.036551  0  4.088903  0
C  C113  1  0.09934670  0.71561103  0.44983804  1  0.433807  0  0.005869  -0.054287  0  3.963904  0
C  C114  1  0.29066671  0.04613108  0.66042275  1  0.425944  0  0.006605  -0.053172  0  3.96223  0
C  C115  1  0.26402313  0.03277301  0.62934705  1  0.011124  0  -0.034807  -0.036435  0  4.086911  0
C  C116  1  0.27343558  0.05755349  0.59696109  1  0.431572  0  0.006339  -0.055003  0  3.961495  0
C  C117  1  0.47225137  0.14302215  0.68388604  1  0.368727  0  0.005782  -0.05555  0  3.966827  0
C  C118  1  0.47036763  0.12898577  0.72322473  1  0.057986  0  -0.034126  -0.035122  0  4.088714  0
C  C119  1  0.43052226  0.11423285  0.72514599  1  0.395635  0  0.005962  -0.054049  0  3.9642  0
C  C120  1  0.34223959  0.19237527  0.52584092  1  0.412602  0  0.006559  -0.053762  0  3.958045  0
C  C121  1  0.37484444  0.21757667  0.51652772  1  0.021377  0  -0.034891  -0.037081  0  4.088747  0
C  C122  1  0.40621282  0.20609016  0.54414576  1  0.393403  0  0.006376  -0.054723  0  3.968271  0
C  C123  1  0.69260384  0.46908937  0.15355987  1  0.404541  0  0.006198  -0.055118  0  3.966339  0
C  C124  1  0.72203588  0.47535018  0.12534994  1  0.046112  0  -0.035309  -0.037235  0  4.093214  0
C  C125  1  0.71476446  0.44421601  0.09758982  1  0.391893  0  0.006772  -0.053029  0  3.964416  0
C  C126  1  0.53618376  0.34160681  0.19701591  1  0.404919  0  0.006499  -0.05463  0  3.964636  0
C  C127  1  0.52847371  0.37210941  0.22469767  1  0.010994  0  -0.034682  -0.034744  0  4.089612  0
C  C128  1  0.55664054  0.40259265  0.21645731  1  0.366196  0  0.005597  -0.056487  0  3.963854  0
C  C129  1  0.65113619  0.30347658  0.03669156  1  0.360525  0  0.006368  -0.053854  0  3.964097  0
C  C130  1  0.62314296  0.27178355  0.03048490  1  0.044402  0  -0.035481  -0.037818  0  4.093534  0
C  C131  1  0.59561167  0.27701486  0.06064533  1  0.385727  0  0.006532  -0.054164  0  3.960044  0
C  C132  1  0.71413423  0.06347909  0.90644125  1  -0.061461  0  -0.083626  -0.093834  0  3.984008  0
C  C133  1  0.69045012  0.07310159  0.87174895  1  0.014615  0  -0.012756  -0.002916  0  3.983369  0
C  C134  1  0.69741136  0.05211194  0.83648212  1  -0.07688  0  -0.083843  -0.095363  0  3.990596  0
C  C135  1  0.72730544  0.02226905  0.83587536  1  -0.056729  0  -0.094075  -0.140444  0  3.988407  0
C  C136  1  0.75056562  0.01186300  0.87071408  1  -0.000475  0  -0.002708  0.100001  0  4.036214  0
C  C137  1  0.74345941  0.03306851  0.90594735  1  -0.015359  0  -0.09504  -0.142917  0  3.994435  0
C  C138  1  0.30696334  0.44550430  0.40922471  1  -0.030009  0  -0.084009  -0.096411  0  3.98834  0
C  C139  1  0.32513622  0.43641431  0.37340684  1  -0.079123  0  -0.011922  -0.00141  0  3.984545  0
C  C140  1  0.31388382  0.45895678  0.33905981  1  -0.008989  0  -0.083234  -0.095361  0  3.988118  0
C  C141  1  0.28438960  0.48917711  0.34034271  1  -0.06263  0  -0.095384  -0.142345  0  3.989993  0
C  C142  1  0.26605855  0.49850725  0.37615061  1  0.006336  0  -0.003862  0.098666  0  4.033539  0
C  C143  1  0.27830063  0.47645342  0.41067467  1  -0.00976  0  -0.094344  -0.140259  0  3.989883  0
C  C144  1  0.20027551  0.94276528  0.59728079  1  -0.094072  0  -0.083549  -0.093556  0  3.984545  0
C  C145  1  0.17783662  0.93545333  0.63103604  1  -0.019095  0  -0.012316  -0.003966  0  3.981287  0
C  C146  1  0.18381801  0.96079120  0.66427148  1  -0.02617  0  -0.083719  -0.095755  0  3.988612  0
C  C147  1  0.21186472  0.99227668  0.66390171  1  -0.040271  0  -0.094951  -0.140851  0  3.990231  0
C  C148  1  0.23428574  0.99992567  0.63006443  1  0.017525  0  -0.002772  0.098797  0  4.034389  0
C  C149  1  0.22772571  0.97467961  0.59671434  1  -0.05372  0  -0.09562  -0.141801  0  3.990761  0
C  C150  1  0.79275489  0.55562755  0.08877621  1  0.011167  0  -0.083115  -0.094648  0  3.986887  0
C  C151  1  0.81377580  0.56705191  0.12427944  1  -0.039204  0  -0.012895  -0.002781  0  3.987373  0
C  C152  1  0.80425403  0.54816888  0.16014106  1  -0.014683  0  -0.08327  -0.095003  0  3.98815  0
C  C153  1  0.77399428  0.51887522  0.16054223  1  -0.053778  0  -0.095167  -0.141596  0  3.992375  0
C  C154  1  0.75322537  0.50677283  0.12499914  1  -0.060262  0  -0.003351  0.099634  0  4.036546  0
C  C155  1  0.76331466  0.52548597  0.08909627  1  -0.017554  0  -0.095254  -0.143227  0  3.991253  0
C  C156  1  0.05437934  0.90489257  0.70917010  1  0.006354  0  -0.083359  -0.093986  0  3.989296  0
C  C157  1  0.06209341  0.87012568  0.68668262  1  0.030294  0  -0.012885  -0.003399  0  3.981179  0
C  C158  1  0.03962650  0.83469880  0.69322545  1  -0.077913  0  -0.083624  -0.096018  0  3.984035  0
C  C159  1  0.01051509  0.83398800  0.72183441  1  -0.002305  0  -0.094432  -0.140622  0  3.989734  0
C  C160  1  0.00244879  0.86882613  0.74426162  1  0.042333  0  -0.002932  0.098216  0  4.035749  0
C  C161  1  0.02480583  0.90432391  0.73721332  1  -0.119275  0  -0.095732  -0.14196  0  3.993001  0
C  C162  1  0.46050542  0.33654006  0.30486972  1  -0.029862  0  -0.084438  -0.09643  0  3.989093  0
C  C163  1  0.43922617  0.37228774  0.31324857  1  0.014722  0  -0.012852  -0.002629  0  3.98034  0
C  C164  1  0.44768089  0.40798248  0.29217517  1  -0.103474  0  -0.0847  -0.096453  0  3.989621  0
C  C165  1  0.47691361  0.40798794  0.26376231  1  -0.002475  0  -0.094622  -0.140964  0  3.993548  0
C  C166  1  0.49807977  0.37218241  0.25492131  1  0.019761  0  -0.00335  0.097953  0  4.037991  0
C  C167  1  0.48917045  0.33643589  0.27589230  1  -0.038223  0  -0.094393  -0.141112  0  3.992473  0
C  C168  1  0.95482609  0.66353200  0.19490185  1  -0.073792  0  -0.083203  -0.096706  0  3.988595  0
C  C169  1  0.93549711  0.62703908  0.18393053  1  0.040118  0  -0.012213  -0.001046  0  3.985182  0
C  C170  1  0.94724329  0.59096320  0.20380189  1  -0.04206  0  -0.084077  -0.096823  0  3.987097  0
C  C171  1  0.97810418  0.59130854  0.23353694  1  -0.049004  0  -0.094485  -0.141445  0  3.990363  0
C  C172  1  0.99715921  0.62787626  0.24520656  1  0.002842  0  -0.004122  0.097912  0  4.033297  0
C  C173  1  0.98474287  0.66400453  0.22556224  1  -0.004358  0  -0.094332  -0.141003  0  3.990544  0
C  C174  1  0.52485727  0.14048984  0.82389004  1  -0.017673  0  -0.083408  -0.095525  0  3.988712  0
C  C175  1  0.56473853  0.12922755  0.81565918  1  0.052542  0  -0.011101  -0.000242  0  3.984623  0
C  C176  1  0.57332259  0.11824994  0.77667857  1  -0.094475  0  -0.084516  -0.096391  0  3.991735  0
C  C177  1  0.54284912  0.11892069  0.74658153  1  -0.008752  0  -0.094488  -0.14086  0  3.991998  0
C  C178  1  0.50259434  0.12931771  0.75476525  1  -0.036433  0  -0.003207  0.098293  0  4.033902  0
C  C179  1  0.49414015  0.13989671  0.79400051  1  -0.035719  0  -0.0952  -0.141966  0  3.99129  0
C  C180  1  0.91037485  0.70010825  0.05067735  1  -0.085898  0  -0.084092  -0.097514  0  3.988293  0
C  C181  1  0.87357538  0.68394316  0.06289875  1  0.00271  0  -0.012257  -0.001319  0  3.987994  0
C  C182  1  0.83681324  0.69713509  0.04410251  1  -0.02854  0  -0.084175  -0.098476  0  3.988699  0
C  C183  1  0.83688922  0.72654557  0.01430312  1  -0.039037  0  -0.093873  -0.138526  0  3.988991  0
C  C184  1  0.87369150  0.74252346  0.00150233  1  0.016117  0  -0.004229  0.096026  0  4.038504  0
C  C185  1  0.91044257  0.72845992  0.01994564  1  -0.062719  0  -0.094692  -0.139976  0  3.990708  0
C  C186  1  0.34410156  0.30526480  0.44894117  1  -0.017929  0  -0.083618  -0.094064  0  3.986118  0
C  C187  1  0.37923435  0.31075375  0.42744667  1  -0.041874  0  -0.012704  -0.00391  0  3.982999  0
C  C188  1  0.41271055  0.28486475  0.43517272  1  0.052814  0  -0.084009  -0.095  0  3.988788  0
C  C189  1  0.41126906  0.25474369  0.46417280  1  -0.051457  0  -0.095158  -0.143579  0  3.990608  0
C  C190  1  0.37610982  0.24897385  0.48574446  1  -0.047512  0  -0.003424  0.100111  0  4.032732  0
C  C191  1  0.34242144  0.27459446  0.47730608  1  0.009299  0  -0.094859  -0.141526  0  3.989939  0
C  C192  1  0.58695752  0.19882694  0.95035239  1  -0.028099  0  -0.08396  -0.095242  0  3.988953  0
C  C193  1  0.62388849  0.18236138  0.93866808  1  -0.035873  0  -0.011563  -0.002112  0  3.985512  0
C  C194  1  0.66046368  0.19524019  0.95779864  1  -0.050356  0  -0.084098  -0.09635  0  3.990887  0
C  C195  1  0.66009654  0.22447220  0.98738829  1  0.010142  0  -0.095011  -0.141419  0  3.994041  0
C  C196  1  0.62316834  0.24088017  0.99952189  1  -0.012454  0  -0.003821  0.098571  0  4.038579  0
C  C197  1  0.58658618  0.22721101  0.98075275  1  -0.041975  0  -0.09445  -0.140901  0  3.989903  0
C  C198  1  0.16142609  0.80283725  0.55508884  1  0.031055  0  -0.083925  -0.097176  0  3.989715  0
C  C199  1  0.12468361  0.81183053  0.57274763  1  -0.060247  0  -0.011684  -0.001358  0  3.986209  0
C  C200  1  0.08936516  0.79072410  0.56022105  1  -0.046507  0  -0.08421  -0.096941  0  3.989475  0
C  C201  1  0.09060891  0.76195838  0.53020134  1  -0.034702  0  -0.094685  -0.140439  0  3.988331  0
C  C202  1  0.12737852  0.75252691  0.51255513  1  0.005675  0  -0.003966  0.098089  0  4.032745  0
C  C203  1  0.16283115  0.77323093  0.52587846  1  -0.05941  0  -0.094859  -0.141007  0  3.991034  0
N  N204  1  0.35330128  0.37386378  0.40000133  1  -1.214504  0  -0.31573  -0.422922  0  3.21796  0
N  N205  1  0.40902998  0.34163255  0.37017752  1  -1.221639  0  -0.315742  -0.424071  0  3.2053  0
N  N206  1  0.38195420  0.40379613  0.34321318  1  -1.210364  0  -0.31644  -0.425145  0  3.206509  0
N  N207  1  0.62948934  0.10428894  0.84244074  1  -1.196363  0  -0.316115  -0.424659  0  3.210454  0
N  N208  1  0.59268306  0.15253360  0.87931077  1  -1.184358  0  -0.316474  -0.4257  0  3.200475  0
N  N209  1  0.65733720  0.12836588  0.90455712  1  -1.195224  0  -0.316961  -0.426775  0  3.214343  0
N  N210  1  0.84363573  0.62587194  0.09417073  1  -1.201362  0  -0.316102  -0.425637  0  3.202132  0
N  N211  1  0.90419113  0.65518855  0.12336102  1  -1.187435  0  -0.316929  -0.426788  0  3.199513  0
N  N212  1  0.87471268  0.59737683  0.15355902  1  -1.202027  0  -0.316206  -0.424587  0  3.206821  0
N  N213  1  0.12017948  0.90204403  0.65871453  1  -1.215006  0  -0.31541  -0.422321  0  3.212014  0
N  N214  1  0.09337111  0.84130374  0.62952765  1  -1.181217  0  -0.317357  -0.425963  0  3.202147  0
N  N215  1  0.15143107  0.87289240  0.60317705  1  -1.200018  0  -0.315366  -0.423507  0  3.211712  0
N  N216  1  0.81840297  0.92450595  0.88938515  1  -0.77298  0  -0.339021  -0.137895  0  3.774633  0
N  N217  1  0.83119597  0.93750785  0.85322800  1  -0.774764  0  -0.338816  -0.140283  0  3.774596  0
N  N218  1  0.92079077  0.88874981  0.81209660  1  -0.770356  0  -0.338737  -0.138575  0  3.775097  0
N  N219  1  0.93292100  0.85067926  0.82477257  1  -0.773427  0  -0.337472  -0.140332  0  3.765593  0
N  N220  1  0.89089212  0.80943224  0.91626617  1  -0.78415  0  -0.337779  -0.14025  0  3.772991  0
N  N221  1  0.85788507  0.82802351  0.93188292  1  -0.764283  0  -0.339064  -0.138037  0  3.776515  0
N  N222  1  0.19519892  0.58148834  0.39678043  1  -0.764217  0  -0.335762  -0.137488  0  3.766206  0
N  N223  1  0.17988355  0.56867371  0.36026205  1  -0.771688  0  -0.340219  -0.140309  0  3.777967  0
N  N224  1  0.08415805  0.61092647  0.31602433  1  -0.76283  0  -0.3397  -0.13966  0  3.779719  0
N  N225  1  0.06775067  0.64546790  0.33146495  1  -0.769365  0  -0.338  -0.138812  0  3.770332  0
N  N226  1  0.11160513  0.68524874  0.42644542  1  -0.783445  0  -0.338228  -0.139907  0  3.773844  0
N  N227  1  0.14844023  0.67113163  0.44191475  1  -0.761772  0  -0.336716  -0.138524  0  3.768032  0
N  N228  1  0.30324773  0.08375042  0.60806603  1  -0.781649  0  -0.3368  -0.137535  0  3.765616  0
N  N229  1  0.31423889  0.07637123  0.64740671  1  -0.767903  0  -0.338672  -0.141494  0  3.765834  0
N  N230  1  0.41033360  0.11900994  0.68954486  1  -0.780069  0  -0.338378  -0.139272  0  3.768087  0
N  N231  1  0.43614591  0.13721296  0.66401892  1  -0.769099  0  -0.339568  -0.141628  0  3.7728  0
N  N232  1  0.39316558  0.17645022  0.56814492  1  -0.778265  0  -0.339563  -0.14052  0  3.772875  0
N  N233  1  0.35354797  0.16763426  0.55654145  1  -0.761379  0  -0.336897  -0.138541  0  3.763658  0
N  N234  1  0.68350400  0.42107523  0.10866553  1  -0.788286  0  -0.340173  -0.139532  0  3.781906  0
N  N235  1  0.66946916  0.43674719  0.14317275  1  -0.783412  0  -0.338586  -0.138865  0  3.776256  0
N  N236  1  0.57945801  0.39094284  0.18629534  1  -0.772204  0  -0.33786  -0.136771  0  3.771673  0
N  N237  1  0.56645712  0.35325471  0.17392658  1  -0.783374  0  -0.338686  -0.139941  0  3.772709  0
N  N238  1  0.60663328  0.30929122  0.08319209  1  -0.757419  0  -0.337977  -0.138653  0  3.771938  0
N  N239  1  0.64084659  0.32593975  0.06803866  1  -0.78186  0  -0.339824  -0.138606  0  3.780521  0
