# generated using pymatgen
data_CuPH20C24IN
_symmetry_space_group_name_H-M   'P 1'
_cell_length_a   9.40900114
_cell_length_b   10.02164904
_cell_length_c   12.41633309
_cell_angle_alpha   105.36277907
_cell_angle_beta   108.63843151
_cell_angle_gamma   97.46687510
_symmetry_Int_Tables_number   1
_chemical_formula_structural   CuPH20C24IN
_chemical_formula_sum   'Cu2 P2 H40 C48 I2 N2'
_cell_volume   1039.80821485
_cell_formula_units_Z   2
loop_
 _symmetry_equiv_pos_site_id
 _symmetry_equiv_pos_as_xyz
  1  'x, y, z'
loop_
 _atom_site_type_symbol
 _atom_site_label
 _atom_site_symmetry_multiplicity
 _atom_site_fract_x
 _atom_site_fract_y
 _atom_site_fract_z
 _atom_site_occupancy
 _atom_site_hle17_bader_spin_density
 _atom_site_hle17_ddec_charge
 _atom_site_hle17_ddec_spin_density
 _atom_site_hle17_ddec_sum_bond_order
 _atom_site_hle17_magmom
 _atom_site_hse06_10hf_bader_spin_density
 _atom_site_hse06_10hf_ddec_charge
 _atom_site_hse06_10hf_ddec_spin_density
 _atom_site_hse06_10hf_ddec_sum_bond_order
 _atom_site_hse06_10hf_magmom
 _atom_site_hse06_bader_spin_density
 _atom_site_hse06_ddec_charge
 _atom_site_hse06_ddec_spin_density
 _atom_site_hse06_ddec_sum_bond_order
 _atom_site_hse06_magmom
 _atom_site_pbe_bader_spin_density
 _atom_site_pbe_cm5_charge
 _atom_site_pbe_ddec_charge
 _atom_site_pbe_ddec_spin_density
 _atom_site_pbe_ddec_sum_bond_order
 _atom_site_pbe_magmom
Cu  Cu0  1  0.36115127  0.46918454  0.40668532  1  0  0.154493  0  2.333297  0  0  0.079213  0  2.813863  0  0  0.080716  0  2.769737  0  0  0.333841  0.081838  0  2.839312  0
Cu  Cu1  1  0.63884830  0.53081527  0.59331542  1  0  0.154526  0  2.333288  0  0  0.079259  0  2.813845  0  0  0.080739  0  2.769714  0  0  0.333853  0.08189  0  2.839313  0
P  P2  1  0.24524207  0.28007757  0.24433020  1  0  0.309493  0  3.77176  0  0  0.242027  0  4.237769  0  0  0.260358  0  4.223841  0  0  -0.039872  0.230205  0  4.246249  0
P  P3  1  0.75475862  0.71992225  0.75567081  1  0  0.309489  0  3.771748  0  0  0.242029  0  4.237788  0  0  0.260371  0  4.223848  0  0  -0.039864  0.230197  0  4.246291  0
H  H4  1  0.33095520  0.70513520  0.31002244  1  0  0.069753  0  0.98068  0  0  0.076191  0  1.050124  0  0  0.078936  0  1.048077  0  0  0.100533  0.074259  0  1.051637  0
H  H5  1  0.66904297  0.29486352  0.68997532  1  0  0.069764  0  0.980719  0  0  0.076184  0  1.050167  0  0  0.078923  0  1.04813  0  0  0.100529  0.074247  0  1.051684  0
H  H6  1  0.20866975  0.91113956  0.32851198  1  0  0.100819  0  0.98096  0  0  0.110398  0  1.045022  0  0  0.112532  0  1.046435  0  0  0.102556  0.108723  0  1.044538  0
H  H7  1  0.79133119  0.08886130  0.67148690  1  0  0.100867  0  0.980947  0  0  0.110443  0  1.045002  0  0  0.112577  0  1.046414  0  0  0.10258  0.108769  0  1.04452  0
H  H8  1  0.01160277  0.75696062  0.55657257  1  0  0.103973  0  0.975903  0  0  0.112929  0  1.040049  0  0  0.115292  0  1.041059  0  0  0.100315  0.110897  0  1.040202  0
H  H9  1  0.98839455  0.24303916  0.44342602  1  0  0.103993  0  0.975974  0  0  0.112945  0  1.040119  0  0  0.115311  0  1.041126  0  0  0.100329  0.110911  0  1.040271  0
H  H10  1  0.14405139  0.56000394  0.52933856  1  0  0.071675  0  0.972548  0  0  0.078839  0  1.042399  0  0  0.081456  0  1.040563  0  0  0.099954  0.076246  0  1.044639  0
H  H11  1  0.85594453  0.43999477  0.47065867  1  0  0.071614  0  0.972577  0  0  0.078772  0  1.042446  0  0  0.081386  0  1.040613  0  0  0.099938  0.076171  0  1.044694  0
H  H12  1  0.07049724  0.05502915  0.41912108  1  0  0.090089  0  0.96946  0  0  0.100164  0  1.034818  0  0  0.102943  0  1.033853  0  0  0.097781  0.097012  0  1.038171  0
H  H13  1  0.92950397  0.94497278  0.58087890  1  0  0.090116  0  0.969395  0  0  0.100153  0  1.034784  0  0  0.102932  0  1.033817  0  0  0.097753  0.097003  0  1.038138  0
H  H14  1  0.01334410  0.43671114  0.25119602  1  0  0.088284  0  0.97251  0  0  0.098721  0  1.03502  0  0  0.101065  0  1.034648  0  0  0.097428  0.097052  0  1.035519  0
H  H15  1  0.98665607  0.56328655  0.74880442  1  0  0.088294  0  0.972524  0  0  0.098734  0  1.035028  0  0  0.101081  0  1.034654  0  0  0.097419  0.097063  0  1.035529  0
H  H16  1  0.73824987  0.37348663  0.22302217  1  0  0.08214  0  0.979479  0  0  0.089985  0  1.048289  0  0  0.093066  0  1.046838  0  0  0.09061  0.087411  0  1.050079  0
H  H17  1  0.26175003  0.62650999  0.77697799  1  0  0.082096  0  0.979507  0  0  0.089963  0  1.048297  0  0  0.093044  0  1.046845  0  0  0.09061  0.087389  0  1.050085  0
H  H18  1  0.60830143  0.11993904  0.17778935  1  0  0.085992  0  0.980076  0  0  0.097099  0  1.041229  0  0  0.09865  0  1.042732  0  0  0.096621  0.094801  0  1.042659  0
H  H19  1  0.39169509  0.88005755  0.82220838  1  0  0.08601  0  0.980046  0  0  0.097124  0  1.041183  0  0  0.098676  0  1.04269  0  0  0.096626  0.094825  0  1.042612  0
H  H20  1  0.75801411  0.93307923  0.16251554  1  0  0.086141  0  0.9727  0  0  0.096253  0  1.034909  0  0  0.097992  0  1.036203  0  0  0.097007  0.095233  0  1.033256  0
H  H21  1  0.24198576  0.06691736  0.83748057  1  0  0.086145  0  0.972708  0  0  0.096277  0  1.034898  0  0  0.098017  0  1.036191  0  0  0.097011  0.095258  0  1.033248  0
H  H22  1  0.03171087  0.99555064  0.18725778  1  0  0.084671  0  0.983863  0  0  0.093691  0  1.05117  0  0  0.095702  0  1.051662  0  0  0.09499  0.091767  0  1.052155  0
H  H23  1  0.96828788  0.00444596  0.81273887  1  0  0.084638  0  0.983928  0  0  0.093636  0  1.051253  0  0  0.09565  0  1.051744  0  0  0.094968  0.091713  0  1.052236  0
H  H24  1  0.47588262  0.20705524  0.42267018  1  0  0.080886  0  1.015031  0  0  0.084153  0  1.093749  0  0  0.087937  0  1.09082  0  0  0.083694  0.081721  0  1.095072  0
H  H25  1  0.52411944  0.79294564  0.57732897  1  0  0.080884  0  1.015028  0  0  0.084152  0  1.093749  0  0  0.087938  0  1.090817  0  0  0.0837  0.081722  0  1.095073  0
H  H26  1  0.59437543  0.99742561  0.41563054  1  0  0.08745  0  0.967561  0  0  0.098718  0  1.027464  0  0  0.100734  0  1.028449  0  0  0.095736  0.096912  0  1.027889  0
H  H27  1  0.40562552  0.00257527  0.58437077  1  0  0.087456  0  0.967521  0  0  0.098718  0  1.027437  0  0  0.100731  0  1.028432  0  0  0.095737  0.096912  0  1.027861  0
H  H28  1  0.51266487  0.79709585  0.22556685  1  0  0.083544  0  0.967702  0  0  0.092868  0  1.032235  0  0  0.095926  0  1.030647  0  0  0.093541  0.090849  0  1.032886  0
H  H29  1  0.48733642  0.20290185  0.77443467  1  0  0.083537  0  0.967748  0  0  0.092879  0  1.03226  0  0  0.095927  0  1.030681  0  0  0.093556  0.090861  0  1.032912  0
H  H30  1  0.30820398  0.80363326  0.04013405  1  0  0.086726  0  0.966963  0  0  0.098348  0  1.025825  0  0  0.100608  0  1.026077  0  0  0.09722  0.097096  0  1.025061  0
H  H31  1  0.69179810  0.19636762  0.95986753  1  0  0.086733  0  0.966927  0  0  0.098356  0  1.025784  0  0  0.100617  0  1.026035  0  0  0.097221  0.097103  0  1.02502  0
H  H32  1  0.19005020  0.01051342  0.04735147  1  0  0.089831  0  0.972927  0  0  0.099962  0  1.036792  0  0  0.101673  0  1.03785  0  0  0.097703  0.09895  0  1.035768  0
H  H33  1  0.80995273  0.98948640  0.95264847  1  0  0.089834  0  0.972916  0  0  0.09996  0  1.036787  0  0  0.101671  0  1.037853  0  0  0.097688  0.098942  0  1.035768  0
H  H34  1  0.47960579  0.31840948  0.14697978  1  0  0.084899  0  0.97634  0  0  0.096323  0  1.040899  0  0  0.098798  0  1.039956  0  0  0.093536  0.094206  0  1.042464  0
H  H35  1  0.52039291  0.68159138  0.85301936  1  0  0.084926  0  0.976301  0  0  0.096323  0  1.040892  0  0  0.098799  0  1.039949  0  0  0.093533  0.094204  0  1.042463  0
H  H36  1  0.48388923  0.35995441  0.95997552  1  0  0.084818  0  0.959487  0  0  0.098054  0  1.01685  0  0  0.100239  0  1.016653  0  0  0.098545  0.096324  0  1.017345  0
H  H37  1  0.51610861  0.64004750  0.04002365  1  0  0.084798  0  0.959572  0  0  0.098048  0  1.016911  0  0  0.100233  0  1.016715  0  0  0.098552  0.096317  0  1.017408  0
H  H38  1  0.24343110  0.37551732  0.80843489  1  0  0.086128  0  0.967842  0  0  0.09483  0  1.033345  0  0  0.097738  0  1.032565  0  0  0.089123  0.092829  0  1.033845  0
H  H39  1  0.75656339  0.62448459  0.19156507  1  0  0.086136  0  0.967861  0  0  0.09484  0  1.033369  0  0  0.09775  0  1.03258  0  0  0.089122  0.09283  0  1.033875  0
H  H40  1  0.99903701  0.35351810  0.84885313  1  0  0.079218  0  0.975476  0  0  0.090784  0  1.035541  0  0  0.092894  0  1.035716  0  0  0.092766  0.08909  0  1.036047  0
H  H41  1  0.00096059  0.64648277  0.15114817  1  0  0.079211  0  0.975497  0  0  0.090774  0  1.035562  0  0  0.092883  0  1.035737  0  0  0.092763  0.089081  0  1.036068  0
H  H42  1  0.99311836  0.30685933  0.03279719  1  0  0.083402  0  0.983694  0  0  0.093925  0  1.047761  0  0  0.09593  0  1.048298  0  0  0.094219  0.092454  0  1.047312  0
H  H43  1  0.00688148  0.69314155  0.96720465  1  0  0.08336  0  0.983765  0  0  0.093888  0  1.04781  0  0  0.095896  0  1.048346  0  0  0.094207  0.09242  0  1.047359  0
C  C44  1  0.25785358  0.72040530  0.36270060  1  0  0.107247  0  3.717077  0  0  0.079901  0  3.962827  0  0  0.086611  0  3.978136  0  0  0.029917  0.073001  0  3.955568  0
C  C45  1  0.74214770  0.27959238  0.63729849  1  0  0.107282  0  3.717149  0  0  0.079968  0  3.962899  0  0  0.08668  0  3.97821  0  0  0.02994  0.073083  0  3.955621  0
C  C46  1  0.18926526  0.83492254  0.37358474  1  0  -0.162296  0  3.7123  0  0  -0.176077  0  3.951938  0  0  -0.183293  0  3.972034  0  0  -0.083195  -0.172226  0  3.940954  0
C  C47  1  0.81073457  0.16507832  0.62641467  1  0  -0.162401  0  3.712392  0  0  -0.176186  0  3.952003  0  0  -0.183403  0  3.972099  0  0  -0.08325  -0.17234  0  3.941025  0
C  C48  1  0.10060537  0.85548672  0.44631629  1  0  0.129196  0  3.802905  0  0  0.143523  0  4.03226  0  0  0.149853  0  4.051596  0  0  0.003365  0.138996  0  4.019444  0
C  C49  1  0.89939610  0.14451627  0.55368236  1  0  0.129253  0  3.802809  0  0  0.143621  0  4.032069  0  0  0.149954  0  4.051406  0  0  0.003388  0.139093  0  4.019257  0
C  C50  1  0.08038628  0.75093606  0.50034630  1  0  -0.150923  0  3.69587  0  0  -0.16722  0  3.937565  0  0  -0.174509  0  3.959803  0  0  -0.081621  -0.161431  0  3.920319  0
C  C51  1  0.91961267  0.24906584  0.49965071  1  0  -0.150941  0  3.695986  0  0  -0.167237  0  3.937651  0  0  -0.174533  0  3.959888  0  0  -0.081591  -0.161446  0  3.920401  0
C  C52  1  0.15319195  0.63968837  0.48513268  1  0  0.111908  0  3.70103  0  0  0.083127  0  3.949006  0  0  0.089116  0  3.966127  0  0  0.033395  0.080949  0  3.936941  0
C  C53  1  0.84680536  0.36031141  0.51486510  1  0  0.112089  0  3.701217  0  0  0.083312  0  3.949195  0  0  0.089305  0  3.966313  0  0  0.033438  0.081137  0  3.937133  0
C  C54  1  0.04152510  0.98268203  0.46500165  1  0  -0.090373  0  3.71249  0  0  -0.110438  0  3.959293  0  0  -0.11166  0  3.976096  0  0  -0.080988  -0.111912  0  3.953142  0
C  C55  1  0.95847583  0.01731883  0.53499642  1  0  -0.090439  0  3.712442  0  0  -0.110478  0  3.959246  0  0  -0.111699  0  3.976047  0  0  -0.080957  -0.111953  0  3.953093  0
C  C56  1  0.04220850  0.22066256  0.22043567  1  0  -0.091475  0  3.750627  0  0  -0.051593  0  3.990951  0  0  -0.057265  0  4.015046  0  0  -0.027158  -0.047875  0  3.974569  0
C  C57  1  0.95779140  0.77933405  0.77956368  1  0  -0.091449  0  3.75055  0  0  -0.05157  0  3.99088  0  0  -0.057243  0  4.014976  0  0  -0.027161  -0.047848  0  3.974504  0
C  C58  1  0.95693836  0.32591238  0.23013298  1  0  -0.086682  0  3.750452  0  0  -0.103828  0  3.992728  0  0  -0.10476  0  4.013607  0  0  -0.089334  -0.103348  0  3.978633  0
C  C59  1  0.04306292  0.67408531  0.76986693  1  0  -0.086709  0  3.750504  0  0  -0.103862  0  3.992793  0  0  -0.104797  0  4.013669  0  0  -0.089329  -0.103379  0  3.978699  0
C  C60  1  0.80156938  0.28989083  0.21369702  1  0  -0.081124  0  3.777481  0  0  -0.091388  0  4.023574  0  0  -0.094092  0  4.04413  0  0  -0.095214  -0.08901  0  4.009537  0
C  C61  1  0.19843052  0.71010580  0.78630314  1  0  -0.081087  0  3.777524  0  0  -0.091366  0  4.023623  0  0  -0.09407  0  4.044177  0  0  -0.095219  -0.088984  0  4.009587  0
C  C62  1  0.72928631  0.14840730  0.18942300  1  0  -0.060181  0  3.746226  0  0  -0.073562  0  3.988301  0  0  -0.074267  0  4.009331  0  0  -0.087458  -0.07288  0  3.974831  0
C  C63  1  0.27071360  0.85158933  0.81057796  1  0  -0.060176  0  3.746178  0  0  -0.073564  0  3.988256  0  0  -0.074267  0  4.009282  0  0  -0.087444  -0.072876  0  3.974786  0
C  C64  1  0.81332418  0.04364315  0.18137124  1  0  -0.062752  0  3.749533  0  0  -0.072792  0  3.993382  0  0  -0.07507  0  4.014485  0  0  -0.089159  -0.070528  0  3.976958  0
C  C65  1  0.18667543  0.95635238  0.81862540  1  0  -0.062849  0  3.749615  0  0  -0.072897  0  3.993441  0  0  -0.075177  0  4.014544  0  0  -0.089207  -0.070635  0  3.977024  0
C  C66  1  0.96863320  0.07916635  0.19596038  1  0  -0.092537  0  3.759509  0  0  -0.110918  0  4.001046  0  0  -0.111843  0  4.022107  0  0  -0.090896  -0.109527  0  3.986574  0
C  C67  1  0.03136669  0.92083025  0.80403654  1  0  -0.092459  0  3.7595  0  0  -0.110812  0  4.001033  0  0  -0.111739  0  4.022095  0  0  -0.090838  -0.109422  0  3.986564  0
C  C68  1  0.32438929  0.12194684  0.23616736  1  0  -0.098924  0  3.750005  0  0  -0.054592  0  3.980832  0  0  -0.062095  0  4.007135  0  0  -0.027571  -0.050705  0  3.965868  0
C  C69  1  0.67561253  0.87805299  0.76383474  1  0  -0.098892  0  3.750046  0  0  -0.054548  0  3.980861  0  0  -0.06205  0  4.007165  0  0  -0.027553  -0.050658  0  3.965898  0
C  C70  1  0.43947838  0.11787833  0.33939664  1  0  -0.077346  0  3.741048  0  0  -0.09656  0  3.983698  0  0  -0.097159  0  4.004871  0  0  -0.088871  -0.09573  0  3.969747  0
C  C71  1  0.56052482  0.88212256  0.66060440  1  0  -0.077376  0  3.741027  0  0  -0.09659  0  3.983657  0  0  -0.097188  0  4.004829  0  0  -0.088875  -0.095761  0  3.96971  0
C  C72  1  0.50590361  0.00067266  0.33511348  1  0  -0.067217  0  3.748701  0  0  -0.078684  0  3.994077  0  0  -0.082029  0  4.016523  0  0  -0.090913  -0.076248  0  3.977933  0
C  C73  1  0.49409873  0.99932929  0.66488838  1  0  -0.067204  0  3.748637  0  0  -0.078665  0  3.994026  0  0  -0.082012  0  4.016467  0  0  -0.090924  -0.076231  0  3.977883  0
C  C74  1  0.45927500  0.88762416  0.22781952  1  0  -0.066609  0  3.765501  0  0  -0.077998  0  4.009404  0  0  -0.078458  0  4.028921  0  0  -0.088423  -0.07669  0  3.994157  0
C  C75  1  0.54072596  0.11237673  0.77218259  1  0  -0.066621  0  3.765526  0  0  -0.078039  0  4.009447  0  0  -0.078487  0  4.028963  0  0  -0.088441  -0.076731  0  3.9942  0
C  C76  1  0.34469062  0.89094975  0.12458877  1  0  -0.080637  0  3.763867  0  0  -0.089318  0  4.005573  0  0  -0.092448  0  4.027064  0  0  -0.092728  -0.086826  0  3.990359  0
C  C77  1  0.65531172  0.10905219  0.87541148  1  0  -0.080609  0  3.7638  0  0  -0.089274  0  4.005501  0  0  -0.092402  0  4.026986  0  0  -0.092725  -0.086781  0  3.990283  0
C  C78  1  0.27740291  0.00748037  0.12861394  1  0  -0.075371  0  3.750198  0  0  -0.09468  0  3.990667  0  0  -0.095055  0  4.013062  0  0  -0.086526  -0.094567  0  3.976981  0
C  C79  1  0.72259943  0.99252157  0.87138711  1  0  -0.075422  0  3.750294  0  0  -0.094731  0  3.990739  0  0  -0.09511  0  4.013131  0  0  -0.086527  -0.094612  0  3.97705  0
C  C80  1  0.23585950  0.30788278  0.10245699  1  0  -0.08503  0  3.742282  0  0  -0.042432  0  3.97833  0  0  -0.048045  0  4.003194  0  0  -0.027988  -0.039341  0  3.961765  0
C  C81  1  0.76414033  0.69211809  0.89754404  1  0  -0.085019  0  3.742231  0  0  -0.042485  0  3.978366  0  0  -0.0481  0  4.003229  0  0  -0.028014  -0.039391  0  3.9618  0
C  C82  1  0.37395469  0.32456952  0.08087965  1  0  -0.079781  0  3.754878  0  0  -0.100973  0  3.997924  0  0  -0.102044  0  4.019825  0  0  -0.090522  -0.100344  0  3.983887  0
C  C83  1  0.62604428  0.67543241  0.91912059  1  0  -0.079841  0  3.754869  0  0  -0.100997  0  3.997943  0  0  -0.102069  0  4.019843  0  0  -0.090526  -0.10037  0  3.9839  0
C  C84  1  0.37615817  0.34821740  0.97574895  1  0  -0.076743  0  3.787571  0  0  -0.087991  0  4.03597  0  0  -0.090029  0  4.056759  0  0  -0.093761  -0.086257  0  4.022466  0
C  C85  1  0.62384080  0.65178453  0.02425210  1  0  -0.076674  0  3.787725  0  0  -0.087924  0  4.036086  0  0  -0.089963  0  4.056875  0  0  -0.093753  -0.08619  0  4.022576  0
C  C86  1  0.24138144  0.35836140  0.89123194  1  0  -0.076867  0  3.764194  0  0  -0.08883  0  4.008717  0  0  -0.09007  0  4.028862  0  0  -0.096157  -0.088553  0  3.995771  0
C  C87  1  0.75861668  0.64164159  0.10876912  1  0  -0.076905  0  3.764338  0  0  -0.08888  0  4.008856  0  0  -0.090116  0  4.029  0  0  -0.096153  -0.088595  0  3.995907  0
C  C88  1  0.10482885  0.34565003  0.91372956  1  0  -0.070339  0  3.781367  0  0  -0.078248  0  4.021728  0  0  -0.080678  0  4.043936  0  0  -0.095257  -0.076404  0  4.007101  0
C  C89  1  0.89517013  0.65435192  0.08627310  1  0  -0.070338  0  3.781371  0  0  -0.078238  0  4.021712  0  0  -0.080668  0  4.043918  0  0  -0.095252  -0.076395  0  4.007082  0
C  C90  1  0.10150902  0.31961561  0.01811872  1  0  -0.08907  0  3.757276  0  0  -0.108025  0  3.994479  0  0  -0.109704  0  4.017587  0  0  -0.095149  -0.106113  0  3.978812  0
C  C91  1  0.89848910  0.68038738  0.98188235  1  0  -0.089027  0  3.757241  0  0  -0.107954  0  3.994448  0  0  -0.109633  0  4.017554  0  0  -0.095129  -0.106045  0  3.978782  0
I  I92  1  0.37754138  0.39819174  0.60250538  1  0  -0.43815  0  1.348886  0  0  -0.387103  0  1.727351  0  0  -0.404401  0  1.699172  0  0  -0.209718  -0.371684  0  1.745264  0
I  I93  1  0.62245846  0.60180914  0.39749646  1  0  -0.438139  0  1.348898  0  0  -0.387084  0  1.727363  0  0  -0.404387  0  1.699182  0  0  -0.209701  -0.37166  0  1.745272  0
N  N94  1  0.24392309  0.62451642  0.41944611  1  0  -0.262319  0  3.371898  0  0  -0.186757  0  3.648409  0  0  -0.19777  0  3.657536  0  0  -0.365926  -0.180609  0  3.642195  0
N  N95  1  0.75607705  0.37548125  0.58055110  1  0  -0.262507  0  3.372122  0  0  -0.186997  0  3.6487  0  0  -0.198001  0  3.65781  0  0  -0.366016  -0.18085  0  3.642493  0
