# generated using pymatgen
data_Zn4H6C24S6O19F2
_symmetry_space_group_name_H-M   'P 1'
_cell_length_a   19.60997772
_cell_length_b   19.64778104
_cell_length_c   33.25769896
_cell_angle_alpha   79.31360899
_cell_angle_beta   79.44204370
_cell_angle_gamma   64.07312166
_symmetry_Int_Tables_number   1
_chemical_formula_structural   Zn4H6C24S6O19F2
_chemical_formula_sum   'Zn16 H24 C96 S24 O76 F8'
_cell_volume   11248.48029153
_cell_formula_units_Z   4
loop_
 _symmetry_equiv_pos_site_id
 _symmetry_equiv_pos_as_xyz
  1  'x, y, z'
loop_
 _atom_site_type_symbol
 _atom_site_label
 _atom_site_symmetry_multiplicity
 _atom_site_fract_x
 _atom_site_fract_y
 _atom_site_fract_z
 _atom_site_occupancy
 _atom_site_pbe_bader_charge
 _atom_site_pbe_bader_spin_density
 _atom_site_pbe_cm5_charge
 _atom_site_pbe_ddec_charge
 _atom_site_pbe_ddec_spin_density
 _atom_site_pbe_ddec_sum_bond_order
 _atom_site_pbe_magmom
Zn  Zn0  1  0.05596343  0.39792589  0.47989340  1  1.322913  0  0.679454  0.975262  0  2.337656  0
Zn  Zn1  1  0.98608517  0.48012359  0.56117358  1  1.314093  0  0.684962  0.976208  0  2.347415  0
Zn  Zn2  1  0.05667085  0.56214586  0.48181498  1  1.319938  0  0.682973  0.97404  0  2.335058  0
Zn  Zn3  1  0.90270662  0.55690390  0.47870890  1  1.318469  0  0.682114  0.972124  0  2.34071  0
Zn  Zn4  1  0.69240194  0.34924206  0.27284756  1  1.323751  0  0.681155  0.977056  0  2.341037  0
Zn  Zn5  1  0.68550629  0.19244239  0.26719531  1  1.316133  0  0.680724  0.973432  0  2.346792  0
Zn  Zn6  1  0.77130765  0.26525080  0.19069611  1  1.316128  0  0.68273  0.973201  0  2.335824  0
Zn  Zn7  1  0.84860392  0.19375360  0.27046495  1  1.315819  0  0.683575  0.971416  0  2.340658  0
Zn  Zn8  1  0.27012637  0.76460884  0.68906044  1  1.312788  0  0.680629  0.969229  0  2.35516  0
Zn  Zn9  1  0.35219492  0.69562451  0.77035369  1  1.32613  0  0.683706  0.977286  0  2.343732  0
Zn  Zn10  1  0.19143145  0.84640582  0.77183393  1  1.31676  0  0.680794  0.972124  0  2.340245  0
Zn  Zn11  1  0.18968014  0.69138369  0.76821099  1  1.318684  0  0.68336  0.973391  0  2.340262  0
Zn  Zn12  1  0.55824707  0.06356391  0.98256619  1  1.318281  0  0.681523  0.974124  0  2.34687  0
Zn  Zn13  1  0.40073989  0.05807049  0.97688599  1  1.322312  0  0.68106  0.970349  0  2.3488  0
Zn  Zn14  1  0.55596396  0.90104790  0.98005134  1  1.319449  0  0.682845  0.976572  0  2.334922  0
Zn  Zn15  1  0.48394519  0.97934419  0.05932420  1  1.314715  0  0.681818  0.972008  0  2.339359  0
H  H16  1  0.75001356  0.44955298  0.34902610  1  0.168153  0  0.124558  0.142814  0  0.990554  0
H  H17  1  0.00155766  0.29988012  0.40046098  1  0.150336  0  0.124753  0.142615  0  0.989384  0
H  H18  1  0.20057627  0.70130218  0.60069865  1  0.138184  0  0.123739  0.142221  0  0.991316  0
H  H19  1  0.04982455  0.54931844  0.64957390  1  0.153932  0  0.125991  0.14767  0  0.982475  0
H  H20  1  0.46164932  0.24046001  0.34227302  1  0.11374  0  0.125812  0.152611  0  0.962169  0
H  H21  1  0.48111781  0.69908912  0.59996223  1  0.123457  0  0.125989  0.152896  0  0.960353  0
H  H22  1  0.20169138  0.97629160  0.60244060  1  0.11597  0  0.124806  0.151349  0  0.962428  0
H  H23  1  0.94292902  0.97749885  0.35084532  1  0.143286  0  0.129756  0.160241  0  0.95381  0
H  H24  1  0.65012574  0.14799127  0.04925185  1  0.200306  0  0.124441  0.142362  0  0.990254  0
H  H25  1  0.60073890  0.10032376  0.20073228  1  0.138202  0  0.124376  0.142147  0  0.989679  0
H  H26  1  0.54799542  0.76804882  0.14918279  1  0.124577  0  0.125951  0.15425  0  0.960048  0
H  H27  1  0.16455166  0.13748107  0.03974542  1  0.131856  0  0.125743  0.152322  0  0.961806  0
H  H28  1  0.29943672  0.00051552  0.90119092  1  0.13283  0  0.123719  0.144419  0  0.987927  0
H  H29  1  0.44941438  0.75010909  0.84942181  1  0.176882  0  0.126136  0.144507  0  0.988195  0
H  H30  1  0.29995309  0.28206009  0.89990100  1  0.139678  0  0.12647  0.152886  0  0.961148  0
H  H31  1  0.78695281  0.00966965  0.91154010  1  0.144977  0  0.125886  0.152051  0  0.961779  0
H  H32  1  0.84381368  0.57251741  0.39996690  1  0.656063  0  0.314671  0.378864  0  0.939291  0
H  H33  1  0.96554169  0.23520322  0.29155047  1  0.652477  0  0.315017  0.379574  0  0.93682  0
H  H34  1  0.07033532  0.68636056  0.51395223  1  0.651972  0  0.312726  0.37903  0  0.941554  0
H  H35  1  0.06304935  0.67996325  0.73663251  1  0.652178  0  0.314887  0.379615  0  0.937232  0
H  H36  1  0.79397489  0.17815043  0.12181366  1  0.646823  0  0.31286  0.376612  0  0.945027  0
H  H37  1  0.57176723  0.95606750  0.12829082  1  0.63258  0  0.312552  0.376288  0  0.945902  0
H  H38  1  0.17750148  0.90606352  0.84997740  1  0.653205  0  0.313009  0.377862  0  0.943794  0
H  H39  1  0.51364769  0.78505898  0.95859018  1  0.639082  0  0.312976  0.375982  0  0.942678  0
C  C40  1  0.06223950  0.31352954  0.56287589  1  1.551257  0  0.218237  0.632138  0  4.213499  0
C  C41  1  0.06500522  0.57370174  0.56873784  1  1.577241  0  0.241105  0.61462  0  4.124817  0
C  C42  1  0.18144773  0.43980919  0.43951874  1  1.582336  0  0.218976  0.633227  0  4.207554  0
C  C43  1  0.93652037  0.68662577  0.43785796  1  1.579726  0  0.215562  0.629513  0  4.213796  0
C  C44  1  0.93419074  0.43296010  0.42875426  1  1.56136  0  0.240513  0.615003  0  4.123263  0
C  C45  1  0.81903315  0.56025975  0.56076385  1  1.552391  0  0.218768  0.632085  0  4.206881  0
C  C46  1  0.56322427  0.31261548  0.31223784  1  1.576184  0  0.220544  0.611438  0  4.215765  0
C  C47  1  0.68566011  0.17694491  0.18083956  1  1.570155  0  0.24129  0.615683  0  4.121865  0
C  C48  1  0.69056986  0.43092904  0.18892820  1  1.557297  0  0.219225  0.633022  0  4.205797  0
C  C49  1  0.93778488  0.18568838  0.18903020  1  1.549494  0  0.215802  0.628975  0  4.21473  0
C  C50  1  0.82177183  0.32109716  0.31626643  1  1.574661  0  0.241832  0.616893  0  4.122049  0
C  C51  1  0.80842428  0.06868118  0.31087192  1  1.549807  0  0.221871  0.613834  0  4.204663  0
C  C52  1  0.43660896  0.68868290  0.68717179  1  1.548521  0  0.221145  0.612813  0  4.218106  0
C  C53  1  0.31607191  0.81752485  0.82107909  1  1.574988  0  0.241062  0.615035  0  4.124346  0
C  C54  1  0.18961047  0.93103401  0.68935106  1  1.553046  0  0.221809  0.613168  0  4.208612  0
C  C55  1  0.06362141  0.81004903  0.81252446  1  1.562911  0  0.216078  0.62932  0  4.213124  0
C  C56  1  0.17674826  0.68563215  0.68139750  1  1.575246  0  0.2413  0.616517  0  4.123174  0
C  C57  1  0.31290758  0.56854587  0.81049265  1  1.571389  0  0.219236  0.632149  0  4.207934  0
C  C58  1  0.43649726  0.18697464  0.93785454  1  1.582046  0  0.220279  0.612956  0  4.213639  0
C  C59  1  0.42831686  0.92865645  0.93395065  1  1.576687  0  0.241543  0.616671  0  4.121703  0
C  C60  1  0.68140085  0.94119207  0.93904928  1  1.561519  0  0.222558  0.613598  0  4.205609  0
C  C61  1  0.56242186  0.81321150  0.06220043  1  1.561701  0  0.218376  0.608659  0  4.219344  0
C  C62  1  0.57367997  0.06318299  0.06907928  1  1.573161  0  0.241431  0.616833  0  4.120452  0
C  C63  1  0.31797216  0.06142859  0.06037019  1  1.538151  0  0.222855  0.613923  0  4.207681  0
C  C64  1  0.90085609  0.40564739  0.40124892  1  0.054005  0  0.005146  -0.018984  0  3.898005  0
C  C65  1  0.85227926  0.34532997  0.34663727  1  -0.048434  0  0.003009  -0.023043  0  3.905622  0
C  C66  1  0.82859427  0.44710719  0.38694602  1  -0.200727  0  0.000916  -0.087485  0  3.892161  0
C  C67  1  0.92331952  0.30261903  0.36217255  1  -0.077969  0  0.000255  -0.088721  0  3.894794  0
C  C68  1  0.80576166  0.41680910  0.35997985  1  0.021539  0  -0.060547  -0.082498  0  3.909848  0
C  C69  1  0.94649121  0.33322839  0.38881116  1  0.056897  0  -0.0606  -0.082218  0  3.907954  0
C  C70  1  0.09802070  0.60125921  0.59625307  1  -0.004469  0  0.00537  -0.020783  0  3.901216  0
C  C71  1  0.14930635  0.65246811  0.65400039  1  0.011454  0  0.00369  -0.018525  0  3.901598  0
C  C72  1  0.14223176  0.64353303  0.58276953  1  -0.155433  0  0.000296  -0.087996  0  3.897783  0
C  C73  1  0.10741128  0.60791684  0.66750918  1  -0.121242  0  0.000575  -0.090106  0  3.895302  0
C  C74  1  0.16670493  0.66854202  0.61152486  1  0.025271  0  -0.061643  -0.085803  0  3.913321  0
C  C75  1  0.08235913  0.58344422  0.63874238  1  0.042609  0  -0.059479  -0.082459  0  3.902769  0
C  C76  1  0.30180704  0.45472639  0.40176473  1  0.543132  0  0.108309  0.259865  0  4.070548  0
C  C77  1  0.44424485  0.29755734  0.35004063  1  0.113472  0  -0.082737  -0.12663  0  3.950315  0
C  C78  1  0.25597046  0.41542756  0.41479005  1  -0.077721  0  -0.036341  -0.24904  0  3.980182  0
C  C79  1  0.48864751  0.33805796  0.33728191  1  -0.178762  0  -0.022062  -0.121346  0  3.980211  0
C  C80  1  0.37597520  0.34058436  0.37352603  1  -0.157904  0  -0.01649  0.010694  0  4.081417  0
C  C81  1  0.37039339  0.41286081  0.37811960  1  -0.12775  0  -0.029318  -0.136743  0  4.100229  0
C  C82  1  0.72793066  0.57693688  0.62796612  1  0.55178  0  0.105381  0.256778  0  4.078666  0
C  C83  1  0.52622186  0.67135817  0.61997900  1  0.033952  0  -0.082006  -0.125416  0  3.947153  0
C  C84  1  0.74443986  0.58452033  0.58535498  1  -0.056122  0  -0.036365  -0.252389  0  3.983627  0
C  C85  1  0.51154845  0.66300292  0.66251110  1  -0.146447  0  -0.021987  -0.1218  0  3.981636  0
C  C86  1  0.60551146  0.63944571  0.60749385  1  -0.169119  0  -0.016085  0.006216  0  4.080259  0
C  C87  1  0.64901601  0.60783097  0.64109944  1  -0.125386  0  -0.029699  -0.13582  0  4.105381  0
C  C88  1  0.07865533  0.22246273  0.63035348  1  0.60807  0  0.106583  0.257914  0  4.076107  0
C  C89  1  0.17392186  0.02116201  0.62245524  1  0.004406  0  -0.083689  -0.127706  0  3.953758  0
C  C90  1  0.08714056  0.23910455  0.58776187  1  -0.123485  0  -0.035925  -0.248724  0  3.981519  0
C  C91  1  0.16491918  0.00622077  0.66498354  1  -0.148021  0  -0.022321  -0.124535  0  3.98271  0
C  C92  1  0.14256186  0.10031448  0.61000873  1  -0.119255  0  -0.017287  0.009236  0  4.083561  0
C  C93  1  0.11016169  0.14355586  0.64357961  1  -0.120221  0  -0.029027  -0.138127  0  4.101147  0
C  C94  1  0.84393945  0.80198540  0.39516818  1  0.551072  0  0.1046  0.254278  0  4.081462  0
C  C95  1  0.90039684  0.95485406  0.35362334  1  0.059965  0  -0.078567  -0.120846  0  3.931004  0
C  C96  1  0.91138522  0.76109033  0.41307065  1  -0.104123  0  -0.037183  -0.252396  0  3.987827  0
C  C97  1  0.83300626  0.99402093  0.33582882  1  -0.178978  0  -0.021421  -0.121069  0  3.978364  0
C  C98  1  0.90424593  0.88441379  0.37503516  1  -0.164175  0  -0.015499  0.009432  0  4.075224  0
C  C99  1  0.83914713  0.87223092  0.37320119  1  -0.122436  0  -0.029363  -0.134946  0  4.104856  0
C  C100  1  0.65569187  0.15177047  0.15056814  1  0.033853  0  0.004856  -0.020446  0  3.898983  0
C  C101  1  0.59810209  0.09360121  0.09940498  1  0.067389  0  0.00372  -0.022595  0  3.904552  0
C  C102  1  0.66820580  0.16600877  0.10728538  1  -0.134543  0  0.001017  -0.086853  0  3.893233  0
C  C103  1  0.58324132  0.08167228  0.14267948  1  -0.201759  0  9.6e-05  -0.088986  0  3.894919  0
C  C104  1  0.63984304  0.13673870  0.08259852  1  -0.02334  0  -0.060698  -0.082265  0  3.90936  0
C  C105  1  0.61229956  0.11025543  0.16738248  1  0.03228  0  -0.060222  -0.081659  0  3.908285  0
C  C106  1  0.67454460  0.52180376  0.12131645  1  0.535672  0  0.108756  0.259518  0  4.07321  0
C  C107  1  0.57705418  0.72321915  0.12917851  1  0.052434  0  -0.081867  -0.124197  0  3.942523  0
C  C108  1  0.66542249  0.50520316  0.16391316  1  -0.041974  0  -0.035926  -0.248411  0  3.977972  0
C  C109  1  0.58747491  0.73815634  0.08668345  1  -0.161851  0  -0.023508  -0.126123  0  3.985951  0
C  C110  1  0.60921997  0.64401868  0.14163534  1  -0.137665  0  -0.01595  0.010449  0  4.076846  0
C  C111  1  0.64294232  0.60074214  0.10812786  1  -0.136304  0  -0.028467  -0.136191  0  4.096769  0
C  C112  1  0.08454746  0.12514787  0.17721215  1  0.569685  0  0.10585  0.257546  0  4.07563  0
C  C113  1  0.17250544  0.12297181  0.07224044  1  -0.012176  0  -0.083267  -0.126925  0  3.951712  0
C  C114  1  0.01219380  0.16175380  0.16427137  1  -0.083339  0  -0.037564  -0.253218  0  3.987197  0
C  C115  1  0.24392303  0.08646944  0.08593208  1  -0.105907  0  -0.021549  -0.123137  0  3.97777  0
C  C116  1  0.11454639  0.13733586  0.10578078  1  -0.137368  0  -0.016794  0.008099  0  4.083824  0
C  C117  1  0.14362776  0.11100683  0.14423975  1  -0.187066  0  -0.028574  -0.138145  0  4.099944  0
C  C118  1  0.34331792  0.85057149  0.84872573  1  0.020874  0  0.005132  -0.019101  0  3.898298  0
C  C119  1  0.40390440  0.89844586  0.90353478  1  0.061898  0  0.00294  -0.020831  0  3.901741  0
C  C120  1  0.30176206  0.92247207  0.86315656  1  -0.137915  0  0.000755  -0.088096  0  3.89358  0
C  C121  1  0.44664474  0.82774121  0.88792330  1  -0.133936  0  0.00104  -0.088413  0  3.893241  0
C  C122  1  0.33219889  0.94499347  0.89019997  1  0.057197  0  -0.061107  -0.085311  0  3.909502  0
C  C123  1  0.41594990  0.80490245  0.86115702  1  -0.054632  0  -0.06022  -0.082472  0  3.90601  0
C  C124  1  0.40519334  0.45162562  0.85251421  1  0.584649  0  0.105231  0.255561  0  4.078746  0
C  C125  1  0.34431889  0.30257750  0.89598005  1  0.118962  0  -0.081466  -0.124147  0  3.946997  0
C  C126  1  0.33740328  0.49391693  0.83510394  1  -0.074491  0  -0.036081  -0.251213  0  3.982116  0
C  C127  1  0.41247840  0.26160140  0.91287672  1  -0.238602  0  -0.021907  -0.121715  0  3.979488  0
C  C128  1  0.34211018  0.37191342  0.87375787  1  -0.152883  0  -0.015892  0.006581  0  4.077007  0
C  C129  1  0.40887648  0.38184899  0.87458517  1  -0.182197  0  -0.030232  -0.136371  0  4.107107  0
C  C130  1  0.94134829  0.79769564  0.84898391  1  0.586718  0  0.107109  0.258454  0  4.076148  0
C  C131  1  0.80238753  0.95380619  0.90260668  1  0.003778  0  -0.082815  -0.125672  0  3.949966  0
C  C132  1  0.98899109  0.83521952  0.83705227  1  -0.126182  0  -0.038211  -0.253883  0  3.988293  0
C  C133  1  0.75588893  0.91529508  0.91394495  1  -0.156951  0  -0.021494  -0.124673  0  3.979951  0
C  C134  1  0.86987646  0.91066071  0.87864784  1  -0.170285  0  -0.016458  0.009163  0  4.082323  0
C  C135  1  0.87298990  0.84008239  0.87260046  1  -0.089362  0  -0.028706  -0.138671  0  4.100837  0
S  S136  1  0.29729668  0.32565529  0.39785476  1  0.279851  0  0.0922  0.148398  0  2.732877  0
S  S137  1  0.44840531  0.42821727  0.35358644  1  0.307688  0  0.106551  0.17428  0  2.728489  0
S  S138  1  0.66194079  0.62980989  0.56073044  1  0.302372  0  0.105267  0.170757  0  2.722226  0
S  S139  1  0.59315059  0.61653140  0.68776712  1  0.311354  0  0.105375  0.173195  0  2.732202  0
S  S140  1  0.13439483  0.15687108  0.56326927  1  0.295115  0  0.093585  0.150642  0  2.730756  0
S  S141  1  0.11887972  0.08748328  0.69026262  1  0.325764  0  0.114892  0.190557  0  2.726968  0
S  S142  1  0.97013543  0.80939566  0.40300098  1  0.31392  0  0.101105  0.163114  0  2.72568  0
S  S143  1  0.77375775  0.94640075  0.34494886  1  0.313379  0  0.10094  0.166107  0  2.73459  0
S  S144  1  0.61739442  0.58747764  0.18837173  1  0.286833  0  0.095376  0.152438  0  2.728747  0
S  S145  1  0.63586428  0.65684957  0.06149614  1  0.302987  0  0.109863  0.181586  0  2.729426  0
S  S146  1  0.01617462  0.17943222  0.11076168  1  0.327001  0  0.097721  0.159625  0  2.73044  0
S  S147  1  0.24169716  0.06957443  0.13933571  1  0.342898  0  0.115729  0.191434  0  2.724835  0
S  S148  1  0.27697204  0.44745000  0.84565512  1  0.317884  0  0.108381  0.174883  0  2.721847  0
S  S149  1  0.47438151  0.30635253  0.90210248  1  0.303007  0  0.103366  0.170491  0  2.734249  0
S  S150  1  0.94974002  0.92402875  0.85499017  1  0.306514  0  0.096908  0.158284  0  2.732251  0
S  S151  1  0.79304509  0.82698661  0.89570165  1  0.322162  0  0.116933  0.193697  0  2.725247  0
S  S152  1  0.75744442  0.53667642  0.40329121  1  3.085335  0  0.533434  1.144973  0  6.050658  0
S  S153  1  0.98701106  0.20599533  0.35279869  1  3.10005  0  0.533988  1.14678  0  6.046262  0
S  S154  1  0.17651004  0.66402844  0.52974952  1  3.137169  0  0.533991  1.147358  0  6.050178  0
S  S155  1  0.08714376  0.57362959  0.72060216  1  3.121725  0  0.534369  1.145828  0  6.047186  0
S  S156  1  0.71398516  0.22618345  0.07982880  1  3.130013  0  0.533457  1.143824  0  6.052004  0
S  S157  1  0.52287042  0.03606442  0.17000684  1  3.128943  0  0.533503  1.146717  0  6.04684  0
S  S158  1  0.21179449  0.99331708  0.84690216  1  3.097775  0  0.534334  1.147237  0  6.046567  0
S  S159  1  0.54350314  0.76413781  0.89733293  1  3.107816  0  0.534142  1.145323  0  6.043969  0
O  O160  1  0.00100234  0.49790808  0.50056884  1  -1.22248  0  -0.572097  -1.036691  0  2.530592  0
O  O161  1  0.08013679  0.31268471  0.52381065  1  -1.150719  0  -0.32073  -0.548449  0  2.323636  0
O  O162  1  0.04696968  0.51911799  0.58431175  1  -1.155912  0  -0.289627  -0.504713  0  2.309718  0
O  O163  1  0.15542482  0.50416369  0.45323912  1  -1.150919  0  -0.310259  -0.527611  0  2.340942  0
O  O164  1  0.02520204  0.37220025  0.58194173  1  -1.159345  0  -0.312894  -0.533905  0  2.328873  0
O  O165  1  0.14926567  0.39369512  0.44502274  1  -1.175794  0  -0.322046  -0.55249  0  2.324365  0
O  O166  1  0.05498959  0.60759248  0.53190959  1  -1.183727  0  -0.303429  -0.564622  0  2.404042  0
O  O167  1  0.00401350  0.65920164  0.44858418  1  -1.168703  0  -0.320287  -0.546776  0  2.321219  0
O  O168  1  0.90805667  0.50492238  0.43050195  1  -1.175968  0  -0.304101  -0.565008  0  2.405423  0
O  O169  1  0.88980893  0.65530335  0.44681457  1  -1.164315  0  -0.315529  -0.538932  0  2.326605  0
O  O170  1  0.98815270  0.38246598  0.44788855  1  -1.153944  0  -0.290526  -0.506835  0  2.304997  0
O  O171  1  0.87779111  0.53201085  0.58014445  1  -1.156785  0  -0.315646  -0.541296  0  2.330986  0
O  O172  1  0.81807894  0.57033034  0.52154895  1  -1.140114  0  -0.316077  -0.536328  0  2.334507  0
O  O173  1  0.74809289  0.25060445  0.25066841  1  -1.224352  0  -0.572346  -1.036288  0  2.532004  0
O  O174  1  0.59343255  0.36042849  0.30299531  1  -1.172851  0  -0.31753  -0.54476  0  2.336029  0
O  O175  1  0.65162015  0.17990834  0.21714872  1  -1.153734  0  -0.291557  -0.507877  0  2.306181  0
O  O176  1  0.72162650  0.37197264  0.16978415  1  -1.156873  0  -0.309397  -0.526399  0  2.338195  0
O  O177  1  0.59129456  0.24528573  0.30188056  1  -1.17177  0  -0.314669  -0.536571  0  2.31478  0
O  O178  1  0.67882037  0.43238122  0.22809246  1  -1.142901  0  -0.321989  -0.553051  0  2.326058  0
O  O179  1  0.74439067  0.19176374  0.16890922  1  -1.18232  0  -0.302503  -0.561987  0  2.402802  0
O  O180  1  0.87953500  0.22279860  0.16903133  1  -1.1657  0  -0.320805  -0.548026  0  2.323619  0
O  O181  1  0.86885502  0.27063887  0.29307418  1  -1.186828  0  -0.30515  -0.566883  0  2.405132  0
O  O182  1  0.93653448  0.16796156  0.22802415  1  -1.134159  0  -0.315819  -0.538042  0  2.326409  0
O  O183  1  0.75034747  0.35408624  0.31467735  1  -1.161193  0  -0.291946  -0.507711  0  2.307124  0
O  O184  1  0.74500489  0.09271676  0.29586399  1  -1.164304  0  -0.320553  -0.551913  0  2.332686  0
O  O185  1  0.85249810  0.10265000  0.30632912  1  -1.139045  0  -0.309222  -0.525869  0  2.329964  0
O  O186  1  0.25199734  0.74924383  0.74948404  1  -1.222733  0  -0.572736  -1.035867  0  2.533528  0
O  O187  1  0.37814832  0.72539657  0.66764656  1  -1.168917  0  -0.31434  -0.535745  0  2.316513  0
O  O188  1  0.36684880  0.76457820  0.80157325  1  -1.159751  0  -0.289545  -0.504721  0  2.307797  0
O  O189  1  0.17762629  0.93077541  0.72859409  1  -1.145036  0  -0.31462  -0.536624  0  2.346733  0
O  O190  1  0.43679594  0.67186759  0.72627861  1  -1.144301  0  -0.317478  -0.545346  0  2.33782  0
O  O191  1  0.22031402  0.87305873  0.66939425  1  -1.170172  0  -0.316184  -0.541069  0  2.316847  0
O  O192  1  0.24394525  0.84272593  0.81959600  1  -1.17899  0  -0.303057  -0.563282  0  2.404847  0
O  O193  1  0.09339340  0.85844423  0.80383988  1  -1.159377  0  -0.32237  -0.549211  0  2.322508  0
O  O194  1  0.14310143  0.69526896  0.71821038  1  -1.183592  0  -0.304742  -0.566242  0  2.405773  0
O  O195  1  0.09301749  0.74292674  0.80186817  1  -1.159618  0  -0.314327  -0.536521  0  2.325905  0
O  O196  1  0.23097112  0.70436134  0.66570376  1  -1.150678  0  -0.29319  -0.510032  0  2.312136  0
O  O197  1  0.35661968  0.60293754  0.80557885  1  -1.149594  0  -0.316312  -0.541631  0  2.327633  0
O  O198  1  0.24870001  0.59250209  0.79626441  1  -1.159173  0  -0.314901  -0.535141  0  2.340022  0
O  O199  1  0.49925882  0.00169115  0.99936590  1  -1.222907  0  -0.572142  -1.03531  0  2.53154  0
O  O200  1  0.50407974  0.15827318  0.94847482  1  -1.172837  0  -0.318035  -0.547205  0  2.338401  0
O  O201  1  0.39554045  0.99998045  0.93538317  1  -1.166498  0  -0.292263  -0.509261  0  2.310917  0
O  O202  1  0.64729129  0.89689100  0.94437866  1  -1.145685  0  -0.314075  -0.536239  0  2.347715  0
O  O203  1  0.38837814  0.15727515  0.94681034  1  -1.174936  0  -0.314616  -0.536353  0  2.314283  0
O  O204  1  0.65750599  0.00481287  0.95337058  1  -1.172053  0  -0.315649  -0.540464  0  2.312485  0
O  O205  1  0.47864862  0.88139613  0.95732398  1  -1.187984  0  -0.304803  -0.565892  0  2.403903  0
O  O206  1  0.58151762  0.81397489  0.02318771  1  -1.168291  0  -0.31895  -0.546833  0  2.335339  0
O  O207  1  0.55855712  0.00465245  0.08110846  1  -1.185571  0  -0.30437  -0.565555  0  2.404492  0
O  O208  1  0.52379850  0.87141111  0.08163358  1  -1.160508  0  -0.315461  -0.537372  0  2.314425  0
O  O209  1  0.57161822  0.09650536  0.03258924  1  -1.155313  0  -0.291054  -0.507103  0  2.309832  0
O  O210  1  0.31687231  0.07232763  0.02134075  1  -1.16009  0  -0.315515  -0.540578  0  2.314464  0
O  O211  1  0.37704386  0.03046896  0.07985130  1  -1.161626  0  -0.314414  -0.536639  0  2.348189  0
O  O212  1  0.79718225  0.59290400  0.38519862  1  -1.231473  0  -0.361691  -0.51859  0  2.164247  0
O  O213  1  0.69320722  0.56073227  0.38095919  1  -1.283106  0  -0.307593  -0.504803  0  2.103232  0
O  O214  1  0.74863323  0.52767882  0.44763163  1  -1.230937  0  -0.317915  -0.532893  0  2.127056  0
O  O215  1  0.01367105  0.21621210  0.30482791  1  -1.21613  0  -0.362436  -0.520015  0  2.159782  0
O  O216  1  0.05337093  0.18337751  0.37312639  1  -1.287578  0  -0.307278  -0.504763  0  2.101123  0
O  O217  1  0.94238751  0.16197832  0.36120667  1  -1.272843  0  -0.320591  -0.535848  0  2.120187  0
O  O218  1  0.09930180  0.71889757  0.51069555  1  -1.228746  0  -0.36458  -0.526244  0  2.15966  0
O  O219  1  0.21725026  0.70977750  0.52877974  1  -1.28451  0  -0.309763  -0.507675  0  2.102397  0
O  O220  1  0.21216133  0.59321747  0.51210847  1  -1.283594  0  -0.316519  -0.528559  0  2.122912  0
O  O221  1  0.03117332  0.65059556  0.73935143  1  -1.219559  0  -0.361942  -0.519477  0  2.160438  0
O  O222  1  0.04232992  0.53197057  0.72157491  1  -1.267995  0  -0.303712  -0.500258  0  2.103352  0
O  O223  1  0.15787700  0.53914816  0.73860020  1  -1.291247  0  -0.320415  -0.53643  0  2.126762  0
O  O224  1  0.79906324  0.17948290  0.09105538  1  -1.219896  0  -0.364366  -0.523551  0  2.163168  0
O  O225  1  0.71752508  0.22454237  0.03657397  1  -1.281258  0  -0.307209  -0.504268  0  2.102225  0
O  O226  1  0.67809534  0.29700177  0.09745069  1  -1.287584  0  -0.315537  -0.526775  0  2.123942  0
O  O227  1  0.56983460  0.95097009  0.15913159  1  -1.200594  0  -0.36544  -0.523342  0  2.154253  0
O  O228  1  0.52387419  0.03288412  0.21329895  1  -1.287428  0  -0.307067  -0.504062  0  2.100855  0
O  O229  1  0.45210405  0.07149238  0.15202607  1  -1.289458  0  -0.319491  -0.535445  0  2.125827  0
O  O230  1  0.15614234  0.95275953  0.86472704  1  -1.233223  0  -0.364949  -0.525146  0  2.161598  0
O  O231  1  0.18728182  0.05709015  0.86948154  1  -1.291164  0  -0.308818  -0.506702  0  2.101731  0
O  O232  1  0.22045941  0.00281950  0.80257442  1  -1.241377  0  -0.318194  -0.532382  0  2.124998  0
O  O233  1  0.53320358  0.73702420  0.94532444  1  -1.206119  0  -0.363922  -0.522257  0  2.159225  0
O  O234  1  0.56625659  0.69820238  0.87685828  1  -1.279007  0  -0.302819  -0.498009  0  2.102046  0
O  O235  1  0.58725619  0.80898281  0.88925182  1  -1.277252  0  -0.319369  -0.535202  0  2.128072  0
F  F236  1  0.28372667  0.52520159  0.41002513  1  -0.608932  0  -0.076625  -0.090457  0  1.356619  0
F  F237  1  0.78055339  0.54362968  0.65450184  1  -0.615391  0  -0.082582  -0.09885  0  1.349524  0
F  F238  1  0.04439175  0.27488737  0.65677613  1  -0.619764  0  -0.080973  -0.097306  0  1.351734  0
F  F239  1  0.78860198  0.77810160  0.39787511  1  -0.610953  0  -0.080419  -0.09495  0  1.357719  0
F  F240  1  0.70998475  0.46949677  0.09495812  1  -0.61404  0  -0.076243  -0.089977  0  1.357851  0
F  F241  1  0.09805578  0.10508969  0.21675608  1  -0.612603  0  -0.080261  -0.095218  0  1.354417  0
F  F242  1  0.46225519  0.47346576  0.84888772  1  -0.61335  0  -0.083452  -0.099849  0  1.347945  0
F  F243  1  0.95734796  0.72863762  0.83923443  1  -0.611947  0  -0.079013  -0.093948  0  1.355825  0
