# generated using pymatgen
data_Cu2H14WC14(SN)4
_symmetry_space_group_name_H-M   'P 1'
_cell_length_a   11.10429692
_cell_length_b   13.65646447
_cell_length_c   17.92872870
_cell_angle_alpha   72.73591180
_cell_angle_beta   71.97631037
_cell_angle_gamma   66.03264177
_symmetry_Int_Tables_number   1
_chemical_formula_structural   Cu2H14WC14(SN)4
_chemical_formula_sum   'Cu8 H56 W4 C56 S16 N16'
_cell_volume   2316.22765340
_cell_formula_units_Z   4
loop_
 _symmetry_equiv_pos_site_id
 _symmetry_equiv_pos_as_xyz
  1  'x, y, z'
loop_
 _atom_site_type_symbol
 _atom_site_label
 _atom_site_symmetry_multiplicity
 _atom_site_fract_x
 _atom_site_fract_y
 _atom_site_fract_z
 _atom_site_occupancy
 _atom_site_pbe_bader_charge
 _atom_site_pbe_bader_spin_density
 _atom_site_pbe_cm5_charge
 _atom_site_pbe_ddec_charge
 _atom_site_pbe_ddec_spin_density
 _atom_site_pbe_ddec_sum_bond_order
 _atom_site_pbe_magmom
Cu  Cu0  1  0.40677040  0.73558623  0.60614686  1  0.614439  0  0.466151  0.345169  0  2.836906  0
Cu  Cu1  1  0.60334044  0.74417457  0.73852699  1  0.476737  0  0.327785  0.322797  0  2.948339  0
Cu  Cu2  1  0.74830510  0.76470541  0.89385837  1  0.60679  0  0.465496  0.345109  0  2.836128  0
Cu  Cu3  1  0.08597641  0.75584461  0.76154443  1  0.477013  0  0.327499  0.322151  0  2.947914  0
Cu  Cu4  1  0.59323142  0.26441384  0.39384489  1  0.614544  0  0.466216  0.345266  0  2.836824  0
Cu  Cu5  1  0.39666490  0.25583038  0.26146804  1  0.47674  0  0.327769  0.322723  0  2.948431  0
Cu  Cu6  1  0.25169058  0.23529538  0.10614552  1  0.606835  0  0.465511  0.345148  0  2.836093  0
Cu  Cu7  1  0.91402828  0.24415947  0.23845649  1  0.47705  0  0.327504  0.322145  0  2.947942  0
H  H8  1  0.95929500  0.77066700  0.97811425  1  0.170952  0  0.119409  0.087919  0  1.058975  0
H  H9  1  0.74990773  0.55024929  0.03981887  1  0.102129  0  0.107546  0.115144  0  1.009876  0
H  H10  1  0.91120195  0.49143562  0.14891935  1  0.133454  0  0.105538  0.116293  0  1.064106  0
H  H11  1  0.11766826  0.55238798  0.13568042  1  0.119768  0  0.099088  0.110031  0  1.025809  0
H  H12  1  0.11957514  0.67840621  0.06994664  1  0.091572  0  0.112706  0.102225  0  0.967812  0
H  H13  1  0.01288738  0.54669310  0.27507486  1  0.052162  0  0.087813  0.099123  0  1.051487  0
H  H14  1  0.93939891  0.85703957  0.11094951  1  0.073368  0  0.09093  0.085805  0  1.073647  0
H  H15  1  0.48312548  0.76671166  0.03486974  1  0.12378  0  0.137927  0.105019  0  0.980093  0
H  H16  1  0.56121031  0.01803114  0.84539044  1  0.116234  0  0.116441  0.116651  0  0.987215  0
H  H17  1  0.30142748  0.10056017  0.93679123  1  0.1156  0  0.122918  0.124429  0  1.008182  0
H  H18  1  0.25388307  0.85905621  0.10544010  1  0.079886  0  0.121181  0.108245  0  0.945796  0
H  H19  1  0.21867818  0.99902011  0.10161787  1  0.099204  0  0.102981  0.106631  0  1.011495  0
H  H20  1  0.21653394  0.86356806  0.94560870  1  0.086685  0  0.091705  0.101419  0  1.049518  0
H  H21  1  0.98386891  0.08585567  0.10881501  1  0.080638  0  0.093767  0.101294  0  1.037057  0
H  H22  1  0.70778636  0.72938919  0.52179615  1  0.116054  0  0.119186  0.087515  0  1.058584  0
H  H23  1  0.33988399  0.95026200  0.46027431  1  0.109343  0  0.10707  0.114401  0  1.008789  0
H  H24  1  0.55154771  0.00882299  0.35108765  1  0.13558  0  0.105259  0.116684  0  1.064665  0
H  H25  1  0.80579269  0.94752715  0.36427275  1  0.10736  0  0.099096  0.109853  0  1.025785  0
H  H26  1  0.86768529  0.82152190  0.43008986  1  0.084903  0  0.112477  0.101671  0  0.967375  0
H  H27  1  0.83498258  0.95317639  0.22496657  1  0.089539  0  0.088015  0.098845  0  1.051928  0
H  H28  1  0.90675657  0.64281573  0.38907289  1  0.067574  0  0.090763  0.085757  0  1.073582  0
H  H29  1  0.28497240  0.73339101  0.46495014  1  0.124067  0  0.138392  0.105766  0  0.979654  0
H  H30  1  0.42512613  0.48217953  0.65439983  1  0.080779  0  0.11601  0.116486  0  0.986387  0
H  H31  1  0.33922327  0.39946969  0.56305573  1  0.114378  0  0.123286  0.124724  0  1.007634  0
H  H32  1  0.21871565  0.64076612  0.39436237  1  0.069393  0  0.121009  0.108111  0  0.946138  0
H  H33  1  0.31951365  0.50078874  0.39833658  1  0.104857  0  0.10308  0.106308  0  1.011429  0
H  H34  1  0.02592650  0.63670989  0.55403906  1  0.085189  0  0.091689  0.101116  0  1.05008  0
H  H35  1  0.17831989  0.41367015  0.39138687  1  0.086161  0  0.093408  0.10104  0  1.037296  0
H  H36  1  0.04070408  0.22933712  0.02188158  1  0.171059  0  0.119421  0.087924  0  1.059035  0
H  H37  1  0.25009422  0.44975233  0.96018311  1  0.102065  0  0.107564  0.115151  0  1.009839  0
H  H38  1  0.08879884  0.50857090  0.85108232  1  0.133712  0  0.105506  0.116253  0  1.064087  0
H  H39  1  0.88233446  0.44761205  0.86431619  1  0.119758  0  0.099115  0.11007  0  1.025746  0
H  H40  1  0.88042804  0.32159708  0.93005140  1  0.091706  0  0.112749  0.10226  0  0.967853  0
H  H41  1  0.98711096  0.45330611  0.72492218  1  0.052208  0  0.087827  0.099167  0  1.051445  0
H  H42  1  0.06060604  0.14295965  0.88904798  1  0.073489  0  0.090948  0.085857  0  1.073597  0
H  H43  1  0.51687237  0.23329079  0.96513003  1  0.123746  0  0.137908  0.104995  0  0.980076  0
H  H44  1  0.43879673  0.98196967  0.15461133  1  0.116141  0  0.116414  0.116587  0  0.987326  0
H  H45  1  0.69858025  0.89944552  0.06321212  1  0.115905  0  0.122909  0.124429  0  1.008192  0
H  H46  1  0.74612173  0.14094542  0.89456079  1  0.079688  0  0.121178  0.108254  0  0.945785  0
H  H47  1  0.78132410  0.00098067  0.89838646  1  0.099316  0  0.102951  0.106606  0  1.011546  0
H  H48  1  0.78346670  0.13643436  0.05439446  1  0.086811  0  0.091721  0.101424  0  1.049511  0
H  H49  1  0.01613148  0.91414511  0.89119024  1  0.080034  0  0.093735  0.101256  0  1.037075  0
H  H50  1  0.29220525  0.27061246  0.47820161  1  0.116195  0  0.119239  0.087603  0  1.058424  0
H  H51  1  0.66011276  0.04973889  0.53971765  1  0.109486  0  0.107083  0.114392  0  1.008715  0
H  H52  1  0.44845221  0.99117707  0.64890613  1  0.135532  0  0.105245  0.116688  0  1.0646  0
H  H53  1  0.19420387  0.05246960  0.63572573  1  0.107935  0  0.099079  0.109804  0  1.02583  0
H  H54  1  0.13230678  0.17847649  0.56990854  1  0.084802  0  0.112435  0.101629  0  0.967353  0
H  H55  1  0.16501834  0.04682118  0.77503203  1  0.089525  0  0.088016  0.098852  0  1.05189  0
H  H56  1  0.09323680  0.35718183  0.61092600  1  0.067534  0  0.090699  0.085737  0  1.073609  0
H  H57  1  0.71502690  0.26659914  0.53505597  1  0.12407  0  0.138337  0.105677  0  0.979624  0
H  H58  1  0.57486607  0.51781388  0.34560745  1  0.080102  0  0.116062  0.116554  0  0.986441  0
H  H59  1  0.66077734  0.60051966  0.43694920  1  0.114547  0  0.123345  0.124819  0  1.007532  0
H  H60  1  0.78128699  0.35922733  0.60564072  1  0.06923  0  0.120987  0.108096  0  0.946205  0
H  H61  1  0.68048377  0.49920143  0.60166820  1  0.104916  0  0.103073  0.106321  0  1.011414  0
H  H62  1  0.97407153  0.36328762  0.44596567  1  0.085268  0  0.091725  0.101137  0  1.050104  0
H  H63  1  0.82167850  0.58632656  0.60861630  1  0.086296  0  0.093396  0.101006  0  1.037353  0
W  W64  1  0.85468520  0.74230994  0.73987839  1  1.586891  0  0.869109  0.875623  0  5.757703  0
W  W65  1  0.33683391  0.75769836  0.76010874  1  1.584984  0  0.869417  0.876466  0  5.756446  0
W  W66  1  0.14532268  0.25769588  0.26011097  1  1.586512  0  0.869085  0.875585  0  5.757926  0
W  W67  1  0.66316316  0.24230567  0.23989752  1  1.584884  0  0.869487  0.876678  0  5.756318  0
C  C68  1  0.92002066  0.70519931  0.00962044  1  0.907059  0  0.124678  0.07936  0  3.938668  0
C  C69  1  0.81503747  0.58920706  0.04361292  1  0.36742  0  -0.015782  -0.044538  0  4.005132  0
C  C70  1  0.89465901  0.55843649  0.09790676  1  0.335692  0  -0.001862  -0.088604  0  3.896273  0
C  C71  1  0.05423371  0.63691521  0.11559730  1  0.256679  0  -0.048511  -0.108159  0  3.879547  0
C  C72  1  0.98452505  0.69530472  0.18521542  1  -0.121247  0  -0.01895  0.082454  0  3.982386  0
C  C73  1  0.97364830  0.63588383  0.26396923  1  -0.028361  0  -0.095842  -0.123441  0  3.971324  0
C  C74  1  0.93230689  0.80965717  0.17197378  1  -0.021824  0  -0.100494  -0.138552  0  3.999696  0
C  C75  1  0.47154599  0.84556245  0.99489629  1  0.988896  0  0.135131  0.075379  0  3.94668  0
C  C76  1  0.50685386  0.97846356  0.89893912  1  0.418831  0  -0.005328  -0.021096  0  3.991951  0
C  C77  1  0.37851604  0.02010196  0.94286085  1  0.326781  0  0.004204  -0.088205  0  3.901882  0
C  C78  1  0.23541344  0.94004536  0.06569884  1  0.290197  0  -0.042288  -0.10434  0  3.894295  0
C  C79  1  0.11389918  0.97124774  0.03119875  1  -0.053531  0  -0.014234  0.07726  0  3.984747  0
C  C80  1  0.12164567  0.92281179  0.97029811  1  -0.045648  0  -0.093952  -0.130866  0  3.979009  0
C  C81  1  0.99153927  0.04843182  0.06067650  1  -0.053537  0  -0.092465  -0.131862  0  3.987146  0
C  C82  1  0.63461408  0.79494083  0.49033022  1  0.976406  0  0.123425  0.076699  0  3.936677  0
C  C83  1  0.44773322  0.91118297  0.45643148  1  0.401895  0  -0.015294  -0.04476  0  4.004415  0
C  C84  1  0.55091756  0.94181981  0.40209764  1  0.302973  0  -0.001763  -0.088805  0  3.895438  0
C  C85  1  0.80662284  0.86302612  0.38438886  1  0.25782  0  -0.047928  -0.107471  0  3.878335  0
C  C86  1  0.86491400  0.80456651  0.31481460  1  -0.01654  0  -0.017844  0.082421  0  3.981082  0
C  C87  1  0.87370501  0.86398383  0.23605942  1  -0.020535  0  -0.096291  -0.122317  0  3.971928  0
C  C88  1  0.91361546  0.69020617  0.32805859  1  -0.06715  0  -0.10072  -0.138111  0  3.998254  0
C  C89  1  0.31226308  0.65454021  0.50491205  1  0.969728  0  0.135891  0.076508  0  3.946534  0
C  C90  1  0.38462872  0.52170266  0.60087272  1  0.445604  0  -0.005257  -0.02157  0  3.991144  0
C  C91  1  0.34183078  0.47999380  0.55698708  1  0.325112  0  0.003489  -0.088818  0  3.901659  0
C  C92  1  0.24135157  0.55982825  0.43419359  1  0.284396  0  -0.042212  -0.105031  0  3.894762  0
C  C93  1  0.11644560  0.52867415  0.46872487  1  -0.069721  0  -0.014327  0.078645  0  3.983149  0
C  C94  1  0.01488015  0.57732066  0.52950472  1  0.026312  0  -0.093644  -0.131556  0  3.980594  0
C  C95  1  0.10058332  0.45132823  0.43944433  1  -0.117618  0  -0.09225  -0.131081  0  3.985345  0
C  C96  1  0.07997876  0.29480398  0.99037663  1  0.907065  0  0.124648  0.079332  0  3.938676  0
C  C97  1  0.18496062  0.41079702  0.95638700  1  0.367461  0  -0.015793  -0.044537  0  4.00499  0
C  C98  1  0.10534061  0.44156841  0.90209325  1  0.335311  0  -0.001833  -0.088536  0  3.896284  0
C  C99  1  0.94576829  0.36308645  0.88440075  1  0.256653  0  -0.04858  -0.108244  0  3.879589  0
C  C100  1  0.01547636  0.30469612  0.81478237  1  -0.120677  0  -0.018984  0.082471  0  3.982229  0
C  C101  1  0.02635074  0.36411374  0.73602860  1  -0.02845  0  -0.095847  -0.123514  0  3.971412  0
C  C102  1  0.06769652  0.19034121  0.82802474  1  -0.022256  0  -0.100479  -0.13856  0  3.999672  0
C  C103  1  0.52845408  0.15443917  0.00510548  1  0.988879  0  0.135192  0.075531  0  3.946514  0
C  C104  1  0.49314999  0.02153806  0.10106306  1  0.418902  0  -0.005251  -0.020999  0  3.991976  0
C  C105  1  0.62148897  0.97990128  0.05714299  1  0.326937  0  0.004133  -0.088201  0  3.902041  0
C  C106  1  0.76459040  0.05995626  0.93430390  1  0.290311  0  -0.042275  -0.104306  0  3.894404  0
C  C107  1  0.88610370  0.02875387  0.96880473  1  -0.053781  0  -0.01422  0.077332  0  3.984865  0
C  C108  1  0.87835626  0.07718982  0.02970555  1  -0.045161  0  -0.093968  -0.130892  0  3.979059  0
C  C109  1  0.00846268  0.95156979  0.93932659  1  -0.053055  0  -0.092428  -0.131852  0  3.987136  0
C  C110  1  0.36537919  0.20505920  0.50966648  1  0.976242  0  0.123378  0.076672  0  3.936621  0
C  C111  1  0.55226137  0.08881627  0.54356291  1  0.402391  0  -0.015281  -0.044698  0  4.004246  0
C  C112  1  0.44907761  0.05818023  0.59789815  1  0.302668  0  -0.001763  -0.08881  0  3.895558  0
C  C113  1  0.19337834  0.13697310  0.61560765  1  0.257277  0  -0.047902  -0.107398  0  3.878315  0
C  C114  1  0.13508149  0.19543268  0.68518466  1  -0.016421  0  -0.017816  0.082425  0  3.980883  0
C  C115  1  0.12629261  0.13601699  0.76393964  1  -0.020563  0  -0.096336  -0.12237  0  3.971949  0
C  C116  1  0.08637934  0.30979468  0.67193876  1  -0.067389  0  -0.100603  -0.138022  0  3.998269  0
C  C117  1  0.68773493  0.34545077  0.49509300  1  0.969201  0  0.135968  0.076616  0  3.946242  0
C  C118  1  0.61536633  0.47829076  0.39913346  1  0.446855  0  -0.005289  -0.02167  0  3.991122  0
C  C119  1  0.65816557  0.51999881  0.44301848  1  0.310375  0  0.003564  -0.0887  0  3.901487  0
C  C120  1  0.75865446  0.44016598  0.56581315  1  0.283994  0  -0.042166  -0.104997  0  3.894827  0
C  C121  1  0.88355030  0.47132174  0.53127894  1  -0.068776  0  -0.014198  0.078849  0  3.983018  0
C  C122  1  0.98511316  0.42267686  0.47049922  1  0.024993  0  -0.09363  -0.131539  0  3.980635  0
C  C123  1  0.89941070  0.54866766  0.56055928  1  -0.117863  0  -0.092252  -0.131069  0  3.985415  0
S  S124  1  0.39937764  0.86653246  0.79759673  1  -0.685554  0  -0.382437  -0.45002  0  2.522298  0
S  S125  1  0.73530785  0.64470224  0.83362846  1  -0.689598  0  -0.417642  -0.476914  0  2.794825  0
S  S126  1  0.52716986  0.63378608  0.70342289  1  -0.730227  0  -0.435554  -0.50887  0  2.804959  0
S  S127  1  0.21149796  0.67678011  0.86050313  1  -0.712562  0  -0.407647  -0.476686  0  2.421461  0
S  S128  1  0.06347850  0.63353099  0.70237529  1  -0.686695  0  -0.381973  -0.449059  0  2.520768  0
S  S129  1  0.21352233  0.85534830  0.66639849  1  -0.687876  0  -0.416523  -0.475296  0  2.792714  0
S  S130  1  0.86440374  0.86630718  0.79655294  1  -0.72452  0  -0.435734  -0.508394  0  2.803934  0
S  S131  1  0.74876070  0.82318742  0.63950400  1  -0.714403  0  -0.407412  -0.476793  0  2.422523  0
S  S132  1  0.60062490  0.13347252  0.20239436  1  -0.685626  0  -0.382448  -0.450114  0  2.522084  0
S  S133  1  0.26469037  0.35529941  0.16636975  1  -0.689338  0  -0.417642  -0.476832  0  2.795119  0
S  S134  1  0.47284379  0.36621727  0.29656760  1  -0.730194  0  -0.435647  -0.508864  0  2.805213  0
S  S135  1  0.78851828  0.32322161  0.13948779  1  -0.71262  0  -0.407592  -0.476786  0  2.421047  0
S  S136  1  0.93652008  0.36647638  0.29762270  1  -0.686754  0  -0.381976  -0.449094  0  2.520588  0
S  S137  1  0.78647617  0.14465503  0.33359483  1  -0.687865  0  -0.416541  -0.475293  0  2.79297  0
S  S138  1  0.13559867  0.13369769  0.20345102  1  -0.72439  0  -0.435761  -0.508347  0  2.804164  0
S  S139  1  0.25124285  0.17682158  0.36049439  1  -0.714287  0  -0.40743  -0.476886  0  2.422356  0
N  N140  1  0.83170496  0.68098673  0.98880220  1  -1.208323  0  -0.391587  -0.273035  0  3.697816  0
N  N141  1  0.96050991  0.63285174  0.07530212  1  -1.212645  0  -0.241187  0.050006  0  3.766934  0
N  N142  1  0.56391950  0.86976954  0.93221116  1  -1.218968  0  -0.386712  -0.261472  0  3.701125  0
N  N143  1  0.35781038  0.93471909  0.00358167  1  -1.265489  0  -0.244777  0.036483  0  3.815909  0
N  N144  1  0.50126988  0.81932925  0.51120763  1  -1.223875  0  -0.390253  -0.269124  0  3.694984  0
N  N145  1  0.66851749  0.86723936  0.42463190  1  -1.234935  0  -0.242039  0.049916  0  3.763781  0
N  N146  1  0.36622081  0.63040602  0.56757228  1  -1.19845  0  -0.386955  -0.262702  0  3.70161  0
N  N147  1  0.29636787  0.56531310  0.49626616  1  -1.239391  0  -0.245375  0.036514  0  3.81312  0
N  N148  1  0.16829479  0.31901573  0.01119665  1  -1.208324  0  -0.391599  -0.273064  0  3.697591  0
N  N149  1  0.03948964  0.36715565  0.92469346  1  -1.212654  0  -0.241157  0.050002  0  3.766978  0
N  N150  1  0.43607963  0.13023208  0.06779023  1  -1.218977  0  -0.386654  -0.26147  0  3.700953  0
N  N151  1  0.64219346  0.06528252  0.99642107  1  -1.265869  0  -0.244804  0.036316  0  3.816091  0
N  N152  1  0.49872214  0.18067163  0.48878521  1  -1.224098  0  -0.390272  -0.269237  0  3.695001  0
N  N153  1  0.33147957  0.13276068  0.57536465  1  -1.234998  0  -0.242055  0.049864  0  3.764051  0
N  N154  1  0.63377497  0.36958579  0.43243133  1  -1.198505  0  -0.387041  -0.262755  0  3.701343  0
N  N155  1  0.70363225  0.43467950  0.50374037  1  -1.22431  0  -0.245529  0.036235  0  3.813121  0
