# generated using pymatgen
data_Zn2H24C30SN2O13
_symmetry_space_group_name_H-M   'P 1'
_cell_length_a   8.12167285
_cell_length_b   10.28259239
_cell_length_c   17.49401421
_cell_angle_alpha   83.40429811
_cell_angle_beta   77.47680003
_cell_angle_gamma   84.69631103
_symmetry_Int_Tables_number   1
_chemical_formula_structural   Zn2H24C30SN2O13
_chemical_formula_sum   'Zn4 H48 C60 S2 N4 O26'
_cell_volume   1413.32022930
_cell_formula_units_Z   2
loop_
 _symmetry_equiv_pos_site_id
 _symmetry_equiv_pos_as_xyz
  1  'x, y, z'
loop_
 _atom_site_type_symbol
 _atom_site_label
 _atom_site_symmetry_multiplicity
 _atom_site_fract_x
 _atom_site_fract_y
 _atom_site_fract_z
 _atom_site_occupancy
 _atom_site_hle17_bader_spin_density
 _atom_site_hle17_ddec_charge
 _atom_site_hle17_ddec_spin_density
 _atom_site_hle17_ddec_sum_bond_order
 _atom_site_hle17_magmom
 _atom_site_hse06_10hf_bader_charge
 _atom_site_hse06_10hf_bader_spin_density
 _atom_site_hse06_10hf_ddec_charge
 _atom_site_hse06_10hf_ddec_spin_density
 _atom_site_hse06_10hf_ddec_sum_bond_order
 _atom_site_hse06_10hf_magmom
 _atom_site_hse06_bader_spin_density
 _atom_site_hse06_ddec_charge
 _atom_site_hse06_ddec_spin_density
 _atom_site_hse06_ddec_sum_bond_order
 _atom_site_hse06_magmom
 _atom_site_pbe_bader_spin_density
 _atom_site_pbe_cm5_charge
 _atom_site_pbe_ddec_charge
 _atom_site_pbe_ddec_spin_density
 _atom_site_pbe_ddec_sum_bond_order
 _atom_site_pbe_magmom
Zn  Zn0  1  0.40547957  0.43748581  0.61973906  1  0  1.163677  0  1.672582  0  1.359039  0  0.991905  0  2.136494  0  0  1.043932  0  2.071391  0  0  0.672432  0.951198  0  2.184868  0
Zn  Zn1  1  0.59452042  0.56251828  0.38026077  1  0  1.163661  0  1.672576  0  1.358886  0  0.991877  0  2.1365  0  0  1.043907  0  2.071395  0  0  0.672425  0.95117  0  2.18488  0
Zn  Zn2  1  0.01565045  0.58451913  0.07572430  1  0  1.162167  0  1.719358  0  1.383583  0  0.998245  0  2.179183  0  0  1.048263  0  2.114403  0  0  0.683466  0.960631  0  2.225465  0
Zn  Zn3  1  0.98434885  0.41547906  0.92427597  1  0  1.162142  0  1.719374  0  1.383622  0  0.998245  0  2.179177  0  0  1.048266  0  2.114398  0  0  0.68349  0.960628  0  2.225456  0
H  H4  1  0.40777146  0.91455519  0.64353264  1  0  0.09805  0  0.969893  0  0.092221  0  0.106655  0  1.038177  0  0  0.110007  0  1.035262  0  0  0.104775  0.104222  0  1.040386  0
H  H5  1  0.59222736  0.08544790  0.35646794  1  0  0.098072  0  0.969827  0  0.092222  0  0.106666  0  1.038123  0  0  0.109997  0  1.035264  0  0  0.104767  0.104236  0  1.040323  0
H  H6  1  0.23643333  0.77881101  0.45297253  1  0  0.104129  0  0.96831  0  0.13292  0  0.111876  0  1.035751  0  0  0.115472  0  1.032954  0  0  0.103172  0.10931  0  1.037727  0
H  H7  1  0.76356676  0.22119211  0.54702621  1  0  0.104135  0  0.968252  0  0.132894  0  0.11186  0  1.035734  0  0  0.115456  0  1.032934  0  0  0.103147  0.109292  0  1.037709  0
H  H8  1  0.22622514  0.19428273  0.47425271  1  0  0.103999  0  0.952435  0  0.107683  0  0.111787  0  1.020324  0  0  0.115425  0  1.017441  0  0  0.103403  0.109288  0  1.022121  0
H  H9  1  0.77377747  0.80572040  0.52574577  1  0  0.104059  0  0.952393  0  0.107764  0  0.111846  0  1.020285  0  0  0.115485  0  1.017399  0  0  0.103422  0.109348  0  1.022085  0
H  H10  1  0.97662601  0.83908129  0.26583680  1  0  0.102919  0  0.949259  0  0.10789  0  0.111583  0  1.014316  0  0  0.1153  0  1.011276  0  0  0.106267  0.109039  0  1.016346  0
H  H11  1  0.02337183  0.16091884  0.73416521  1  0  0.102908  0  0.949274  0  0.107855  0  0.11157  0  1.014337  0  0  0.115288  0  1.011294  0  0  0.106266  0.109021  0  1.01637  0
H  H12  1  0.87968635  0.07420450  0.05955235  1  0  0.105278  0  0.961797  0  0.090303  0  0.114331  0  1.027358  0  0  0.11763  0  1.024799  0  0  0.107374  0.111893  0  1.02938  0
H  H13  1  0.12031159  0.92579464  0.94045028  1  0  0.105292  0  0.961781  0  0.090256  0  0.114323  0  1.027353  0  0  0.117622  0  1.024798  0  0  0.107375  0.111887  0  1.02938  0
H  H14  1  0.06399572  0.25189043  0.23239000  1  0  0.110012  0  0.957201  0  0.117155  0  0.120558  0  1.019373  0  0  0.124088  0  1.016733  0  0  0.107969  0.118128  0  1.021074  0
H  H15  1  0.93600853  0.74810877  0.76760914  1  0  0.110007  0  0.957172  0  0.117162  0  0.120536  0  1.019367  0  0  0.124064  0  1.016722  0  0  0.107975  0.118108  0  1.021067  0
H  H16  1  0.36600890  0.64505964  0.22141455  1  0  0.121837  0  0.957279  0  0.187093  0  0.124123  0  1.028206  0  0  0.128463  0  1.024041  0  0  0.127189  0.12095  0  1.031172  0
H  H17  1  0.63399438  0.35493663  0.77858316  1  0  0.121737  0  0.95731  0  0.187121  0  0.124081  0  1.028199  0  0  0.128435  0  1.024011  0  0  0.127164  0.120892  0  1.031181  0
H  H18  1  0.45135725  0.85911312  0.24384409  1  0  0.137728  0  0.966604  0  0.189778  0  0.146093  0  1.025151  0  0  0.14994  0  1.023017  0  0  0.116282  0.143283  0  1.027235  0
H  H19  1  0.54864226  0.14088313  0.75615400  1  0  0.13764  0  0.966657  0  0.189792  0  0.146037  0  1.025229  0  0  0.149885  0  1.023095  0  0  0.116259  0.143226  0  1.027314  0
H  H20  1  0.31963634  0.01577880  0.02091975  1  0  0.122693  0  0.9651  0  0.144679  0  0.128727  0  1.031067  0  0  0.132598  0  1.028906  0  0  0.109882  0.125931  0  1.032224  0
H  H21  1  0.68035917  0.98421938  0.97908090  1  0  0.12272  0  0.965031  0  0.144009  0  0.128763  0  1.030975  0  0  0.132632  0  1.028817  0  0  0.109899  0.125964  0  1.032131  0
H  H22  1  0.24082164  0.79195525  0.00948410  1  0  0.115216  0  1.00106  0  0.20995  0  0.121703  0  1.064847  0  0  0.125495  0  1.061481  0  0  0.1252  0.118927  0  1.067419  0
H  H23  1  0.75917505  0.20804392  0.99051522  1  0  0.115275  0  1.001042  0  0.209994  0  0.121768  0  1.064837  0  0  0.125552  0  1.061497  0  0  0.125223  0.118992  0  1.067407  0
H  H24  1  0.56321176  0.02716902  0.24371251  1  0  0.130543  0  0.969263  0  0.169872  0  0.136986  0  1.032407  0  0  0.141077  0  1.029919  0  0  0.115175  0.133929  0  1.034032  0
H  H25  1  0.43678502  0.97282916  0.75628801  1  0  0.130482  0  0.969249  0  0.169901  0  0.136947  0  1.032366  0  0  0.141036  0  1.029877  0  0  0.115149  0.133893  0  1.033989  0
H  H26  1  0.64089604  0.25196367  0.25565428  1  0  0.122395  0  0.959323  0  0.197951  0  0.13039  0  1.019266  0  0  0.133763  0  1.016431  0  0  0.130302  0.127798  0  1.021442  0
H  H27  1  0.35910084  0.74803353  0.74434572  1  0  0.122452  0  0.959261  0  0.197998  0  0.130447  0  1.019184  0  0  0.133818  0  1.016363  0  0  0.130345  0.127867  0  1.02135  0
H  H28  1  0.33126798  0.19979316  0.05089064  1  0  0.121488  0  0.952936  0  0.106687  0  0.132074  0  1.009692  0  0  0.135213  0  1.008687  0  0  0.115294  0.129732  0  1.010975  0
H  H29  1  0.66873511  0.80020506  0.94910811  1  0  0.121516  0  0.952899  0  0.106698  0  0.132116  0  1.009643  0  0  0.135257  0  1.008637  0  0  0.115314  0.129778  0  1.010928  0
H  H30  1  0.41799321  0.41606617  0.07206607  1  0  0.13323  0  0.938497  0  0.194446  0  0.1372  0  1.004873  0  0  0.142222  0  0.999603  0  0  0.13159  0.133797  0  1.008339  0
H  H31  1  0.58201114  0.58393206  0.92793256  1  0  0.133203  0  0.93848  0  0.194394  0  0.137194  0  1.004849  0  0  0.142217  0  0.99958  0  0  0.131586  0.133793  0  1.008309  0
H  H32  1  0.97379736  0.34581130  0.65516853  1  0  0.154498  0  0.924361  0  0.081406  0  0.176578  0  0.974196  0  0  0.17852  0  0.973906  0  0  0.10879  0.17516  0  0.974374  0
H  H33  1  0.02620029  0.65419079  0.34483394  1  0  0.154497  0  0.924308  0  0.081397  0  0.176569  0  0.974163  0  0  0.17851  0  0.973872  0  0  0.108792  0.175153  0  0.97434  0
H  H34  1  0.07753393  0.46226115  0.57892678  1  0  0.155197  0  0.968052  0  0.132321  0  0.169872  0  1.03383  0  0  0.171964  0  1.033628  0  0  0.10454  0.16815  0  1.034401  0
H  H35  1  0.92246769  0.53773900  0.42107542  1  0  0.155189  0  0.96806  0  0.132295  0  0.169867  0  1.033837  0  0  0.171958  0  1.033636  0  0  0.104542  0.168148  0  1.034402  0
H  H36  1  0.97563298  0.33101781  0.55335446  1  0  0.148941  0  0.941927  0  0.069139  0  0.166992  0  1.001253  0  0  0.168825  0  1.000828  0  0  0.105957  0.165464  0  1.00184  0
H  H37  1  0.02437136  0.66898039  0.44664759  1  0  0.148927  0  0.941913  0  0.069109  0  0.167019  0  1.001204  0  0  0.168854  0  1.000775  0  0  0.105953  0.165489  0  1.001795  0
H  H38  1  0.69928198  0.66602859  0.69056983  1  0  0.161508  0  0.955527  0  0.136524  0  0.175257  0  1.017597  0  0  0.177582  0  1.017342  0  0  0.105617  0.173355  0  1.018138  0
H  H39  1  0.30071927  0.33397553  0.30942701  1  0  0.161508  0  0.955544  0  0.136582  0  0.175257  0  1.017616  0  0  0.177582  0  1.01736  0  0  0.105619  0.173355  0  1.018151  0
H  H40  1  0.92492783  0.64346866  0.65795531  1  0  0.150904  0  0.925703  0  0.072055  0  0.173036  0  0.977796  0  0  0.174482  0  0.977856  0  0  0.109438  0.171877  0  0.977837  0
H  H41  1  0.07507488  0.35653349  0.34204266  1  0  0.150918  0  0.925662  0  0.072094  0  0.173047  0  0.977766  0  0  0.174493  0  0.977824  0  0  0.109437  0.171884  0  0.977807  0
H  H42  1  0.81706695  0.52859876  0.73396903  1  0  0.163252  0  0.924121  0  0.097915  0  0.179158  0  0.983189  0  0  0.182581  0  0.980881  0  0  0.10908  0.176722  0  0.984802  0
H  H43  1  0.18293304  0.47140534  0.26602965  1  0  0.163219  0  0.924169  0  0.097843  0  0.179109  0  0.983258  0  0  0.182529  0  0.980953  0  0  0.109058  0.17667  0  0.984873  0
H  H44  1  0.31448943  0.50570277  0.76134630  1  0  0.425172  0  0.878714  0  0.663461  0  0.387739  0  0.953276  0  0  0.399898  0  0.935838  0  0  0.292028  0.378972  0  0.965819  0
H  H45  1  0.68550977  0.49429639  0.23865506  1  0  0.425165  0  0.878723  0  0.66349  0  0.38773  0  0.953289  0  0  0.39989  0  0.935851  0  0  0.292026  0.378962  0  0.965836  0
H  H46  1  0.20390103  0.38502396  0.76221870  1  0  0.434816  0  0.856742  0  0.665835  0  0.405553  0  0.916504  0  0  0.415922  0  0.901467  0  0  0.297263  0.398035  0  0.927409  0
H  H47  1  0.79610070  0.61497524  0.23778013  1  0  0.434796  0  0.856769  0  0.665822  0  0.405538  0  0.916526  0  0  0.415903  0  0.901494  0  0  0.297256  0.398023  0  0.927424  0
H  H48  1  0.74047714  0.69229968  0.06258957  1  0  0.401565  0  0.908056  0  0.633454  0  0.370634  0  0.978698  0  0  0.382159  0  0.962135  0  0  0.281105  0.362603  0  0.990173  0
H  H49  1  0.25952090  0.30769851  0.93741082  1  0  0.401532  0  0.908081  0  0.633459  0  0.370599  0  0.978742  0  0  0.382125  0  0.962177  0  0  0.281101  0.362571  0  0.990212  0
H  H50  1  0.68735465  0.54407977  0.09179047  1  0  0.413194  0  0.896002  0  0.646651  0  0.378506  0  0.966068  0  0  0.39022  0  0.949372  0  0  0.28388  0.370442  0  0.977575  0
H  H51  1  0.31264330  0.45591940  0.90820987  1  0  0.413208  0  0.89596  0  0.646661  0  0.378415  0  0.966188  0  0  0.390129  0  0.949493  0  0  0.283834  0.370347  0  0.977701  0
C  C52  1  0.35066302  0.93518310  0.59237936  1  0  -0.057011  0  3.690579  0  -0.095792  0  -0.094982  0  3.938276  0  0  -0.091637  0  3.958216  0  0  -0.070855  -0.09739  0  3.925988  0
C  C53  1  0.64933958  0.06482002  0.40762027  1  0  -0.057051  0  3.690685  0  -0.095786  0  -0.095045  0  3.938355  0  0  -0.091699  0  3.958294  0  0  -0.070894  -0.097453  0  3.92606  0
C  C54  1  0.32126224  0.83135220  0.55285954  1  0  -0.06527  0  3.769648  0  -0.034116  0  -0.040079  0  4.004905  0  0  -0.050099  0  4.028692  0  0  -0.018692  -0.03389  0  3.98975  0
C  C55  1  0.67873542  0.16864991  0.44714064  1  0  -0.06518  0  3.76961  0  -0.034118  0  -0.039921  0  4.004797  0  0  -0.049971  0  4.028627  0  0  -0.018636  -0.033723  0  3.989625  0
C  C56  1  0.25333275  0.85868591  0.48562830  1  0  -0.082904  0  3.639928  0  0.022579  0  -0.116206  0  3.883295  0  0  -0.114031  0  3.900165  0  0  -0.070016  -0.116777  0  3.871491  0
C  C57  1  0.74666869  0.14131623  0.51437093  1  0  -0.082887  0  3.639974  0  0.02251  0  -0.116227  0  3.883323  0  0  -0.114038  0  3.9002  0  0  -0.069984  -0.116794  0  3.87151  0
C  C58  1  0.21679363  0.98954761  0.45689575  1  0  0.111194  0  3.892342  0  0.049115  0  0.128729  0  4.12328  0  0  0.128205  0  4.144939  0  0  0.000929  0.128826  0  4.10832  0
C  C59  1  0.78320898  0.01045552  0.54310330  1  0  0.111098  0  3.892491  0  0.049123  0  0.128714  0  4.123338  0  0  0.128181  0  4.145018  0  0  0.000958  0.128809  0  4.108375  0
C  C60  1  0.24877979  0.09262406  0.49698549  1  0  -0.081411  0  3.638325  0  -0.030639  0  -0.114649  0  3.882362  0  0  -0.112025  0  3.898725  0  0  -0.067583  -0.11552  0  3.87074  0
C  C61  1  0.75122136  0.90738102  0.50301359  1  0  -0.08145  0  3.638492  0  -0.030653  0  -0.114737  0  3.882495  0  0  -0.112116  0  3.898862  0  0  -0.067579  -0.115608  0  3.870881  0
C  C62  1  0.31418499  0.06552304  0.56516295  1  0  -0.066864  0  3.759933  0  0.058057  0  -0.039395  0  3.991412  0  0  -0.049659  0  4.01648  0  0  -0.016107  -0.032948  0  3.975382  0
C  C63  1  0.68581509  0.93448007  0.43483693  1  0  -0.066889  0  3.76006  0  0.058454  0  -0.039355  0  3.991419  0  0  -0.049607  0  4.016466  0  0  -0.016113  -0.032916  0  3.975399  0
C  C64  1  0.15067006  0.01443653  0.38767722  1  0  -0.083357  0  3.842421  0  -0.227233  0  -0.080545  0  4.089166  0  0  -0.083404  0  4.121263  0  0  -0.036558  -0.078854  0  4.067477  0
C  C65  1  0.84933534  0.98556362  0.61232632  1  0  -0.083488  0  3.84294  0  -0.227388  0  -0.080703  0  4.089648  0  0  -0.083559  0  4.12174  0  0  -0.036713  -0.07901  0  4.067964  0
C  C66  1  0.09176231  0.02973592  0.32851165  1  0  -0.11154  0  3.863943  0  -0.200987  0  -0.110179  0  4.115443  0  0  -0.115391  0  4.148908  0  0  -0.043605  -0.106205  0  4.092523  0
C  C67  1  0.90823440  0.97026329  0.67148366  1  0  -0.111346  0  3.86423  0  -0.200962  0  -0.109989  0  4.115694  0  0  -0.115191  0  4.14916  0  0  -0.043516  -0.106013  0  4.092782  0
C  C68  1  0.02806955  0.04364476  0.25864115  1  0  0.111567  0  3.897976  0  0.138651  0  0.129512  0  4.130191  0  0  0.129435  0  4.15205  0  0  -0.000279  0.129282  0  4.115226  0
C  C69  1  0.97193091  0.95635441  0.74135951  1  0  0.111509  0  3.897795  0  0.139006  0  0.129486  0  4.129971  0  0  0.12938  0  4.151881  0  0  -0.000258  0.129252  0  4.115014  0
C  C70  1  0.97404150  0.93411136  0.23162672  1  0  -0.064844  0  3.633669  0  -0.006208  0  -0.101306  0  3.882458  0  0  -0.098557  0  3.899159  0  0  -0.063024  -0.102791  0  3.871324  0
C  C71  1  0.02595635  0.06588878  0.76837471  1  0  -0.064771  0  3.633664  0  -0.006133  0  -0.101241  0  3.882452  0  0  -0.098484  0  3.899158  0  0  -0.063027  -0.102717  0  3.871306  0
C  C72  1  0.91869415  0.94597064  0.16085040  1  0  -0.070966  0  3.773994  0  0.007401  0  -0.045371  0  4.010922  0  0  -0.055364  0  4.034651  0  0  -0.017969  -0.039173  0  3.995505  0
C  C73  1  0.08130399  0.05402655  0.83915119  1  0  -0.070998  0  3.774033  0  0.00725  0  -0.045423  0  4.010976  0  0  -0.055411  0  4.034691  0  0  -0.017954  -0.039224  0  3.995555  0
C  C74  1  0.91883146  0.06699127  0.11551862  1  0  -0.064335  0  3.704945  0  -0.01314  0  -0.102292  0  3.954325  0  0  -0.098267  0  3.972917  0  0  -0.076574  -0.10474  0  3.942056  0
C  C75  1  0.08116667  0.93300592  0.88448355  1  0  -0.064346  0  3.705019  0  -0.013009  0  -0.102253  0  3.954353  0  0  -0.09823  0  3.972943  0  0  -0.076573  -0.104701  0  3.94209  0
C  C76  1  0.97050921  0.17676450  0.14175067  1  0  -0.085546  0  3.796786  0  0.028703  0  -0.061668  0  4.036993  0  0  -0.072406  0  4.060827  0  0  -0.022317  -0.054776  0  4.021159  0
C  C77  1  0.02949116  0.82323567  0.85824937  1  0  -0.085599  0  3.796895  0  0.028669  0  -0.061734  0  4.037103  0  0  -0.072471  0  4.060931  0  0  -0.022345  -0.054848  0  4.021281  0
C  C78  1  0.02352095  0.16543627  0.21318694  1  0  -0.089612  0  3.649602  0  -0.085599  0  -0.121977  0  3.890293  0  0  -0.119634  0  3.907055  0  0  -0.071126  -0.122928  0  3.878597  0
C  C79  1  0.97648058  0.83456488  0.78681349  1  0  -0.089555  0  3.649558  0  -0.085902  0  -0.121915  0  3.890263  0  0  -0.119558  0  3.907027  0  0  -0.071118  -0.122874  0  3.878585  0
C  C80  1  0.35188527  0.17451350  0.60821997  1  0  0.641568  0  3.926147  0  1.62244  0  0.593365  0  4.216783  0  0  0.627229  0  4.211169  0  0  0.203056  0.569889  0  4.22017  0
C  C81  1  0.64811607  0.82548962  0.39177978  1  0  0.641538  0  3.926179  0  1.622061  0  0.593378  0  4.216723  0  0  0.627241  0  4.211107  0  0  0.203046  0.569902  0  4.220113  0
C  C82  1  0.37140964  0.69351277  0.58159759  1  0  0.646008  0  3.911094  0  1.597369  0  0.598758  0  4.196222  0  0  0.63333  0  4.189821  0  0  0.201262  0.575  0  4.199842  0
C  C83  1  0.62859044  0.30649035  0.41840172  1  0  0.645988  0  3.911212  0  1.597379  0  0.598684  0  4.196383  0  0  0.633267  0  4.18998  0  0  0.201223  0.574921  0  4.200003  0
C  C84  1  0.86482747  0.82932359  0.13098156  1  0  0.661068  0  3.868498  0  1.59141  0  0.609031  0  4.159826  0  0  0.642773  0  4.15311  0  0  0.214374  0.586148  0  4.163415  0
C  C85  1  0.13517067  0.17067361  0.86901947  1  0  0.661075  0  3.868509  0  1.591403  0  0.609009  0  4.159863  0  0  0.642758  0  4.153142  0  0  0.214403  0.586135  0  4.163437  0
C  C86  1  0.96977220  0.30676821  0.09401525  1  0  0.685234  0  3.858094  0  1.592321  0  0.628848  0  4.149069  0  0  0.66484  0  4.141538  0  0  0.224432  0.604099  0  4.153524  0
C  C87  1  0.03022681  0.69323292  0.90598543  1  0  0.685225  0  3.857939  0  1.592347  0  0.628825  0  4.148934  0  0  0.66482  0  4.141404  0  0  0.224417  0.604084  0  4.153388  0
C  C88  1  0.35839413  0.73134078  0.17992360  1  0  0.018541  0  3.570827  0  0.401496  0  -0.024104  0  3.836578  0  0  -0.016617  0  3.84571  0  0  0.038694  -0.029302  0  3.831859  0
C  C89  1  0.64160518  0.26865742  0.82007552  1  0  0.018583  0  3.570807  0  0.401045  0  -0.024065  0  3.836573  0  0  -0.016586  0  3.845695  0  0  0.038707  -0.029249  0  3.831856  0
C  C90  1  0.40526613  0.85251126  0.19043500  1  0  -0.109901  0  3.668758  0  -0.048475  0  -0.129077  0  3.918363  0  0  -0.133559  0  3.935188  0  0  -0.068184  -0.129272  0  3.91031  0
C  C91  1  0.59473444  0.14748695  0.80956342  1  0  -0.109666  0  3.668487  0  -0.048108  0  -0.128993  0  3.918292  0  0  -0.133472  0  3.93512  0  0  -0.06816  -0.12919  0  3.910234  0
C  C92  1  0.39273974  0.96114504  0.13454288  1  0  0.080802  0  3.758785  0  0.016429  0  0.086942  0  3.997051  0  0  0.09086  0  4.017013  0  0  0.006026  0.084161  0  3.984118  0
C  C93  1  0.60725695  0.03885414  0.86545644  1  0  0.080726  0  3.758699  0  0.016378  0  0.086909  0  3.997026  0  0  0.090822  0  4.016989  0  0  0.006063  0.08413  0  3.984091  0
C  C94  1  0.33315147  0.93881295  0.06791584  1  0  -0.130144  0  3.71977  0  -0.031043  0  -0.149221  0  3.977408  0  0  -0.155049  0  3.997364  0  0  -0.076058  -0.142885  0  3.961376  0
C  C95  1  0.66684279  0.06118522  0.93208494  1  0  -0.130148  0  3.71976  0  -0.030406  0  -0.149202  0  3.977404  0  0  -0.155025  0  3.997353  0  0  -0.076085  -0.142866  0  3.961371  0
C  C96  1  0.28864487  0.81603837  0.05914984  1  0  -0.015334  0  3.635305  0  0.34085  0  -0.057459  0  3.898481  0  0  -0.052215  0  3.912365  0  0  0.027651  -0.060734  0  3.887788  0
C  C97  1  0.71135317  0.18395982  0.94084998  1  0  -0.015402  0  3.635411  0  0.340875  0  -0.057553  0  3.898596  0  0  -0.052316  0  3.912476  0  0  0.027624  -0.060828  0  3.887901  0
C  C98  1  0.44093378  0.09091936  0.14473420  1  0  0.076972  0  3.760622  0  0.011605  0  0.084877  0  3.996852  0  0  0.088802  0  4.017448  0  0  0.004594  0.081879  0  3.983525  0
C  C99  1  0.55906426  0.90907883  0.85526562  1  0  0.076968  0  3.760643  0  0.01137  0  0.084856  0  3.996926  0  0  0.088784  0  4.01752  0  0  0.004588  0.081856  0  3.98361  0
C  C100  1  0.52797942  0.10899374  0.20347575  1  0  -0.12553  0  3.697729  0  0.1031  0  -0.144193  0  3.949579  0  0  -0.150121  0  3.968629  0  0  -0.072573  -0.13838  0  3.934903  0
C  C101  1  0.47201610  0.89100443  0.79652490  1  0  -0.125492  0  3.69772  0  0.103184  0  -0.144163  0  3.949571  0  0  -0.150088  0  3.968622  0  0  -0.072555  -0.13835  0  3.934906  0
C  C102  1  0.57564634  0.23151486  0.21086886  1  0  0.005954  0  3.609098  0  0.270952  0  -0.0359  0  3.872748  0  0  -0.028946  0  3.884746  0  0  0.038038  -0.040265  0  3.863832  0
C  C103  1  0.42435296  0.76848334  0.78913084  1  0  0.005891  0  3.609056  0  0.270876  0  -0.035949  0  3.872708  0  0  -0.029002  0  3.884713  0  0  0.03804  -0.040325  0  3.863797  0
C  C104  1  0.40247223  0.20383606  0.09639384  1  0  -0.131194  0  3.722964  0  -0.049773  0  -0.148003  0  3.975317  0  0  -0.154186  0  3.995344  0  0  -0.075984  -0.146607  0  3.965045  0
C  C105  1  0.59752950  0.79616314  0.90360498  1  0  -0.131284  0  3.722984  0  -0.049532  0  -0.14812  0  3.975401  0  0  -0.154305  0  3.995429  0  0  -0.076065  -0.146733  0  3.965141  0
C  C106  1  0.45029189  0.32530931  0.10570998  1  0  0.024361  0  3.561963  0  0.420771  0  -0.020376  0  3.828971  0  0  -0.012159  0  3.838181  0  0  0.040879  -0.026601  0  3.824311  0
C  C107  1  0.54970868  0.67468890  0.89428960  1  0  0.024512  0  3.561816  0  0.420816  0  -0.020232  0  3.82881  0  0  -0.012017  0  3.838024  0  0  0.040988  -0.026443  0  3.824143  0
C  C108  1  0.97113864  0.39935391  0.59745316  1  0  -0.433829  0  3.573211  0  -0.206696  0  -0.507198  0  3.821729  0  0  -0.511476  0  3.827751  0  0  -0.230509  -0.504033  0  3.817946  0
C  C109  1  0.02886308  0.60064526  0.40254795  1  0  -0.433783  0  3.573213  0  -0.206642  0  -0.507184  0  3.821693  0  0  -0.511461  0  3.827715  0  0  -0.230507  -0.504023  0  3.817911  0
C  C110  1  0.80745325  0.59380898  0.68058067  1  0  -0.433187  0  3.533436  0  -0.21845  0  -0.504316  0  3.779042  0  0  -0.507716  0  3.782205  0  0  -0.230212  -0.501674  0  3.777157  0
C  C111  1  0.19254674  0.40619512  0.31941801  1  0  -0.4332  0  3.533446  0  -0.218466  0  -0.504313  0  3.779053  0  0  -0.507715  0  3.782221  0  0  -0.230226  -0.501663  0  3.777157  0
S  S112  1  0.77876851  0.50176459  0.60354494  1  0  0.744283  0  3.505526  0  1.178164  0  0.71768  0  3.943613  0  0  0.735025  0  3.939079  0  0  0.308209  0.704967  0  3.946789  0
S  S113  1  0.22123303  0.49823656  0.39645491  1  0  0.744323  0  3.505504  0  1.178197  0  0.717711  0  3.943592  0  0  0.735058  0  3.939058  0  0  0.30824  0.704997  0  3.94677  0
N  N114  1  0.29872845  0.71399198  0.11507086  1  0  0.281701  0  3.707996  0  -0.692634  0  0.332969  0  3.969099  0  0  0.333789  0  3.990613  0  0  -0.113864  0.333037  0  3.954133  0
N  N115  1  0.70127212  0.28600623  0.88492814  1  0  0.281641  0  3.708165  0  -0.692638  0  0.332954  0  3.969251  0  0  0.333775  0  3.990767  0  0  -0.113864  0.333024  0  3.954277  0
N  N116  1  0.53818306  0.33799963  0.16223152  1  0  0.281405  0  3.687578  0  -0.703552  0  0.32963  0  3.953197  0  0  0.329402  0  3.974771  0  0  -0.110508  0.330193  0  3.93855  0
N  N117  1  0.46181498  0.66199856  0.83776831  1  0  0.281407  0  3.687547  0  -0.70356  0  0.329626  0  3.953162  0  0  0.329397  0  3.974738  0  0  -0.11057  0.330183  0  3.938521  0
O  O118  1  0.34270027  0.29137400  0.57142877  1  0  -0.675476  0  2.06869  0  -1.196176  0  -0.599732  0  2.348417  0  0  -0.631293  0  2.33522  0  0  -0.330294  -0.576147  0  2.358009  0
O  O119  1  0.65730223  0.70863010  0.42857138  1  0  -0.675442  0  2.068688  0  -1.195913  0  -0.599727  0  2.3484  0  0  -0.631291  0  2.335205  0  0  -0.330301  -0.576141  0  2.357995  0
O  O120  1  0.38821157  0.14937331  0.67452409  1  0  -0.612937  0  1.945462  0  -1.215135  0  -0.568  0  2.174569  0  0  -0.591027  0  2.166548  0  0  -0.319235  -0.551009  0  2.179067  0
O  O121  1  0.61178861  0.85062881  0.32547584  1  0  -0.612942  0  1.945434  0  -1.215121  0  -0.568043  0  2.174549  0  0  -0.591056  0  2.166502  0  0  -0.319244  -0.551049  0  2.179046  0
O  O122  1  0.46249252  0.67503753  0.63220670  1  0  -0.643273  0  2.002732  0  -1.209272  0  -0.587356  0  2.237583  0  0  -0.613547  0  2.230022  0  0  -0.31664  -0.567931  0  2.24146  0
O  O123  1  0.53750775  0.32496361  0.36779328  1  0  -0.643315  0  2.002778  0  -1.209276  0  -0.587392  0  2.237661  0  0  -0.613577  0  2.230092  0  0  -0.316657  -0.567964  0  2.241533  0
O  O124  1  0.31862514  0.59652514  0.55425082  1  0  -0.675742  0  1.994057  0  -1.200858  0  -0.607279  0  2.260682  0  0  -0.636806  0  2.246027  0  0  -0.332324  -0.585081  0  2.271292  0
O  O125  1  0.68137495  0.40347798  0.44574791  1  0  -0.675683  0  1.994085  0  -1.200983  0  -0.607202  0  2.260729  0  0  -0.636729  0  2.24607  0  0  -0.332286  -0.585005  0  2.271337  0
O  O126  1  0.91946776  0.71499175  0.15952079  1  0  -0.701833  0  2.067594  0  -1.222015  0  -0.62496  0  2.319434  0  0  -0.65274  0  2.304634  0  0  -0.331436  -0.60436  0  2.329341  0
O  O127  1  0.08053270  0.28500742  0.84048044  1  0  -0.701815  0  2.067633  0  -1.221962  0  -0.624896  0  2.319438  0  0  -0.652697  0  2.304652  0  0  -0.331411  -0.604301  0  2.329343  0
O  O128  1  0.77644234  0.84646401  0.07931678  1  0  -0.602733  0  1.962643  0  -1.213756  0  -0.547077  0  2.184264  0  0  -0.572472  0  2.178109  0  0  -0.304007  -0.529123  0  2.187702  0
O  O129  1  0.22355443  0.15353416  0.92068545  1  0  -0.602765  0  1.962613  0  -1.213791  0  -0.547099  0  2.18425  0  0  -0.572493  0  2.17809  0  0  -0.304059  -0.529149  0  2.187684  0
O  O130  1  0.91487069  0.31416436  0.03053502  1  0  -0.659172  0  2.134491  0  -1.216294  0  -0.585517  0  2.407434  0  0  -0.614461  0  2.392535  0  0  -0.31526  -0.564827  0  2.416789  0
O  O131  1  0.08512725  0.68583480  0.96946647  1  0  -0.6592  0  2.134433  0  -1.216324  0  -0.585505  0  2.407343  0  0  -0.614458  0  2.39245  0  0  -0.315233  -0.564818  0  2.416697  0
O  O132  1  0.02274198  0.40101846  0.12105314  1  0  -0.619463  0  2.093486  0  -1.183298  0  -0.54604  0  2.365637  0  0  -0.57425  0  2.34988  0  0  -0.303693  -0.525369  0  2.376094  0
O  O133  1  0.97726110  0.59897975  0.87894732  1  0  -0.619404  0  2.093404  0  -1.183252  0  -0.546021  0  2.365634  0  0  -0.574231  0  2.349877  0  0  -0.303692  -0.525334  0  2.376051  0
O  O134  1  0.25093572  0.59751972  0.10705219  1  0  -0.545576  0  1.816751  0  -0.656536  0  -0.499273  0  2.076535  0  0  -0.525062  0  2.071525  0  0  -0.232607  -0.4803  0  2.078532  0
O  O135  1  0.74906484  0.40247849  0.89294681  1  0  -0.54551  0  1.816786  0  -0.656484  0  -0.499272  0  2.076628  0  0  -0.525059  0  2.071617  0  0  -0.232613  -0.480307  0  2.078633  0
O  O136  1  0.58498371  0.45453055  0.17056122  1  0  -0.548514  0  1.814993  0  -0.668024  0  -0.493424  0  2.029867  0  0  -0.518973  0  2.029299  0  0  -0.222576  -0.475937  0  2.029925  0
O  O137  1  0.41501423  0.54546862  0.82943913  1  0  -0.548608  0  1.815027  0  -0.668087  0  -0.49347  0  2.029904  0  0  -0.51902  0  2.029337  0  0  -0.222591  -0.475979  0  2.02996  0
O  O138  1  0.25649728  0.46015888  0.72794016  1  0  -0.833707  0  1.908703  0  -1.295171  0  -0.765954  0  2.122768  0  0  -0.788862  0  2.083901  0  0  -0.575822  -0.749569  0  2.150428  0
O  O139  1  0.74350309  0.53984128  0.27205988  1  0  -0.833695  0  1.908721  0  -1.295189  0  -0.765937  0  2.122775  0  0  -0.788846  0  2.083911  0  0  -0.575821  -0.749552  0  2.150433  0
O  O140  1  0.76333830  0.59868782  0.05002965  1  0  -0.847982  0  1.91978  0  -1.2751  0  -0.788523  0  2.130672  0  0  -0.811734  0  2.094433  0  0  -0.583339  -0.772487  0  2.155576  0
O  O141  1  0.23666091  0.40131136  0.94997056  1  0  -0.847951  0  1.919769  0  -1.275132  0  -0.788396  0  2.130731  0  0  -0.811606  0  2.094492  0  0  -0.583307  -0.772369  0  2.15565  0
O  O142  1  0.64160935  0.40542558  0.64089521  1  0  -0.66586  0  1.97744  0  -1.245433  0  -0.586277  0  2.266453  0  0  -0.610981  0  2.25044  0  0  -0.345777  -0.568445  0  2.277202  0
O  O143  1  0.35839083  0.59457654  0.35910472  1  0  -0.665905  0  1.977509  0  -1.245463  0  -0.586292  0  2.266473  0  0  -0.610998  0  2.250462  0  0  -0.345768  -0.568462  0  2.277231  0
