# generated using pymatgen
data_Eu2H10C14N4O15
_symmetry_space_group_name_H-M   'P 1'
_cell_length_a   10.96639885
_cell_length_b   11.85392371
_cell_length_c   19.08137668
_cell_angle_alpha   90.00003094
_cell_angle_beta   90.00092326
_cell_angle_gamma   89.99997441
_symmetry_Int_Tables_number   1
_chemical_formula_structural   Eu2H10C14N4O15
_chemical_formula_sum   'Eu8 H40 C56 N16 O60'
_cell_volume   2480.48080049
_cell_formula_units_Z   4
loop_
 _symmetry_equiv_pos_site_id
 _symmetry_equiv_pos_as_xyz
  1  'x, y, z'
loop_
 _atom_site_type_symbol
 _atom_site_label
 _atom_site_symmetry_multiplicity
 _atom_site_fract_x
 _atom_site_fract_y
 _atom_site_fract_z
 _atom_site_occupancy
 _atom_site_pbe_bader_charge
 _atom_site_pbe_bader_spin_density
 _atom_site_pbe_cm5_charge
 _atom_site_pbe_ddec_charge
 _atom_site_pbe_ddec_spin_density
 _atom_site_pbe_ddec_sum_bond_order
 _atom_site_pbe_magmom
Eu  Eu0  1  0.86050886  0.83837628  0.10091925  1  2.179967  0  1.479848  1.988653  0  2.203303  0
Eu  Eu1  1  0.13949269  0.16162351  0.60091748  1  2.179962  0  1.479861  1.988598  0  2.203237  0
Eu  Eu2  1  0.36050952  0.66162246  0.60092015  1  2.179978  0  1.479842  1.988623  0  2.203304  0
Eu  Eu3  1  0.63949295  0.33837563  0.10091658  1  2.180037  0  1.479853  1.988558  0  2.20328  0
Eu  Eu4  1  0.38276828  0.02223236  0.32132502  1  2.203682  0  1.469816  2.013162  0  2.164225  0
Eu  Eu5  1  0.61723037  0.97777015  0.82132372  1  2.203617  0  1.469861  2.013123  0  2.164215  0
Eu  Eu6  1  0.88276797  0.47776856  0.82132486  1  2.203691  0  1.469853  2.013236  0  2.164111  0
Eu  Eu7  1  0.11722976  0.52222889  0.32132335  1  2.203601  0  1.469872  2.013091  0  2.164308  0
H  H8  1  0.63966289  0.99471616  0.20096450  1  0.145266  0  0.142699  0.087846  0  0.999279  0
H  H9  1  0.36033053  0.00528962  0.70096523  1  0.145347  0  0.142732  0.087955  0  0.999174  0
H  H10  1  0.13966271  0.50528445  0.70096535  1  0.14526  0  0.142716  0.087861  0  0.999251  0
H  H11  1  0.86032980  0.49471205  0.20096544  1  0.145355  0  0.142722  0.087899  0  0.999177  0
H  H12  1  0.79213584  0.74793210  0.38503417  1  0.191644  0  0.133508  0.161657  0  0.965613  0
H  H13  1  0.20786825  0.25206287  0.88503305  1  0.191619  0  0.133492  0.161622  0  0.965791  0
H  H14  1  0.29213645  0.75206776  0.88503457  1  0.191528  0  0.133509  0.161624  0  0.965615  0
H  H15  1  0.70786764  0.24793734  0.38503265  1  0.191625  0  0.133519  0.161683  0  0.965749  0
H  H16  1  0.14324661  0.88397066  0.20572758  1  0.189896  0  0.141978  0.089978  0  0.986851  0
H  H17  1  0.85675789  0.11602753  0.70572715  1  0.189813  0  0.141998  0.090044  0  0.986861  0
H  H18  1  0.64324557  0.61602911  0.70572730  1  0.189901  0  0.141981  0.089985  0  0.986878  0
H  H19  1  0.35675802  0.38397246  0.20572691  1  0.18981  0  0.141995  0.090043  0  0.986875  0
H  H20  1  0.98839384  0.26825621  0.20549239  1  0.173479  0  0.126788  0.147616  0  1.001027  0
H  H21  1  0.01160428  0.73174282  0.70549277  1  0.173466  0  0.126801  0.147661  0  1.001045  0
H  H22  1  0.48839355  0.23174373  0.70549227  1  0.173474  0  0.126783  0.14761  0  1.001037  0
H  H23  1  0.51160457  0.76825700  0.20549237  1  0.173474  0  0.126801  0.147661  0  1.001031  0
H  H24  1  0.08908882  0.89493237  0.03820483  1  0.609328  0  0.327692  0.411059  0  0.871268  0
H  H25  1  0.91090914  0.10506568  0.53820333  1  0.609283  0  0.327778  0.411198  0  0.871004  0
H  H26  1  0.58908870  0.60506812  0.53820560  1  0.609344  0  0.327708  0.411059  0  0.871224  0
H  H27  1  0.41090835  0.39493330  0.03820413  1  0.609322  0  0.327731  0.411135  0  0.871076  0
H  H28  1  0.09179158  0.76430895  0.03327383  1  0.653301  0  0.295779  0.408372  0  0.925824  0
H  H29  1  0.90820897  0.23569162  0.53327235  1  0.653275  0  0.295761  0.408325  0  0.925879  0
H  H30  1  0.59179140  0.73569238  0.53327307  1  0.653289  0  0.295767  0.408352  0  0.925848  0
H  H31  1  0.40820916  0.26430819  0.03327258  1  0.653267  0  0.295779  0.408348  0  0.925856  0
H  H32  1  0.90977195  0.64141655  0.99468200  1  0.64399  0  0.301095  0.40835  0  0.921249  0
H  H33  1  0.09022520  0.35858104  0.49468072  1  0.643939  0  0.301122  0.408329  0  0.921302  0
H  H34  1  0.40977209  0.85858335  0.49468227  1  0.643977  0  0.301075  0.408315  0  0.921302  0
H  H35  1  0.59022506  0.14141931  0.99468045  1  0.64393  0  0.30112  0.408331  0  0.921293  0
H  H36  1  0.82647256  0.60155595  0.06007504  1  0.648446  0  0.302612  0.400875  0  0.930277  0
H  H37  1  0.17352693  0.39844380  0.56007786  1  0.648458  0  0.302579  0.400856  0  0.930301  0
H  H38  1  0.32647310  0.89844446  0.56007550  1  0.648427  0  0.302615  0.400895  0  0.93025  0
H  H39  1  0.67352639  0.10155698  0.06007740  1  0.64847  0  0.30259  0.400849  0  0.930311  0
H  H40  1  0.46319382  0.12111684  0.18413038  1  0.659644  0  0.30373  0.400905  0  0.934899  0
H  H41  1  0.53680461  0.87888302  0.68412988  1  0.65964  0  0.303717  0.400839  0  0.934984  0
H  H42  1  0.96319447  0.37888308  0.68413071  1  0.659645  0  0.303727  0.400886  0  0.934928  0
H  H43  1  0.03680486  0.62111762  0.18412955  1  0.659629  0  0.30377  0.400926  0  0.934867  0
H  H44  1  0.38614805  0.01763634  0.15249183  1  0.611744  0  0.341019  0.432974  0  0.84102  0
H  H45  1  0.61385040  0.98236349  0.65249365  1  0.611789  0  0.340985  0.432925  0  0.841086  0
H  H46  1  0.88614774  0.48236443  0.65249272  1  0.611755  0  0.341006  0.432942  0  0.841072  0
H  H47  1  0.11385070  0.51763793  0.15249380  1  0.611794  0  0.340997  0.432949  0  0.841051  0
C  C48  1  0.67329804  0.93862757  0.24188360  1  1.0698  0  0.198474  0.274087  0  3.943191  0
C  C49  1  0.32669836  0.06137824  0.74188509  1  1.069897  0  0.198534  0.274112  0  3.943182  0
C  C50  1  0.17329784  0.56137221  0.74188447  1  1.069942  0  0.198517  0.274167  0  3.943158  0
C  C51  1  0.82669766  0.43862348  0.24188580  1  1.069896  0  0.198559  0.274145  0  3.943049  0
C  C52  1  0.64948869  0.86284596  0.35123880  1  0.490348  0  0.146512  0.166073  0  3.944398  0
C  C53  1  0.35051354  0.13715320  0.85124210  1  0.490298  0  0.146502  0.166168  0  3.944144  0
C  C54  1  0.14948936  0.63715308  0.85123864  1  0.490312  0  0.146511  0.166069  0  3.944436  0
C  C55  1  0.85051287  0.36284861  0.35124174  1  0.490314  0  0.146556  0.166243  0  3.944113  0
C  C56  1  0.75759245  0.80213946  0.34355273  1  0.052219  0  -0.049715  -0.159036  0  3.830482  0
C  C57  1  0.24240864  0.19785632  0.84355140  1  0.052235  0  -0.049683  -0.159013  0  3.830569  0
C  C58  1  0.25759218  0.69786038  0.84355365  1  0.052312  0  -0.049741  -0.159022  0  3.830462  0
C  C59  1  0.74240801  0.30214468  0.34355153  1  0.052125  0  -0.049722  -0.159112  0  3.830542  0
C  C60  1  0.81539903  0.80955215  0.27898795  1  0.465185  0  0.142498  0.165186  0  3.926263  0
C  C61  1  0.18459751  0.19044948  0.77898660  1  0.465317  0  0.14254  0.165302  0  3.926066  0
C  C62  1  0.31540058  0.69044761  0.77898886  1  0.465221  0  0.142542  0.165257  0  3.926182  0
C  C63  1  0.68459687  0.30955149  0.27898622  1  0.465446  0  0.142497  0.165224  0  3.926154  0
C  C64  1  0.91872258  0.73065420  0.25998979  1  1.61516  0  0.239782  0.589541  0  4.155433  0
C  C65  1  0.08127342  0.26934320  0.75998227  1  1.614736  0  0.239695  0.589427  0  4.155432  0
C  C66  1  0.41872410  0.76934382  0.75998967  1  1.615099  0  0.239763  0.589479  0  4.155488  0
C  C67  1  0.58127282  0.23065695  0.25998186  1  1.614723  0  0.2397  0.589447  0  4.15543  0
C  C68  1  0.57444128  0.85292609  0.41727509  1  1.642289  0  0.22683  0.563655  0  4.221691  0
C  C69  1  0.42556645  0.14707060  0.91727595  1  1.642371  0  0.226924  0.563743  0  4.22163  0
C  C70  1  0.07444286  0.64707220  0.91727546  1  1.642309  0  0.226796  0.563544  0  4.221883  0
C  C71  1  0.92556579  0.35293039  0.41727610  1  1.642364  0  0.226884  0.563646  0  4.221794  0
C  C72  1  0.10883147  0.97009995  0.20597584  1  1.025601  0  0.205598  0.290067  0  3.906283  0
C  C73  1  0.89117122  0.02990077  0.70597518  1  1.026503  0  0.205584  0.289912  0  3.906475  0
C  C74  1  0.60883138  0.52989983  0.70597502  1  1.025605  0  0.20564  0.290088  0  3.906262  0
C  C75  1  0.39117040  0.47009920  0.20597496  1  1.026444  0  0.205566  0.289876  0  3.906531  0
C  C76  1  0.13070441  0.15445779  0.23992095  1  0.478044  0  0.144439  0.156965  0  3.925622  0
C  C77  1  0.86930015  0.84554211  0.73991984  1  0.477953  0  0.144382  0.156951  0  3.925636  0
C  C78  1  0.63070417  0.34554232  0.73992022  1  0.478049  0  0.14445  0.156954  0  3.925629  0
C  C79  1  0.36930039  0.65445759  0.23991951  1  0.477986  0  0.144396  0.156966  0  3.925665  0
C  C80  1  0.02254809  0.18227981  0.20611262  1  -0.000406  0  -0.054722  -0.15729  0  3.843811  0
C  C81  1  0.97745186  0.81771838  0.70611197  1  -0.000474  0  -0.054719  -0.157386  0  3.84395  0
C  C82  1  0.52254878  0.31771947  0.70611189  1  -0.00042  0  -0.054718  -0.157267  0  3.843832  0
C  C83  1  0.47745209  0.68228209  0.20611166  1  -0.000502  0  -0.054738  -0.157406  0  3.843956  0
C  C84  1  0.96033863  0.09508991  0.17301921  1  0.51453  0  0.141293  0.155779  0  3.952779  0
C  C85  1  0.03965765  0.90490825  0.67302043  1  0.514586  0  0.14134  0.155868  0  3.952915  0
C  C86  1  0.46033917  0.40491001  0.67301914  1  0.51454  0  0.141277  0.155713  0  3.952811  0
C  C87  1  0.53965803  0.59509237  0.17302050  1  0.514581  0  0.141289  0.155798  0  3.952814  0
C  C88  1  0.83838380  0.11501159  0.13886336  1  1.638477  0  0.24196  0.599317  0  4.170495  0
C  C89  1  0.16160970  0.88498991  0.63886413  1  1.638316  0  0.241831  0.599121  0  4.170446  0
C  C90  1  0.33838344  0.38498834  0.63886328  1  1.638455  0  0.241985  0.599383  0  4.170419  0
C  C91  1  0.66160915  0.61500979  0.13886472  1  1.638299  0  0.241828  0.599074  0  4.170469  0
C  C92  1  0.20554535  0.24327480  0.27769112  1  1.651626  0  0.241076  0.612679  0  4.181828  0
C  C93  1  0.79446027  0.75673189  0.77768876  1  1.651688  0  0.241133  0.612672  0  4.181754  0
C  C94  1  0.70554515  0.25672531  0.77769141  1  1.651631  0  0.24111  0.612744  0  4.181712  0
C  C95  1  0.29445956  0.74326956  0.27768847  1  1.65152  0  0.241169  0.612728  0  4.1817  0
C  C96  1  0.32337717  0.11525902  0.47402548  1  1.618644  0  0.211374  0.504516  0  4.229522  0
C  C97  1  0.67661758  0.88474446  0.97401894  1  1.618074  0  0.211449  0.504754  0  4.229063  0
C  C98  1  0.82337691  0.38474121  0.97402477  1  1.618395  0  0.211361  0.504472  0  4.229589  0
C  C99  1  0.17661601  0.61525552  0.47401913  1  1.618085  0  0.211398  0.504671  0  4.229142  0
C  C100  1  0.19978929  0.06579693  0.44757398  1  1.583741  0  0.213413  0.518716  0  4.210449  0
C  C101  1  0.80021200  0.93420400  0.94757488  1  1.583879  0  0.213365  0.518578  0  4.210494  0
C  C102  1  0.69978992  0.43420249  0.94757381  1  1.583724  0  0.21336  0.518613  0  4.210478  0
C  C103  1  0.30021046  0.56579507  0.44757505  1  1.583872  0  0.213349  0.518583  0  4.210471  0
N  N104  1  0.77548183  0.88082727  0.22894946  1  -1.222378  0  -0.351804  -0.373499  0  3.470636  0
N  N105  1  0.22451421  0.11917516  0.72894531  1  -1.222434  0  -0.351861  -0.373625  0  3.470541  0
N  N106  1  0.27548160  0.61917246  0.72894982  1  -1.222343  0  -0.351838  -0.373582  0  3.470615  0
N  N107  1  0.72451353  0.38082491  0.22894548  1  -1.222432  0  -0.351817  -0.373523  0  3.470466  0
N  N108  1  0.60541879  0.92889244  0.29993885  1  -1.22564  0  -0.336696  -0.365276  0  3.428372  0
N  N109  1  0.39458017  0.07110921  0.79993992  1  -1.225725  0  -0.336732  -0.365405  0  3.428519  0
N  N110  1  0.10542040  0.57110743  0.79993919  1  -1.22577  0  -0.336746  -0.365327  0  3.428443  0
N  N111  1  0.89457947  0.42889253  0.29994010  1  -1.225766  0  -0.336794  -0.365417  0  3.428478  0
N  N112  1  0.00401352  0.98924552  0.17158529  1  -1.213536  0  -0.332859  -0.366818  0  3.418591  0
N  N113  1  0.99598728  0.01075096  0.67158611  1  -1.213516  0  -0.332884  -0.366788  0  3.418792  0
N  N114  1  0.50401253  0.51075428  0.67158498  1  -1.213565  0  -0.332894  -0.366825  0  3.418658  0
N  N115  1  0.49598645  0.48924726  0.17158642  1  -1.213501  0  -0.332823  -0.366701  0  3.418606  0
N  N116  1  0.17354622  0.04795128  0.24063963  1  -1.199495  0  -0.317892  -0.346118  0  3.40324  0
N  N117  1  0.82646109  0.95204947  0.74063816  1  -1.200181  0  -0.317868  -0.346029  0  3.403208  0
N  N118  1  0.67354684  0.45204882  0.74063894  1  -1.199484  0  -0.31792  -0.34614  0  3.403203  0
N  N119  1  0.32646138  0.54795194  0.24063780  1  -1.200148  0  -0.317857  -0.346005  0  3.403261  0
O  O120  1  0.96058229  0.73858993  0.19735561  1  -1.178506  0  -0.360106  -0.629865  0  2.333191  0
O  O121  1  0.03941103  0.26141669  0.69735085  1  -1.178379  0  -0.360087  -0.629808  0  2.333319  0
O  O122  1  0.46058290  0.76140717  0.69735654  1  -1.178512  0  -0.360102  -0.629819  0  2.333205  0
O  O123  1  0.53941134  0.23858342  0.19735044  1  -1.178442  0  -0.36009  -0.629821  0  2.333325  0
O  O124  1  0.95142586  0.66051878  0.30534410  1  -1.152019  0  -0.339994  -0.571585  0  2.292082  0
O  O125  1  0.04857416  0.33947781  0.80534364  1  -1.151812  0  -0.339954  -0.571586  0  2.291914  0
O  O126  1  0.45142734  0.83947926  0.80534348  1  -1.151988  0  -0.339987  -0.571577  0  2.292071  0
O  O127  1  0.54857268  0.16052324  0.30534373  1  -1.151804  0  -0.33995  -0.571576  0  2.291922  0
O  O128  1  0.46312573  0.88436633  0.41271621  1  -1.175256  0  -0.337428  -0.607886  0  2.266543  0
O  O129  1  0.53688188  0.11563626  0.91272332  1  -1.175493  0  -0.337509  -0.607893  0  2.266691  0
O  O130  1  0.96312742  0.61563264  0.91271699  1  -1.175286  0  -0.337439  -0.607867  0  2.266582  0
O  O131  1  0.03688018  0.38436573  0.41272308  1  -1.175456  0  -0.337467  -0.607853  0  2.266779  0
O  O132  1  0.62930234  0.81440383  0.46978518  1  -1.174085  0  -0.305079  -0.526973  0  2.158975  0
O  O133  1  0.37070505  0.18559375  0.96978816  1  -1.173997  0  -0.305126  -0.52707  0  2.158934  0
O  O134  1  0.12930390  0.68559533  0.96978556  1  -1.174088  0  -0.305053  -0.526908  0  2.159061  0
O  O135  1  0.87070441  0.31440816  0.46978830  1  -1.174002  0  -0.305131  -0.527035  0  2.15896  0
O  O136  1  0.79097763  0.03316865  0.10508778  1  -1.182535  0  -0.357244  -0.632486  0  2.350876  0
O  O137  1  0.20901218  0.96682861  0.60509059  1  -1.182443  0  -0.357226  -0.632386  0  2.350995  0
O  O138  1  0.29097631  0.46683128  0.60508774  1  -1.182512  0  -0.357244  -0.632495  0  2.350908  0
O  O139  1  0.70901350  0.53317104  0.10509168  1  -1.182442  0  -0.357173  -0.632306  0  2.351017  0
O  O140  1  0.79115328  0.21016829  0.14831897  1  -1.177314  0  -0.358934  -0.598734  0  2.364257  0
O  O141  1  0.20884596  0.78982817  0.64831910  1  -1.177345  0  -0.358887  -0.598721  0  2.364129  0
O  O142  1  0.29115296  0.28983168  0.64831939  1  -1.177321  0  -0.358933  -0.598759  0  2.364244  0
O  O143  1  0.70884537  0.71017236  0.14831973  1  -1.177349  0  -0.358929  -0.598741  0  2.364038  0
O  O144  1  0.30219099  0.21083575  0.30691324  1  -1.166703  0  -0.355561  -0.595765  0  2.278599  0
O  O145  1  0.69782184  0.78917013  0.80690896  1  -1.166702  0  -0.355534  -0.595705  0  2.278744  0
O  O146  1  0.80218986  0.28916435  0.80691408  1  -1.16669  0  -0.355581  -0.595792  0  2.278557  0
O  O147  1  0.19782206  0.71083055  0.30690918  1  -1.166518  0  -0.355556  -0.595731  0  2.278695  0
O  O148  1  0.16489749  0.34344839  0.27508107  1  -1.199141  0  -0.397066  -0.66539  0  2.332582  0
O  O149  1  0.83510441  0.65654902  0.77508063  1  -1.199095  0  -0.397111  -0.665417  0  2.332298  0
O  O150  1  0.66489643  0.15655090  0.77508081  1  -1.199146  0  -0.397083  -0.665436  0  2.33254  0
O  O151  1  0.33510365  0.84345073  0.27507932  1  -1.199113  0  -0.397107  -0.665413  0  2.332328  0
O  O152  1  0.41225990  0.11057362  0.43208709  1  -1.166256  0  -0.382712  -0.578871  0  2.272295  0
O  O153  1  0.58774278  0.88942899  0.93208288  1  -1.165766  0  -0.382688  -0.578837  0  2.27239  0
O  O154  1  0.91225964  0.38942570  0.93208586  1  -1.166014  0  -0.3827  -0.578852  0  2.272301  0
O  O155  1  0.08774122  0.61057184  0.43208306  1  -1.1658  0  -0.382684  -0.578797  0  2.27238  0
O  O156  1  0.32463186  0.15462829  0.53577156  1  -1.17606  0  -0.393817  -0.598084  0  2.266154  0
O  O157  1  0.67537515  0.84537228  0.03576954  1  -1.175911  0  -0.393902  -0.598281  0  2.26586  0
O  O158  1  0.82463211  0.34537072  0.03577171  1  -1.176044  0  -0.39382  -0.598064  0  2.266167  0
O  O159  1  0.17537399  0.65462648  0.53576991  1  -1.175916  0  -0.393878  -0.598264  0  2.265856  0
O  O160  1  0.20204265  0.01314683  0.38984073  1  -1.173859  0  -0.387472  -0.603052  0  2.259732  0
O  O161  1  0.79795337  0.98684983  0.88984477  1  -1.174011  0  -0.387419  -0.602979  0  2.260005  0
O  O162  1  0.70204416  0.48685423  0.88984110  1  -1.173883  0  -0.387429  -0.602983  0  2.259683  0
O  O163  1  0.29795095  0.51314834  0.38984545  1  -1.174014  0  -0.387395  -0.602952  0  2.259984  0
O  O164  1  0.10722161  0.08182120  0.48615359  1  -1.188402  0  -0.39013  -0.620214  0  2.263418  0
O  O165  1  0.89278077  0.91817724  0.98615953  1  -1.188407  0  -0.390192  -0.620222  0  2.263293  0
O  O166  1  0.60722225  0.41817914  0.98615341  1  -1.188383  0  -0.390116  -0.620177  0  2.263395  0
O  O167  1  0.39278013  0.58182183  0.48615918  1  -1.188375  0  -0.390176  -0.620223  0  2.263303  0
O  O168  1  0.07678256  0.82836202  0.06740705  1  -1.235675  0  -0.633949  -0.831091  0  2.023509  0
O  O169  1  0.92322260  0.17163605  0.56740412  1  -1.235572  0  -0.634032  -0.831174  0  2.023334  0
O  O170  1  0.57678058  0.67163934  0.56740680  1  -1.235692  0  -0.63396  -0.831062  0  2.023479  0
O  O171  1  0.42322184  0.32836210  0.06740437  1  -1.235611  0  -0.633997  -0.831125  0  2.023376  0
O  O172  1  0.88544063  0.65944899  0.04399944  1  -1.291161  0  -0.658262  -0.86642  0  2.054651  0
O  O173  1  0.11455932  0.34054906  0.54399907  1  -1.29114  0  -0.658283  -0.866401  0  2.054626  0
O  O174  1  0.38544028  0.84054969  0.54399883  1  -1.291136  0  -0.658265  -0.866425  0  2.054656  0
O  O175  1  0.61455784  0.15945089  0.04399863  1  -1.291154  0  -0.658301  -0.866412  0  2.054654  0
O  O176  1  0.42975273  0.04354338  0.19366883  1  -1.257654  0  -0.618337  -0.853499  0  2.075733  0
O  O177  1  0.57024049  0.95645564  0.69366972  1  -1.257588  0  -0.618289  -0.853407  0  2.075914  0
O  O178  1  0.92975243  0.45645657  0.69366972  1  -1.257661  0  -0.618333  -0.853469  0  2.075802  0
O  O179  1  0.07024079  0.54354499  0.19366988  1  -1.25759  0  -0.61836  -0.853511  0  2.075795  0
