# generated using pymatgen
data_LiH7(C8O3)2
_symmetry_space_group_name_H-M   'P 1'
_cell_length_a   8.12961541
_cell_length_b   10.64160506
_cell_length_c   14.59537229
_cell_angle_alpha   90.00002789
_cell_angle_beta   103.49047345
_cell_angle_gamma   90.00009992
_symmetry_Int_Tables_number   1
_chemical_formula_structural   LiH7(C8O3)2
_chemical_formula_sum   'Li4 H28 C64 O24'
_cell_volume   1227.83825546
_cell_formula_units_Z   4
loop_
 _symmetry_equiv_pos_site_id
 _symmetry_equiv_pos_as_xyz
  1  'x, y, z'
loop_
 _atom_site_type_symbol
 _atom_site_label
 _atom_site_symmetry_multiplicity
 _atom_site_fract_x
 _atom_site_fract_y
 _atom_site_fract_z
 _atom_site_occupancy
 _atom_site_hle17_bader_spin_density
 _atom_site_hle17_ddec_charge
 _atom_site_hle17_ddec_spin_density
 _atom_site_hle17_ddec_sum_bond_order
 _atom_site_hle17_magmom
 _atom_site_hse06_10hf_bader_spin_density
 _atom_site_hse06_10hf_ddec_charge
 _atom_site_hse06_10hf_ddec_spin_density
 _atom_site_hse06_10hf_ddec_sum_bond_order
 _atom_site_hse06_10hf_magmom
 _atom_site_hse06_bader_spin_density
 _atom_site_hse06_ddec_charge
 _atom_site_hse06_ddec_spin_density
 _atom_site_hse06_ddec_sum_bond_order
 _atom_site_hse06_magmom
 _atom_site_pbe_bader_spin_density
 _atom_site_pbe_cm5_charge
 _atom_site_pbe_ddec_charge
 _atom_site_pbe_ddec_spin_density
 _atom_site_pbe_ddec_sum_bond_order
 _atom_site_pbe_magmom
Li  Li0  1  0.07329506  0.90828148  0.62919748  1  0  0.860799  0  0.381283  0  0  0.818383  0  0.491206  0  0  0.829384  0  0.472182  0  0  0.503525  0.810332  0  0.505067  0
Li  Li1  1  0.92670524  0.40828143  0.87080280  1  0  0.860799  0  0.381277  0  0  0.818385  0  0.491191  0  0  0.829386  0  0.472168  0  0  0.503524  0.810328  0  0.505054  0
Li  Li2  1  0.92670383  0.09171811  0.37080192  1  0  0.860796  0  0.381281  0  0  0.818391  0  0.491183  0  0  0.829391  0  0.472161  0  0  0.503521  0.810334  0  0.505044  0
Li  Li3  1  0.07329493  0.59171816  0.12919744  1  0  0.860797  0  0.381279  0  0  0.818377  0  0.491203  0  0  0.829379  0  0.472179  0  0  0.503524  0.810312  0  0.505071  0
H  H4  1  0.86703874  0.84394950  0.29704737  1  0  0.40323  0  0.907912  0  0  0.369748  0  0.98578  0  0  0.382655  0  0.968186  0  0  0.304658  0.360762  0  0.997279  0
H  H5  1  0.13296322  0.34395109  0.20295316  1  0  0.403199  0  0.907962  0  0  0.369708  0  0.985836  0  0  0.382616  0  0.968242  0  0  0.304632  0.36072  0  0.997349  0
H  H6  1  0.13295889  0.15605009  0.70295188  1  0  0.403187  0  0.907957  0  0  0.369698  0  0.98585  0  0  0.382604  0  0.968257  0  0  0.304644  0.360714  0  0.997337  0
H  H7  1  0.86703695  0.65604850  0.79704709  1  0  0.403175  0  0.908  0  0  0.369677  0  0.985885  0  0  0.382584  0  0.968292  0  0  0.304606  0.360691  0  0.997396  0
H  H8  1  0.55701815  0.36442685  0.73023133  1  0  0.104352  0  0.933038  0  0  0.114585  0  0.992243  0  0  0.118369  0  0.989755  0  0  0.115774  0.111725  0  0.994423  0
H  H9  1  0.44298332  0.86442561  0.76976977  1  0  0.104333  0  0.933063  0  0  0.114568  0  0.992257  0  0  0.118349  0  0.989776  0  0  0.115764  0.111692  0  0.994457  0
H  H10  1  0.44298329  0.63557368  0.26976907  1  0  0.10423  0  0.933173  0  0  0.114488  0  0.992352  0  0  0.11827  0  0.989868  0  0  0.115745  0.111622  0  0.994528  0
H  H11  1  0.55701685  0.13557304  0.23023047  1  0  0.104338  0  0.933054  0  0  0.114568  0  0.992259  0  0  0.118354  0  0.989769  0  0  0.115756  0.111692  0  0.994452  0
H  H12  1  0.52019513  0.13240638  0.74669617  1  0  0.111856  0  0.964759  0  0  0.118354  0  1.02963  0  0  0.121959  0  1.02689  0  0  0.10816  0.115606  0  1.031737  0
H  H13  1  0.47980446  0.63240518  0.75330393  1  0  0.111831  0  0.964788  0  0  0.118363  0  1.029623  0  0  0.121968  0  1.026883  0  0  0.10816  0.1156  0  1.031747  0
H  H14  1  0.47980504  0.86759509  0.25330408  1  0  0.111863  0  0.964727  0  0  0.118358  0  1.029602  0  0  0.121964  0  1.026861  0  0  0.108167  0.115606  0  1.031705  0
H  H15  1  0.52019444  0.36759441  0.24669616  1  0  0.111844  0  0.964741  0  0  0.118391  0  1.029563  0  0  0.122001  0  1.026826  0  0  0.108138  0.115625  0  1.031686  0
H  H16  1  0.59458870  0.98682919  0.62850605  1  0  0.096754  0  0.925867  0  0  0.111044  0  0.976179  0  0  0.113628  0  0.975811  0  0  0.112532  0.109135  0  0.976656  0
H  H17  1  0.40540925  0.48682844  0.87149330  1  0  0.096784  0  0.92579  0  0  0.11106  0  0.976119  0  0  0.113645  0  0.975749  0  0  0.112513  0.109142  0  0.976608  0
H  H18  1  0.40540892  0.01317228  0.37149321  1  0  0.096799  0  0.925806  0  0  0.11108  0  0.97613  0  0  0.113664  0  0.975761  0  0  0.112533  0.109167  0  0.976608  0
H  H19  1  0.59458965  0.51317115  0.12850679  1  0  0.096748  0  0.925835  0  0  0.111047  0  0.976141  0  0  0.113632  0  0.975771  0  0  0.112517  0.109127  0  0.976624  0
H  H20  1  0.70325891  0.07126432  0.49612881  1  0  0.104959  0  0.981471  0  0  0.107891  0  1.054432  0  0  0.112597  0  1.050273  0  0  0.115718  0.104572  0  1.057301  0
H  H21  1  0.29674108  0.57126459  0.00387139  1  0  0.104989  0  0.981481  0  0  0.107889  0  1.054481  0  0  0.112595  0  1.05032  0  0  0.115693  0.10456  0  1.057352  0
H  H22  1  0.29673871  0.92873621  0.50387044  1  0  0.104965  0  0.981506  0  0  0.107864  0  1.054508  0  0  0.11257  0  1.050347  0  0  0.115696  0.10454  0  1.05738  0
H  H23  1  0.70326291  0.42873594  0.99613001  1  0  0.104909  0  0.981552  0  0  0.107829  0  1.054529  0  0  0.112533  0  1.050372  0  0  0.115686  0.104504  0  1.057403  0
H  H24  1  0.88119962  0.43658709  0.32751300  1  0  0.127668  0  0.944319  0  0  0.131453  0  1.013217  0  0  0.136392  0  1.009294  0  0  0.120131  0.127796  0  1.016334  0
H  H25  1  0.11880260  0.93658912  0.17248829  1  0  0.127714  0  0.944326  0  0  0.131477  0  1.013243  0  0  0.136417  0  1.00932  0  0  0.120114  0.127768  0  1.016412  0
H  H26  1  0.11880056  0.56341250  0.67248725  1  0  0.127696  0  0.944317  0  0  0.131463  0  1.01323  0  0  0.136402  0  1.009308  0  0  0.120114  0.12778  0  1.016376  0
H  H27  1  0.88119886  0.06341048  0.82751280  1  0  0.127714  0  0.944328  0  0  0.131476  0  1.013244  0  0  0.136415  0  1.009323  0  0  0.120125  0.127768  0  1.016423  0
H  H28  1  0.73947397  0.72183822  0.56551707  1  0  0.121802  0  0.943694  0  0  0.125625  0  1.011117  0  0  0.130829  0  1.006867  0  0  0.118634  0.1217  0  1.014555  0
H  H29  1  0.26052712  0.22183827  0.93448325  1  0  0.121836  0  0.94369  0  0  0.125686  0  1.011096  0  0  0.130888  0  1.006846  0  0  0.118647  0.12175  0  1.014542  0
H  H30  1  0.26052620  0.27816231  0.43448318  1  0  0.121839  0  0.943688  0  0  0.12567  0  1.011101  0  0  0.130872  0  1.006852  0  0  0.118657  0.121745  0  1.014535  0
H  H31  1  0.73947432  0.77816132  0.06551715  1  0  0.121831  0  0.943687  0  0  0.125697  0  1.011077  0  0  0.130901  0  1.006824  0  0  0.118642  0.121759  0  1.014515  0
C  C32  1  0.66348567  0.48507221  0.59513686  1  0  0.382646  0  3.748166  0  0  0.361091  0  4.0137  0  0  0.382422  0  4.016029  0  0  0.163418  0.346648  0  4.011622  0
C  C33  1  0.33651479  0.98507092  0.90486210  1  0  0.382743  0  3.748076  0  0  0.361237  0  4.013506  0  0  0.382566  0  4.015834  0  0  0.163441  0.346792  0  4.011441  0
C  C34  1  0.33651577  0.51492832  0.40486354  1  0  0.382683  0  3.748174  0  0  0.361136  0  4.013655  0  0  0.382467  0  4.015984  0  0  0.163433  0.346691  0  4.011584  0
C  C35  1  0.66348534  0.01492773  0.09513677  1  0  0.382746  0  3.748097  0  0  0.361238  0  4.013519  0  0  0.382567  0  4.015847  0  0  0.163455  0.346795  0  4.011445  0
C  C36  1  0.73931156  0.53174094  0.51824543  1  0  -0.031072  0  3.734326  0  0  -0.024082  0  3.974356  0  0  -0.027559  0  3.99609  0  0  -0.004176  -0.021571  0  3.959627  0
C  C37  1  0.26068906  0.03173914  0.98175545  1  0  -0.031136  0  3.734409  0  0  -0.024143  0  3.974412  0  0  -0.027617  0  3.996146  0  0  -0.004163  -0.021636  0  3.959683  0
C  C38  1  0.26068863  0.46826147  0.48175551  1  0  -0.031126  0  3.734398  0  0  -0.024135  0  3.974416  0  0  -0.027612  0  3.996152  0  0  -0.004169  -0.021624  0  3.959688  0
C  C39  1  0.73931238  0.96826045  0.01824495  1  0  -0.031108  0  3.734309  0  0  -0.024127  0  3.974335  0  0  -0.027602  0  3.996069  0  0  -0.004169  -0.021617  0  3.959597  0
C  C40  1  0.78123821  0.44967814  0.45134350  1  0  -0.039792  0  3.735708  0  0  -0.031819  0  3.975493  0  0  -0.037069  0  3.998321  0  0  -0.004497  -0.028302  0  3.960031  0
C  C41  1  0.21876399  0.94967833  0.04865641  1  0  -0.039813  0  3.73584  0  0  -0.031793  0  3.975544  0  0  -0.037045  0  3.998374  0  0  -0.004556  -0.02828  0  3.960062  0
C  C42  1  0.21876320  0.55032145  0.54865621  1  0  -0.039777  0  3.735755  0  0  -0.031804  0  3.975525  0  0  -0.037054  0  3.998354  0  0  -0.00452  -0.028285  0  3.960051  0
C  C43  1  0.78123742  0.05032126  0.95134330  1  0  -0.039848  0  3.735763  0  0  -0.031866  0  3.975524  0  0  -0.037113  0  3.998351  0  0  -0.004552  -0.02835  0  3.960046  0
C  C44  1  0.75817750  0.31197991  0.45831889  1  0  0.410824  0  3.727828  0  0  0.390551  0  3.988817  0  0  0.413446  0  3.991169  0  0  0.173953  0.375492  0  3.986241  0
C  C45  1  0.24182309  0.81198107  0.04168078  1  0  0.410661  0  3.727871  0  0  0.390386  0  3.988841  0  0  0.413283  0  3.991195  0  0  0.173907  0.375334  0  3.98625  0
C  C46  1  0.24182394  0.68801968  0.54168151  1  0  0.410789  0  3.727831  0  0  0.390523  0  3.988801  0  0  0.413419  0  3.991152  0  0  0.173969  0.375467  0  3.986223  0
C  C47  1  0.75817835  0.18801946  0.95831962  1  0  0.410832  0  3.727835  0  0  0.390571  0  3.98879  0  0  0.413464  0  3.991143  0  0  0.173986  0.37552  0  3.986214  0
C  C48  1  0.69060398  0.26472199  0.53751331  1  0  -0.068713  0  3.755323  0  0  -0.058087  0  3.989165  0  0  -0.066159  0  4.015777  0  0  -0.011945  -0.052843  0  3.971203  0
C  C49  1  0.30939595  0.76472258  0.96248688  1  0  -0.068587  0  3.755301  0  0  -0.057978  0  3.989139  0  0  -0.066053  0  4.01575  0  0  -0.011877  -0.052736  0  3.97116  0
C  C50  1  0.30939492  0.73527760  0.46248678  1  0  -0.068662  0  3.755405  0  0  -0.058043  0  3.989218  0  0  -0.066116  0  4.015831  0  0  -0.011895  -0.052803  0  3.971259  0
C  C51  1  0.69060677  0.23527701  0.03751436  1  0  -0.068612  0  3.755384  0  0  -0.057994  0  3.989207  0  0  -0.066067  0  4.015817  0  0  -0.011846  -0.052753  0  3.97124  0
C  C52  1  0.64851690  0.34744728  0.60448760  1  0  -0.054395  0  3.771134  0  0  -0.042036  0  4.004037  0  0  -0.047456  0  4.030193  0  0  -0.009385  -0.038026  0  3.98609  0
C  C53  1  0.35148196  0.84744601  0.89551180  1  0  -0.054436  0  3.771123  0  0  -0.042068  0  4.003989  0  0  -0.047482  0  4.030137  0  0  -0.009415  -0.038055  0  3.986037  0
C  C54  1  0.35148200  0.65255419  0.39551249  1  0  -0.054426  0  3.771186  0  0  -0.04204  0  4.004052  0  0  -0.047456  0  4.030204  0  0  -0.009421  -0.038034  0  3.986109  0
C  C55  1  0.64851948  0.15255358  0.10448860  1  0  -0.054471  0  3.771218  0  0  -0.042083  0  4.004049  0  0  -0.047497  0  4.030196  0  0  -0.009418  -0.038075  0  3.986098  0
C  C56  1  0.58818463  0.29884558  0.67945957  1  0  -0.049655  0  3.689315  0  0  -0.078537  0  3.947431  0  0  -0.079928  0  3.96743  0  0  -0.064324  -0.078017  0  3.934179  0
C  C57  1  0.41181539  0.79884527  0.82054064  1  0  -0.049662  0  3.689291  0  0  -0.078553  0  3.947415  0  0  -0.079947  0  3.967413  0  0  -0.06436  -0.078039  0  3.934189  0
C  C58  1  0.41181681  0.70115589  0.32054083  1  0  -0.049588  0  3.689363  0  0  -0.078514  0  3.947506  0  0  -0.079907  0  3.967506  0  0  -0.06435  -0.07799  0  3.934242  0
C  C59  1  0.58818478  0.20115526  0.17945961  1  0  -0.04966  0  3.689345  0  0  -0.07856  0  3.947463  0  0  -0.079955  0  3.967464  0  0  -0.064348  -0.078043  0  3.934224  0
C  C60  1  0.56855340  0.16968084  0.68857268  1  0  -0.03375  0  3.679499  0  0  -0.052484  0  3.939285  0  0  -0.053173  0  3.958562  0  0  -0.067144  -0.051368  0  3.92582  0
C  C61  1  0.43144629  0.66968056  0.81142744  1  0  -0.033712  0  3.679523  0  0  -0.05248  0  3.93931  0  0  -0.05317  0  3.958589  0  0  -0.067151  -0.051373  0  3.925875  0
C  C62  1  0.43144677  0.83032063  0.31142757  1  0  -0.033731  0  3.679479  0  0  -0.052461  0  3.93927  0  0  -0.053151  0  3.958548  0  0  -0.067125  -0.051344  0  3.925795  0
C  C63  1  0.56855387  0.33031997  0.18857212  1  0  -0.033708  0  3.679498  0  0  -0.052484  0  3.939263  0  0  -0.053182  0  3.958551  0  0  -0.067118  -0.051372  0  3.925814  0
C  C64  1  0.60907769  0.08806064  0.62189409  1  0  -0.030706  0  3.683555  0  0  -0.044665  0  3.936003  0  0  -0.047015  0  3.956474  0  0  -0.064187  -0.043082  0  3.921748  0
C  C65  1  0.39092179  0.58806034  0.87810598  1  0  -0.030734  0  3.683571  0  0  -0.044674  0  3.936007  0  0  -0.047025  0  3.956479  0  0  -0.064174  -0.0431  0  3.921769  0
C  C66  1  0.39092122  0.91194083  0.37810600  1  0  -0.030734  0  3.683564  0  0  -0.044677  0  3.935986  0  0  -0.047031  0  3.956462  0  0  -0.064193  -0.043097  0  3.921729  0
C  C67  1  0.60907964  0.41194019  0.12189442  1  0  -0.030706  0  3.683556  0  0  -0.044676  0  3.93602  0  0  -0.047028  0  3.956494  0  0  -0.064201  -0.043094  0  3.92177  0
C  C68  1  0.66887364  0.13507048  0.54677077  1  0  -0.046686  0  3.678473  0  0  -0.072943  0  3.930929  0  0  -0.072481  0  3.949703  0  0  -0.063379  -0.073294  0  3.918037  0
C  C69  1  0.33112594  0.63507016  0.95322864  1  0  -0.046769  0  3.678604  0  0  -0.073009  0  3.931066  0  0  -0.072545  0  3.949841  0  0  -0.063399  -0.073351  0  3.918159  0
C  C70  1  0.33112524  0.86493099  0.45322863  1  0  -0.046712  0  3.678562  0  0  -0.072952  0  3.931028  0  0  -0.07249  0  3.949802  0  0  -0.063372  -0.073302  0  3.918136  0
C  C71  1  0.66887676  0.36492943  0.04677191  1  0  -0.04671  0  3.678581  0  0  -0.072968  0  3.93106  0  0  -0.072505  0  3.949835  0  0  -0.063411  -0.07332  0  3.91817  0
C  C72  1  0.84545793  0.49963115  0.37848323  1  0  -0.047847  0  3.642721  0  0  -0.08377  0  3.898974  0  0  -0.083523  0  3.918227  0  0  -0.05841  -0.084414  0  3.886714  0
C  C73  1  0.15454442  0.99963224  0.12151741  1  0  -0.047872  0  3.642806  0  0  -0.083784  0  3.899001  0  0  -0.08354  0  3.918258  0  0  -0.058389  -0.084397  0  3.886765  0
C  C74  1  0.15454350  0.50036938  0.62151717  1  0  -0.047851  0  3.642684  0  0  -0.083747  0  3.898901  0  0  -0.083501  0  3.918155  0  0  -0.058383  -0.08437  0  3.886654  0
C  C75  1  0.84545704  0.00036735  0.87848368  1  0  -0.047863  0  3.642771  0  0  -0.083758  0  3.898976  0  0  -0.083515  0  3.918234  0  0  -0.058412  -0.084376  0  3.886755  0
C  C76  1  0.86628078  0.62982017  0.36896706  1  0  -0.086184  0  3.677466  0  0  -0.071567  0  3.916478  0  0  -0.078341  0  3.939013  0  0  -0.00114  -0.06689  0  3.90146  0
C  C77  1  0.13372442  0.12982172  0.13103379  1  0  -0.086247  0  3.677624  0  0  -0.071633  0  3.916649  0  0  -0.078407  0  3.939185  0  0  -0.001179  -0.066969  0  3.901631  0
C  C78  1  0.13371939  0.37017942  0.63103319  1  0  -0.086207  0  3.677536  0  0  -0.07162  0  3.916561  0  0  -0.078393  0  3.939096  0  0  -0.001167  -0.066947  0  3.901548  0
C  C79  1  0.86627447  0.87017694  0.86896562  1  0  -0.086216  0  3.677596  0  0  -0.071642  0  3.916622  0  0  -0.078415  0  3.939156  0  0  -0.001167  -0.066974  0  3.901604  0
C  C80  1  0.93372708  0.66674037  0.28454051  1  0  0.658753  0  3.837639  0  0  0.607606  0  4.140502  0  0  0.640376  0  4.132304  0  0  0.238655  0.585483  0  4.145364  0
C  C81  1  0.06627695  0.16674188  0.21546021  1  0  0.658749  0  3.837697  0  0  0.607596  0  4.140573  0  0  0.640365  0  4.132375  0  0  0.2387  0.585481  0  4.145439  0
C  C82  1  0.06627309  0.33325828  0.71545974  1  0  0.658681  0  3.837727  0  0  0.607532  0  4.140601  0  0  0.640301  0  4.132403  0  0  0.238629  0.585412  0  4.145464  0
C  C83  1  0.93372449  0.83325771  0.78454019  1  0  0.658712  0  3.837684  0  0  0.607555  0  4.140566  0  0  0.640325  0  4.132367  0  0  0.238685  0.58544  0  4.145433  0
C  C84  1  0.85042910  0.85325358  0.44429035  1  0  0.675438  0  3.884594  0  0  0.623906  0  4.186574  0  0  0.65641  0  4.17917  0  0  0.234224  0.601852  0  4.190949  0
C  C85  1  0.14957285  0.35325416  0.05570950  1  0  0.675317  0  3.884709  0  0  0.623835  0  4.186627  0  0  0.656336  0  4.179226  0  0  0.234192  0.60178  0  4.190998  0
C  C86  1  0.14956978  0.14674601  0.55570906  1  0  0.675324  0  3.884782  0  0  0.623814  0  4.186716  0  0  0.656318  0  4.179314  0  0  0.234193  0.601753  0  4.191099  0
C  C87  1  0.85042732  0.64674543  0.94429074  1  0  0.675189  0  3.884817  0  0  0.623676  0  4.186766  0  0  0.656177  0  4.17937  0  0  0.234122  0.60162  0  4.191136  0
C  C88  1  0.82805116  0.71173920  0.43789181  1  0  -0.061296  0  3.667958  0  0  -0.046684  0  3.90338  0  0  -0.050595  0  3.924698  0  0  0.004899  -0.044496  0  3.88942  0
C  C89  1  0.17195047  0.21174075  0.06210932  1  0  -0.061176  0  3.667878  0  0  -0.046565  0  3.903317  0  0  -0.050473  0  3.924636  0  0  0.004931  -0.044373  0  3.889352  0
C  C90  1  0.17194901  0.28826039  0.56210844  1  0  -0.061296  0  3.667982  0  0  -0.046646  0  3.903358  0  0  -0.050558  0  3.924678  0  0  0.004903  -0.044454  0  3.889402  0
C  C91  1  0.82804848  0.78825884  0.93789215  1  0  -0.061235  0  3.668022  0  0  -0.046558  0  3.903384  0  0  -0.050466  0  3.924703  0  0  0.004919  -0.044368  0  3.889416  0
C  C92  1  0.76671116  0.65997631  0.51160344  1  0  -0.051778  0  3.666546  0  0  -0.08803  0  3.923762  0  0  -0.088984  0  3.942073  0  0  -0.058723  -0.087733  0  3.912036  0
C  C93  1  0.23329101  0.15997730  0.98839630  1  0  -0.051833  0  3.666495  0  0  -0.088156  0  3.923775  0  0  -0.08911  0  3.942082  0  0  -0.058765  -0.087858  0  3.912053  0
C  C94  1  0.23328899  0.34002328  0.48839612  1  0  -0.051784  0  3.66658  0  0  -0.088066  0  3.923795  0  0  -0.089019  0  3.942105  0  0  -0.058742  -0.08777  0  3.912069  0
C  C95  1  0.76670916  0.84002229  0.01160395  1  0  -0.051808  0  3.666507  0  0  -0.088146  0  3.923748  0  0  -0.089104  0  3.94206  0  0  -0.058751  -0.087841  0  3.912009  0
O  O96  1  0.60977291  0.55940120  0.64650173  1  0  -0.436851  0  1.942445  0  0  -0.395571  0  2.155316  0  0  -0.411208  0  2.151401  0  0  -0.239464  -0.384215  0  2.15748  0
O  O97  1  0.39022648  0.05940042  0.85349763  1  0  -0.436896  0  1.942424  0  0  -0.395634  0  2.155268  0  0  -0.411272  0  2.151352  0  0  -0.239492  -0.384297  0  2.157439  0
O  O98  1  0.39022853  0.44060027  0.35349867  1  0  -0.436874  0  1.942469  0  0  -0.395589  0  2.155317  0  0  -0.411221  0  2.15139  0  0  -0.239466  -0.384228  0  2.15747  0
O  O99  1  0.60977243  0.94060011  0.14650247  1  0  -0.436881  0  1.942409  0  0  -0.395621  0  2.155256  0  0  -0.411262  0  2.151343  0  0  -0.239488  -0.38428  0  2.157414  0
O  O100  1  0.79796006  0.23929634  0.40029951  1  0  -0.53071  0  1.978228  0  0  -0.487073  0  2.205829  0  0  -0.502932  0  2.198595  0  0  -0.295614  -0.475536  0  2.210434  0
O  O101  1  0.20203909  0.73929748  0.09970065  1  0  -0.530578  0  1.978165  0  0  -0.486936  0  2.20576  0  0  -0.502795  0  2.198526  0  0  -0.295575  -0.475418  0  2.210361  0
O  O102  1  0.20204013  0.76070325  0.59970143  1  0  -0.530696  0  1.978212  0  0  -0.487058  0  2.205811  0  0  -0.502915  0  2.198577  0  0  -0.295636  -0.475524  0  2.210416  0
O  O103  1  0.79796235  0.26070117  0.90029975  1  0  -0.530698  0  1.978175  0  0  -0.487064  0  2.205771  0  0  -0.502921  0  2.198536  0  0  -0.295644  -0.475548  0  2.210385  0
O  O104  1  0.00249792  0.58467504  0.24568301  1  0  -0.619436  0  1.964323  0  0  -0.579455  0  2.196923  0  0  -0.59951  0  2.187183  0  0  -0.352939  -0.565522  0  2.203126  0
O  O105  1  0.99750464  0.08467689  0.25431749  1  0  -0.6194  0  1.964356  0  0  -0.579434  0  2.196971  0  0  -0.599489  0  2.187231  0  0  -0.352944  -0.565519  0  2.203179  0
O  O106  1  0.99750099  0.41532361  0.75431708  1  0  -0.619424  0  1.964379  0  0  -0.579446  0  2.196982  0  0  -0.599501  0  2.187242  0  0  -0.352925  -0.565507  0  2.203176  0
O  O107  1  0.00249427  0.91532270  0.74568260  1  0  -0.619347  0  1.964349  0  0  -0.579381  0  2.196966  0  0  -0.599435  0  2.187226  0  0  -0.35292  -0.565464  0  2.203175  0
O  O108  1  0.91581243  0.78157546  0.25193617  1  0  -0.531657  0  2.094421  0  0  -0.479877  0  2.315841  0  0  -0.502256  0  2.298861  0  0  -0.299441  -0.464426  0  2.326548  0
O  O109  1  0.08419063  0.28157702  0.24806447  1  0  -0.531615  0  2.094441  0  0  -0.47981  0  2.315845  0  0  -0.502189  0  2.298866  0  0  -0.299435  -0.464375  0  2.326573  0
O  O110  1  0.08418643  0.21842319  0.74806254  1  0  -0.531548  0  2.094398  0  0  -0.479758  0  2.315827  0  0  -0.502136  0  2.298847  0  0  -0.299389  -0.464308  0  2.326532  0
O  O111  1  0.91580957  0.71842163  0.75193647  1  0  -0.531629  0  2.094468  0  0  -0.479795  0  2.315847  0  0  -0.502176  0  2.298873  0  0  -0.299418  -0.464355  0  2.326562  0
O  O112  1  0.83394853  0.91823434  0.36822940  1  0  -0.670377  0  2.029149  0  0  -0.617078  0  2.261869  0  0  -0.64128  0  2.248501  0  0  -0.359184  -0.600224  0  2.270587  0
O  O113  1  0.16605235  0.41823406  0.13177103  1  0  -0.670353  0  2.029174  0  0  -0.617067  0  2.261882  0  0  -0.64127  0  2.248516  0  0  -0.359195  -0.600222  0  2.270609  0
O  O114  1  0.16604907  0.08176619  0.63176916  1  0  -0.670336  0  2.029212  0  0  -0.617043  0  2.26193  0  0  -0.641245  0  2.248562  0  0  -0.359171  -0.600189  0  2.27065  0
O  O115  1  0.83394784  0.58176459  0.86822991  1  0  -0.670307  0  2.029141  0  0  -0.617021  0  2.261864  0  0  -0.641221  0  2.248498  0  0  -0.359199  -0.60018  0  2.270594  0
O  O116  1  0.87902755  0.90069196  0.52491339  1  0  -0.668188  0  1.994253  0  0  -0.626505  0  2.235705  0  0  -0.64902  0  2.225766  0  0  -0.360245  -0.611074  0  2.242241  0
O  O117  1  0.12097400  0.40069091  0.97508705  1  0  -0.668133  0  1.994261  0  0  -0.626465  0  2.235685  0  0  -0.648977  0  2.225746  0  0  -0.360241  -0.61104  0  2.242224  0
O  O118  1  0.12097261  0.09930951  0.47508617  1  0  -0.668092  0  1.994299  0  0  -0.626421  0  2.235732  0  0  -0.648936  0  2.225795  0  0  -0.360212  -0.610978  0  2.242262  0
O  O119  1  0.87902493  0.59930868  0.02491373  1  0  -0.66801  0  1.994276  0  0  -0.626338  0  2.235718  0  0  -0.648852  0  2.225784  0  0  -0.360155  -0.610904  0  2.242249  0
