# generated using pymatgen
data_CuH3(CN2)2
_symmetry_space_group_name_H-M   'P 1'
_cell_length_a   3.59387023
_cell_length_b   10.26386326
_cell_length_c   10.42931343
_cell_angle_alpha   89.99975726
_cell_angle_beta   100.42593622
_cell_angle_gamma   90.00015372
_symmetry_Int_Tables_number   1
_chemical_formula_structural   CuH3(CN2)2
_chemical_formula_sum   'Cu4 H12 C8 N16'
_cell_volume   378.35437834
_cell_formula_units_Z   4
loop_
 _symmetry_equiv_pos_site_id
 _symmetry_equiv_pos_as_xyz
  1  'x, y, z'
loop_
 _atom_site_type_symbol
 _atom_site_label
 _atom_site_symmetry_multiplicity
 _atom_site_fract_x
 _atom_site_fract_y
 _atom_site_fract_z
 _atom_site_occupancy
 _atom_site_hle17_bader_spin_density
 _atom_site_hle17_ddec_charge
 _atom_site_hle17_ddec_spin_density
 _atom_site_hle17_ddec_sum_bond_order
 _atom_site_hle17_magmom
 _atom_site_hse06_10hf_bader_spin_density
 _atom_site_hse06_10hf_ddec_charge
 _atom_site_hse06_10hf_ddec_spin_density
 _atom_site_hse06_10hf_ddec_sum_bond_order
 _atom_site_hse06_10hf_magmom
 _atom_site_hse06_bader_spin_density
 _atom_site_hse06_ddec_charge
 _atom_site_hse06_ddec_spin_density
 _atom_site_hse06_ddec_sum_bond_order
 _atom_site_hse06_magmom
 _atom_site_pbe_bader_spin_density
 _atom_site_pbe_cm5_charge
 _atom_site_pbe_ddec_charge
 _atom_site_pbe_ddec_spin_density
 _atom_site_pbe_ddec_sum_bond_order
 _atom_site_pbe_magmom
Cu  Cu0  1  0.14003844  0.38672885  0.39586076  1  0  0.420006  0  1.881756  0  0  0.281933  0  2.384057  0  0  0.295637  0  2.325668  0  0  0.520416  0.273092  0  2.425748  0
Cu  Cu1  1  0.85994690  0.88672572  0.10413771  1  0  0.419977  0  1.881874  0  0  0.281915  0  2.384144  0  0  0.295643  0  2.32578  0  0  0.520373  0.273063  0  2.425755  0
Cu  Cu2  1  0.85995160  0.61327305  0.60413597  1  0  0.41989  0  1.88193  0  0  0.281889  0  2.384283  0  0  0.295601  0  2.325863  0  0  0.520412  0.273058  0  2.425999  0
Cu  Cu3  1  0.14004894  0.11327326  0.89586124  1  0  0.419941  0  1.881874  0  0  0.281896  0  2.384152  0  0  0.295625  0  2.325732  0  0  0.520412  0.273049  0  2.425777  0
H  H4  1  0.52364827  0.15137682  0.52419396  1  0  0.313157  0  0.889458  0  0  0.304553  0  0.945886  0  0  0.310416  0  0.941171  0  0  0.300402  0.29999  0  0.94972  0
H  H5  1  0.47634983  0.65137374  0.97580488  1  0  0.313145  0  0.889451  0  0  0.304536  0  0.945885  0  0  0.3104  0  0.94117  0  0  0.300413  0.29997  0  0.949712  0
H  H6  1  0.47636157  0.84862703  0.47580382  1  0  0.31314  0  0.889438  0  0  0.304531  0  0.945881  0  0  0.310391  0  0.941171  0  0  0.300413  0.299968  0  0.949714  0
H  H7  1  0.52364354  0.34861939  0.02419874  1  0  0.313153  0  0.889517  0  0  0.304558  0  0.945916  0  0  0.310418  0  0.941207  0  0  0.30044  0.299991  0  0.949746  0
H  H8  1  0.56690254  0.08077543  0.67224429  1  0  0.300366  0  0.932507  0  0  0.28243  0  1.009347  0  0  0.289321  0  1.002911  0  0  0.289664  0.277433  0  1.013879  0
H  H9  1  0.43309496  0.58077391  0.82775290  1  0  0.300442  0  0.932579  0  0  0.282487  0  1.009435  0  0  0.289385  0  1.00299  0  0  0.289722  0.277486  0  1.013988  0
H  H10  1  0.43309895  0.91922745  0.32775497  1  0  0.300321  0  0.932548  0  0  0.282393  0  1.009372  0  0  0.289286  0  1.002935  0  0  0.289662  0.277394  0  1.013912  0
H  H11  1  0.56690936  0.41922214  0.17224651  1  0  0.300379  0  0.932469  0  0  0.282443  0  1.009312  0  0  0.289337  0  1.002875  0  0  0.28968  0.277443  0  1.013854  0
H  H12  1  0.96284090  0.42057025  0.86223926  1  0  0.076081  0  0.968938  0  0  0.08607  0  1.037116  0  0  0.088351  0  1.034714  0  0  0.120688  0.084053  0  1.039429  0
H  H13  1  0.03717044  0.92056725  0.63776203  1  0  0.076045  0  0.968899  0  0  0.086023  0  1.037099  0  0  0.088303  0  1.034698  0  0  0.120675  0.08401  0  1.039417  0
H  H14  1  0.03715204  0.57943359  0.13775858  1  0  0.076057  0  0.968905  0  0  0.086051  0  1.037082  0  0  0.088329  0  1.03468  0  0  0.120693  0.084034  0  1.039393  0
H  H15  1  0.96283403  0.07942978  0.36223930  1  0  0.076063  0  0.968947  0  0  0.086054  0  1.037118  0  0  0.088334  0  1.034716  0  0  0.120704  0.084039  0  1.039436  0
C  C16  1  0.25873445  0.24413488  0.65033264  1  0  0.542557  0  3.840196  0  0  0.506385  0  4.102  0  0  0.525085  0  4.117377  0  0  0.300665  0.493579  0  4.091136  0
C  C17  1  0.74126445  0.74412769  0.84966874  1  0  0.542457  0  3.840367  0  0  0.506324  0  4.102128  0  0  0.525027  0  4.117503  0  0  0.300658  0.493522  0  4.091253  0
C  C18  1  0.74126168  0.75586701  0.34967017  1  0  0.542638  0  3.840323  0  0  0.506547  0  4.102011  0  0  0.525252  0  4.117384  0  0  0.300744  0.493746  0  4.09115  0
C  C19  1  0.25873987  0.25586641  0.15033068  1  0  0.542663  0  3.840429  0  0  0.506549  0  4.102104  0  0  0.525254  0  4.117473  0  0  0.300721  0.493743  0  4.091233  0
C  C20  1  0.05050633  0.37738650  0.77742162  1  0  0.18221  0  3.760911  0  0  0.135835  0  4.020056  0  0  0.146906  0  4.036286  0  0  0.113416  0.128706  0  4.008759  0
C  C21  1  0.94950168  0.87738391  0.72257681  1  0  0.182283  0  3.760767  0  0  0.135906  0  4.019899  0  0  0.146974  0  4.036127  0  0  0.113378  0.128765  0  4.008618  0
C  C22  1  0.94948639  0.62261832  0.22257333  1  0  0.182271  0  3.761234  0  0  0.135885  0  4.020354  0  0  0.146961  0  4.036576  0  0  0.113377  0.128754  0  4.009052  0
C  C23  1  0.05050018  0.12261506  0.27742727  1  0  0.182291  0  3.761222  0  0  0.135878  0  4.020345  0  0  0.14695  0  4.03657  0  0  0.113361  0.12874  0  4.009061  0
N  N24  1  0.16569911  0.35274711  0.58079883  1  0  -0.370961  0  3.254854  0  0  -0.308796  0  3.578558  0  0  -0.321862  0  3.58026  0  0  -0.320987  -0.299935  0  3.577573  0
N  N25  1  0.83430585  0.85274555  0.91919858  1  0  -0.370948  0  3.254872  0  0  -0.308829  0  3.578568  0  0  -0.321909  0  3.580295  0  0  -0.320983  -0.299961  0  3.577538  0
N  N26  1  0.83429658  0.64725673  0.41919820  1  0  -0.370972  0  3.255161  0  0  -0.308888  0  3.578897  0  0  -0.321942  0  3.580571  0  0  -0.320965  -0.300033  0  3.577929  0
N  N27  1  0.16570718  0.14725634  0.08080418  1  0  -0.371041  0  3.255049  0  0  -0.308941  0  3.578729  0  0  -0.322002  0  3.580416  0  0  -0.321003  -0.300077  0  3.577706  0
N  N28  1  0.03225896  0.43990510  0.66465086  1  0  -0.263188  0  3.353476  0  0  -0.197839  0  3.673628  0  0  -0.207256  0  3.677645  0  0  -0.312317  -0.19156  0  3.67071  0
N  N29  1  0.96774655  0.93990303  0.83534621  1  0  -0.263116  0  3.353471  0  0  -0.197733  0  3.673544  0  0  -0.207152  0  3.677569  0  0  -0.312239  -0.191444  0  3.670586  0
N  N30  1  0.96773376  0.56010362  0.33534409  1  0  -0.263163  0  3.353595  0  0  -0.19778  0  3.673709  0  0  -0.207205  0  3.677739  0  0  -0.312244  -0.191497  0  3.67078  0
N  N31  1  0.03226655  0.06010082  0.16465751  1  0  -0.263141  0  3.353498  0  0  -0.197752  0  3.673589  0  0  -0.207183  0  3.677632  0  0  -0.312176  -0.191459  0  3.670628  0
N  N32  1  0.18841229  0.25395935  0.77402596  1  0  -0.512336  0  3.33308  0  0  -0.433629  0  3.651251  0  0  -0.452118  0  3.651648  0  0  -0.416217  -0.421584  0  3.651762  0
N  N33  1  0.81158645  0.75395469  0.72597248  1  0  -0.512409  0  3.332801  0  0  -0.433715  0  3.650988  0  0  -0.4522  0  3.651372  0  0  -0.416227  -0.421685  0  3.651554  0
N  N34  1  0.81158086  0.74603670  0.22597477  1  0  -0.512468  0  3.333366  0  0  -0.433773  0  3.651504  0  0  -0.45227  0  3.651906  0  0  -0.41627  -0.421727  0  3.652011  0
N  N35  1  0.18840656  0.24603357  0.27402632  1  0  -0.512488  0  3.333188  0  0  -0.433742  0  3.651297  0  0  -0.452225  0  3.651678  0  0  -0.416243  -0.4217  0  3.65184  0
N  N36  1  0.39445080  0.13252502  0.60148425  1  0  -0.687837  0  3.033801  0  0  -0.656914  0  3.265853  0  0  -0.674463  0  3.26255  0  0  -0.595751  -0.64374  0  3.267719  0
N  N37  1  0.60554420  0.63252140  0.89851258  1  0  -0.687841  0  3.033994  0  0  -0.656911  0  3.266038  0  0  -0.674464  0  3.262735  0  0  -0.59584  -0.643739  0  3.267897  0
N  N38  1  0.60554793  0.86747688  0.39851582  1  0  -0.687779  0  3.033791  0  0  -0.656874  0  3.265819  0  0  -0.674428  0  3.262518  0  0  -0.595788  -0.643704  0  3.267687  0
N  N39  1  0.39445432  0.36747172  0.10148460  1  0  -0.687846  0  3.033975  0  0  -0.656953  0  3.266014  0  0  -0.674507  0  3.262714  0  0  -0.59584  -0.643786  0  3.267886  0
