# generated using pymatgen
data_KH21(C3O2)7
_symmetry_space_group_name_H-M   'P 1'
_cell_length_a   10.00580748
_cell_length_b   10.01706815
_cell_length_c   12.25000000
_cell_angle_alpha   86.87993482
_cell_angle_beta   86.87641998
_cell_angle_gamma   73.87070259
_symmetry_Int_Tables_number   1
_chemical_formula_structural   KH21(C3O2)7
_chemical_formula_sum   'K2 H42 C42 O28'
_cell_volume   1176.73297656
_cell_formula_units_Z   2
loop_
 _symmetry_equiv_pos_site_id
 _symmetry_equiv_pos_as_xyz
  1  'x, y, z'
loop_
 _atom_site_type_symbol
 _atom_site_label
 _atom_site_symmetry_multiplicity
 _atom_site_fract_x
 _atom_site_fract_y
 _atom_site_fract_z
 _atom_site_occupancy
 _atom_site_hle17_bader_spin_density
 _atom_site_hle17_ddec_charge
 _atom_site_hle17_ddec_spin_density
 _atom_site_hle17_ddec_sum_bond_order
 _atom_site_hle17_magmom
 _atom_site_hse06_10hf_bader_spin_density
 _atom_site_hse06_10hf_ddec_charge
 _atom_site_hse06_10hf_ddec_spin_density
 _atom_site_hse06_10hf_ddec_sum_bond_order
 _atom_site_hse06_10hf_magmom
 _atom_site_hse06_bader_spin_density
 _atom_site_hse06_ddec_charge
 _atom_site_hse06_ddec_spin_density
 _atom_site_hse06_ddec_sum_bond_order
 _atom_site_hse06_magmom
 _atom_site_pbe_bader_charge
 _atom_site_pbe_bader_spin_density
 _atom_site_pbe_cm5_charge
 _atom_site_pbe_ddec_charge
 _atom_site_pbe_ddec_spin_density
 _atom_site_pbe_ddec_sum_bond_order
 _atom_site_pbe_magmom
K  K0  1  0.47229398  0.51960477  0.78495534  1  0  0.946392  0  0.436671  0  0  0.912159  0  0.607191  0  0  0.923992  0  0.58802  0  0.900362  0  0.794559  0.902991  0  0.621355  0
K  K1  1  0.51970964  0.47251434  0.28471474  1  0  0.94624  0  0.435915  0  0  0.912109  0  0.606094  0  0  0.923904  0  0.586962  0  0.90051  0  0.793661  0.902889  0  0.620296  0
H  H2  1  0.79331973  0.72954701  0.93872667  1  0  0.100982  0  0.949078  0  0  0.116234  0  1.01617  0  0  0.116989  0  1.015971  0  0.064877  0  0.105211  0.115606  0  1.016339  0
H  H3  1  0.72963523  0.79323079  0.43875609  1  0  0.101304  0  0.949223  0  0  0.116472  0  1.016304  0  0  0.117237  0  1.016119  0  0.064679  0  0.105203  0.115835  0  1.016474  0
H  H4  1  0.64437707  0.69997976  0.87934758  1  0  0.086545  0  0.949368  0  0  0.10111  0  1.021627  0  0  0.101893  0  1.021178  0  0.059837  0  0.105524  0.100441  0  1.022077  0
H  H5  1  0.69987403  0.64459473  0.37927403  1  0  0.086333  0  0.949548  0  0  0.100774  0  1.021915  0  0  0.101532  0  1.021485  0  0.060603  0  0.105375  0.100128  0  1.022326  0
H  H6  1  0.70737223  0.84241073  0.82857360  1  0  0.095045  0  0.931854  0  0  0.112237  0  0.99779  0  0  0.112103  0  0.99828  0  0.064409  0  0.104155  0.112078  0  0.997771  0
H  H7  1  0.84267787  0.70727276  0.32866410  1  0  0.095354  0  0.931488  0  0  0.112424  0  0.997503  0  0  0.11231  0  0.997981  0  0.06355  0  0.104153  0.112266  0  0.99748  0
H  H8  1  0.75425253  0.03109928  0.70240777  1  0  0.108363  0  0.964161  0  0  0.124117  0  1.030321  0  0  0.125643  0  1.028893  0  0.115442  0  0.103873  0.122819  0  1.031643  0
H  H9  1  0.03073912  0.75409693  0.20254501  1  0  0.108606  0  0.964807  0  0  0.124341  0  1.030933  0  0  0.12586  0  1.029504  0  0.11483  0  0.103848  0.123056  0  1.032247  0
H  H10  1  0.62399595  0.18987191  0.73453615  1  0  0.086783  0  0.94489  0  0  0.100125  0  1.016668  0  0  0.101151  0  1.015361  0  0.081428  0  0.103195  0.099066  0  1.017821  0
H  H11  1  0.18973552  0.62402101  0.23458519  1  0  0.08692  0  0.945206  0  0  0.100252  0  1.017015  0  0  0.101279  0  1.015692  0  0.08166  0  0.103214  0.099188  0  1.018176  0
H  H12  1  0.77341750  0.13298709  0.81561596  1  0  0.098837  0  0.932237  0  0  0.113306  0  0.998884  0  0  0.114695  0  0.997215  0  0.070916  0  0.101875  0.112086  0  1.000438  0
H  H13  1  0.13284373  0.77328631  0.31566083  1  0  0.099059  0  0.932514  0  0  0.113588  0  0.999102  0  0  0.11498  0  0.997445  0  0.071104  0  0.101934  0.112358  0  1.000656  0
H  H14  1  0.82294123  0.98842060  0.34182450  1  0  0.100672  0  0.930304  0  0  0.119739  0  0.991201  0  0  0.120247  0  0.990945  0  0.087791  0  0.10903  0.119395  0  0.991359  0
H  H15  1  0.98813262  0.82272731  0.84173745  1  0  0.100146  0  0.93062  0  0  0.119463  0  0.991361  0  0  0.119966  0  0.991119  0  0.083638  0  0.108912  0.119131  0  0.991505  0
H  H16  1  0.69879339  0.14886384  0.30245105  1  0  0.099203  0  0.933121  0  0  0.113583  0  1.002979  0  0  0.114682  0  1.001652  0  0.09117  0  0.110187  0.112819  0  1.00394  0
H  H17  1  0.14881381  0.69880239  0.80238676  1  0  0.099156  0  0.932913  0  0  0.113695  0  1.002597  0  0  0.114794  0  1.001264  0  0.090182  0  0.110259  0.112913  0  1.003589  0
H  H18  1  0.68219060  0.06883216  0.43532260  1  0  0.094418  0  0.93341  0  0  0.11216  0  0.99929  0  0  0.11268  0  0.998367  0  0.05997  0  0.107255  0.111704  0  1.000173  0
H  H19  1  0.06871076  0.68223296  0.93528041  1  0  0.094565  0  0.932995  0  0  0.112139  0  0.99905  0  0  0.112661  0  0.998122  0  0.061585  0  0.107365  0.111682  0  0.999936  0
H  H20  1  0.13286409  0.47323303  0.07626427  1  0  0.103305  0  0.931678  0  0  0.121106  0  0.993543  0  0  0.122109  0  0.992658  0  0.048739  0  0.110191  0.120346  0  0.994209  0
H  H21  1  0.47329877  0.13273644  0.57628662  1  0  0.103107  0  0.931605  0  0  0.120863  0  0.993573  0  0  0.121863  0  0.992693  0  0.049981  0  0.110017  0.12013  0  0.994209  0
H  H22  1  0.94506659  0.51697026  0.09442017  1  0  0.102596  0  0.930278  0  0  0.122185  0  0.99014  0  0  0.123192  0  0.989273  0  0.08859  0  0.107408  0.121423  0  0.99077  0
H  H23  1  0.51701297  0.94515973  0.59445820  1  0  0.102444  0  0.930199  0  0  0.122083  0  0.990017  0  0  0.123079  0  0.989146  0  0.088335  0  0.107428  0.121321  0  0.990645  0
H  H24  1  0.04476362  0.33925475  0.08064309  1  0  0.085761  0  0.949398  0  0  0.102626  0  1.015391  0  0  0.102994  0  1.015189  0  0.075341  0  0.100199  0.102313  0  1.015595  0
H  H25  1  0.33912307  0.04479603  0.58069567  1  0  0.085812  0  0.949263  0  0  0.102736  0  1.015145  0  0  0.103107  0  1.014938  0  0.074587  0  0.100181  0.10242  0  1.015359  0
H  H26  1  0.31817231  0.99955773  0.32848858  1  0  0.103567  0  0.941792  0  0  0.120756  0  1.002512  0  0  0.121711  0  1.001665  0  0.075413  0  0.103268  0.119911  0  1.003316  0
H  H27  1  0.99911003  0.31842205  0.82841739  1  0  0.103828  0  0.942685  0  0  0.120707  0  1.003706  0  0  0.121664  0  1.002866  0  0.075166  0  0.103327  0.119867  0  1.004504  0
H  H28  1  0.43595669  0.07928075  0.38764288  1  0  0.085971  0  0.958546  0  0  0.102463  0  1.028485  0  0  0.102933  0  1.027899  0  0.057589  0  0.101759  0.101944  0  1.029135  0
H  H29  1  0.07918024  0.43581530  0.88762998  1  0  0.085564  0  0.958502  0  0  0.102074  0  1.028423  0  0  0.102542  0  1.027835  0  0.05873  0  0.101446  0.101583  0  1.029034  0
H  H30  1  0.37882535  0.13329080  0.25308058  1  0  0.103746  0  0.942294  0  0  0.11778  0  1.011557  0  0  0.118433  0  1.011112  0  0.115684  0  0.103602  0.117181  0  1.012027  0
H  H31  1  0.13317810  0.37876095  0.75305254  1  0  0.103625  0  0.942142  0  0  0.117587  0  1.011508  0  0  0.118248  0  1.011049  0  0.115843  0  0.103546  0.116986  0  1.011988  0
H  H32  1  0.45246708  0.72114320  0.44901888  1  0  0.11314  0  0.945898  0  0  0.133335  0  1.002816  0  0  0.134312  0  1.002296  0  0.088341  0  0.112531  0.132461  0  1.003345  0
H  H33  1  0.72117014  0.45219648  0.94904686  1  0  0.112968  0  0.945356  0  0  0.133126  0  1.002392  0  0  0.134108  0  1.001878  0  0.089063  0  0.112551  0.13226  0  1.002906  0
H  H34  1  0.51244018  0.56614188  0.53471526  1  0  0.093094  0  0.964127  0  0  0.103403  0  1.041832  0  0  0.105048  0  1.039483  0  0.090822  0  0.105816  0.102157  0  1.043493  0
H  H35  1  0.56593526  0.51196126  0.03470332  1  0  0.092962  0  0.96341  0  0  0.10333  0  1.04117  0  0  0.10499  0  1.038816  0  0.096504  0  0.10591  0.102074  0  1.042843  0
H  H36  1  0.38818595  0.71780976  0.58848863  1  0  0.106369  0  0.954974  0  0  0.119377  0  1.026511  0  0  0.120737  0  1.024945  0  0.106796  0  0.109035  0.118344  0  1.027621  0
H  H37  1  0.71791056  0.38810810  0.08855046  1  0  0.105561  0  0.955396  0  0  0.118643  0  1.026987  0  0  0.12  0  1.025445  0  0.108696  0  0.108844  0.117617  0  1.02809  0
H  H38  1  0.16713327  0.95467225  0.53871150  1  0  0.095543  0  0.933442  0  0  0.115837  0  0.993235  0  0  0.116473  0  0.992353  0  0.033691  0  0.104994  0.11517  0  0.993972  0
H  H39  1  0.95509619  0.16711923  0.03870877  1  0  0.095149  0  0.934242  0  0  0.115514  0  0.993919  0  0  0.116152  0  0.993021  0  0.030132  0  0.104902  0.114819  0  0.994681  0
H  H40  1  0.06982893  0.95487611  0.66609196  1  0  0.096043  0  0.925093  0  0  0.115472  0  0.985072  0  0  0.11592  0  0.984516  0  0.044692  0  0.104363  0.114863  0  0.985814  0
H  H41  1  0.95536834  0.06994088  0.16609527  1  0  0.096596  0  0.924481  0  0  0.116045  0  0.984396  0  0  0.116487  0  0.983857  0  0.045626  0  0.104707  0.115427  0  0.985143  0
H  H42  1  0.97989942  0.00748646  0.54126477  1  0  0.103315  0  0.980752  0  0  0.110794  0  1.058319  0  0  0.11305  0  1.055753  0  0.123853  0  0.101412  0.109054  0  1.060166  0
H  H43  1  0.00802552  0.98010625  0.04126504  1  0  0.103559  0  0.980219  0  0  0.110642  0  1.058325  0  0  0.1129  0  1.055757  0  0.121502  0  0.101171  0.108898  0  1.060165  0
C  C44  1  0.88780378  0.54088574  0.61418110  1  0  0.018475  0  3.664669  0  0  0.016828  0  3.90867  0  0  0.026628  0  3.927076  0  0.018011  0  0.020788  0.011095  0  3.895641  0
C  C45  1  0.54090858  0.88794937  0.11421034  1  0  0.019325  0  3.664401  0  0  0.017826  0  3.908392  0  0  0.027627  0  3.926786  0  0.019177  0  0.021428  0.01211  0  3.895365  0
C  C46  1  0.87398848  0.40603379  0.59394644  1  0  -0.210949  0  3.764997  0  0  -0.213823  0  4.034164  0  0  -0.237091  0  4.063862  0  0.017479  0  -0.052654  -0.198753  0  4.013969  0
C  C47  1  0.40589042  0.87414134  0.09398194  1  0  -0.211249  0  3.763793  0  0  -0.214129  0  4.033176  0  0  -0.237345  0  4.062817  0  0.017972  0  -0.052999  -0.199074  0  4.012988  0
C  C48  1  0.89342745  0.35577113  0.48442281  1  0  0.007329  0  3.703083  0  0  -0.000733  0  3.958232  0  0  0.009231  0  3.973782  0  0.015469  0  0.012056  -0.007088  0  3.947073  0
C  C49  1  0.35564079  0.89357097  0.98442876  1  0  0.006834  0  3.702677  0  0  -0.001467  0  3.958542  0  0  0.008396  0  3.974127  0  0.008548  0  0.011937  -0.007774  0  3.947347  0
C  C50  1  0.98475446  0.38975038  0.40750618  1  0  -0.161885  0  3.784489  0  0  -0.166925  0  4.053295  0  0  -0.179642  0  4.074771  0  0.04367  0  -0.04057  -0.158201  0  4.038735  0
C  C51  1  0.38962764  0.98485939  0.90754779  1  0  -0.161843  0  3.784084  0  0  -0.167159  0  4.053567  0  0  -0.179849  0  4.075037  0  0.047732  0  -0.040671  -0.158442  0  4.038988  0
C  C52  1  0.11402190  0.41766599  0.44250745  1  0  -0.087953  0  3.733477  0  0  -0.095841  0  3.998864  0  0  -0.099911  0  4.016944  0  0.017851  0  -0.014343  -0.093569  0  3.986873  0
C  C53  1  0.41754542  0.11398493  0.94258957  1  0  -0.087796  0  3.733084  0  0  -0.095577  0  3.99826  0  0  -0.099591  0  4.016337  0  0.017436  0  -0.014015  -0.093286  0  3.986272  0
C  C54  1  0.11305866  0.52235369  0.50851382  1  0  -0.020125  0  3.662271  0  0  -0.025143  0  3.916928  0  0  -0.020938  0  3.9329  0  0.016828  0  0.00932  -0.027644  0  3.906139  0
C  C55  1  0.52233804  0.11301038  0.00862116  1  0  -0.020044  0  3.662804  0  0  -0.024738  0  3.917171  0  0  -0.020673  0  3.933343  0  0.014698  0  0.009277  -0.027293  0  3.906418  0
C  C56  1  0.98351581  0.60497516  0.56341408  1  0  -0.177181  0  3.717353  0  0  -0.178351  0  3.982665  0  0  -0.194879  0  4.00673  0  0.017753  0  -0.0379  -0.167644  0  3.966249  0
C  C57  1  0.60505104  0.98360714  0.06349154  1  0  -0.177731  0  3.717435  0  0  -0.179438  0  3.983181  0  0  -0.195927  0  4.007286  0  -0.015961  0  -0.038488  -0.168758  0  3.966792  0
C  C58  1  0.77944132  0.62506316  0.69447220  1  0  0.605543  0  3.808472  0  0  0.556211  0  4.105046  0  0  0.589685  0  4.092574  0  1.553725  0  0.236464  0.532969  0  4.11352  0
C  C59  1  0.62522516  0.77962453  0.19441439  1  0  0.604111  0  3.809748  0  0  0.554664  0  4.106426  0  0  0.58811  0  4.094036  0  1.553859  0  0.236236  0.531463  0  4.114876  0
C  C60  1  0.73805456  0.73543383  0.86327457  1  0  -0.067939  0  3.588685  0  0  -0.171715  0  3.86295  0  0  -0.163803  0  3.866234  0  0.379358  0  -0.140779  -0.176698  0  3.86049  0
C  C61  1  0.73554318  0.73807458  0.36327943  1  0  -0.068793  0  3.588805  0  0  -0.172256  0  3.862845  0  0  -0.16438  0  3.866162  0  0.378598  0  -0.140484  -0.177173  0  3.860375  0
C  C62  1  0.80748044  0.33732541  0.67901354  1  0  0.557961  0  3.882302  0  0  0.509466  0  4.179064  0  0  0.544098  0  4.174623  0  1.384934  0  0.206434  0.486199  0  4.181477  0
C  C63  1  0.33718855  0.80752870  0.17900605  1  0  0.55804  0  3.8819  0  0  0.509571  0  4.17859  0  0  0.544194  0  4.174157  0  1.384529  0  0.206526  0.486308  0  4.180991  0
C  C64  1  0.73558236  0.13554360  0.73288897  1  0  -0.073134  0  3.585884  0  0  -0.176046  0  3.856613  0  0  -0.167898  0  3.857795  0  0.319009  0  -0.144194  -0.181321  0  3.856178  0
C  C65  1  0.13533358  0.73548479  0.23294185  1  0  -0.074047  0  3.587155  0  0  -0.177066  0  3.857765  0  0  -0.168944  0  3.859018  0  0.317523  0  -0.144383  -0.182345  0  3.857306  0
C  C66  1  0.78898783  0.28501796  0.44908139  1  0  0.605447  0  3.822176  0  0  0.551849  0  4.127956  0  0  0.584923  0  4.115431  0  1.548526  0  0.237863  0.529082  0  4.136102  0
C  C67  1  0.28496746  0.78913602  0.94902071  1  0  0.60652  0  3.820067  0  0  0.553015  0  4.126043  0  0  0.586235  0  4.113275  0  1.545989  0  0.238338  0.530178  0  4.134274  0
C  C68  1  0.75586358  0.08705635  0.37050190  1  0  -0.057487  0  3.571182  0  0  -0.16205  0  3.844819  0  0  -0.152976  0  3.845398  0  0.350364  0  -0.133745  -0.168103  0  3.844402  0
C  C69  1  0.08690226  0.75580786  0.87043124  1  0  -0.057425  0  3.571261  0  0  -0.16209  0  3.844871  0  0  -0.153017  0  3.845438  0  0.354083  0  -0.134017  -0.168163  0  3.844489  0
C  C70  1  0.96136529  0.38917002  0.29080075  1  0  0.570613  0  3.833534  0  0  0.520705  0  4.134277  0  0  0.555731  0  4.125254  0  1.438803  0  0.218339  0.496818  0  4.139983  0
C  C71  1  0.38912016  0.96148058  0.79083131  1  0  0.571201  0  3.833941  0  0  0.521236  0  4.134705  0  0  0.556231  0  4.125697  0  1.438157  0  0.218643  0.497356  0  4.140403  0
C  C72  1  0.04417771  0.43986951  0.11218618  1  0  -0.074003  0  3.612989  0  0  -0.17323  0  3.876849  0  0  -0.165638  0  3.879632  0  0.361631  0  -0.140335  -0.178165  0  3.874744  0
C  C73  1  0.43986222  0.04418342  0.61222788  1  0  -0.073685  0  3.612723  0  0  -0.173132  0  3.876523  0  0  -0.165551  0  3.879289  0  0.361191  0  -0.140218  -0.178083  0  3.874408  0
C  C74  1  0.24691530  0.31627637  0.40791755  1  0  0.587657  0  3.808317  0  0  0.536826  0  4.111325  0  0  0.570757  0  4.101133  0  1.487259  0  0.231729  0.513563  0  4.118105  0
C  C75  1  0.31613945  0.24675465  0.90796835  1  0  0.589983  0  3.806016  0  0  0.539137  0  4.108918  0  0  0.573069  0  4.098702  0  1.485832  0  0.233552  0.515863  0  4.115718  0
C  C76  1  0.34845862  0.09559016  0.33381048  1  0  -0.069098  0  3.579198  0  0  -0.16994  0  3.848063  0  0  -0.161621  0  3.849683  0  0.337321  0  -0.142411  -0.175413  0  3.847226  0
C  C77  1  0.09535798  0.34846149  0.83376763  1  0  -0.068602  0  3.579791  0  0  -0.169087  0  3.84845  0  0  -0.16077  0  3.850078  0  0.336852  0  -0.142008  -0.174586  0  3.847588  0
C  C78  1  0.24635161  0.54385308  0.54736811  1  0  0.625011  0  3.79509  0  0  0.572499  0  4.09841  0  0  0.605306  0  4.087788  0  1.562015  0  0.246392  0.549982  0  4.105277  0
C  C79  1  0.54389923  0.24614724  0.04747882  1  0  0.623832  0  3.795634  0  0  0.571201  0  4.099122  0  0  0.604012  0  4.088569  0  1.561453  0  0.24656  0.548777  0  4.105835  0
C  C80  1  0.42412812  0.65615412  0.51587061  1  0  -0.097253  0  3.577516  0  0  -0.201018  0  3.849265  0  0  -0.192733  0  3.849641  0  0.300772  0  -0.150957  -0.206299  0  3.848781  0
C  C81  1  0.65617044  0.42383363  0.01592054  1  0  -0.0964  0  3.576359  0  0  -0.200235  0  3.848267  0  0  -0.191933  0  3.84857  0  0.287981  0  -0.150934  -0.205495  0  3.847723  0
C  C82  1  0.96302272  0.75366114  0.58126612  1  0  0.558023  0  3.860621  0  0  0.506887  0  4.161619  0  0  0.54095  0  4.155674  0  1.42813  0  0.214441  0.48352  0  4.165525  0
C  C83  1  0.75392375  0.96315198  0.08130255  1  0  0.558082  0  3.859512  0  0  0.506866  0  4.160205  0  0  0.540948  0  4.154291  0  1.463273  0  0.214172  0.483588  0  4.164078  0
C  C84  1  0.07205254  0.93792913  0.57816440  1  0  -0.062315  0  3.576121  0  0  -0.163565  0  3.843046  0  0  -0.155018  0  3.843685  0  0.390317  0  -0.141818  -0.169113  0  3.842712  0
C  C85  1  0.93837215  0.07214167  0.07817500  1  0  -0.062349  0  3.575503  0  0  -0.163862  0  3.842663  0  0  -0.155247  0  3.843279  0  0.393148  0  -0.141946  -0.169353  0  3.842415  0
O  O86  1  0.83487697  0.64705139  0.78751771  1  0  -0.292078  0  2.310233  0  0  -0.215455  0  2.550755  0  0  -0.237192  0  2.551069  0  -1.058867  0  -0.170826  -0.200278  0  2.550248  0
O  O87  1  0.64723651  0.83490035  0.28750679  1  0  -0.291116  0  2.310689  0  0  -0.214453  0  2.551125  0  0  -0.236129  0  2.551416  0  -1.057537  0  -0.171237  -0.199396  0  2.550679  0
O  O88  1  0.65551224  0.66634374  0.67540209  1  0  -0.553976  0  1.990794  0  0  -0.520131  0  2.222835  0  0  -0.540872  0  2.216115  0  -1.137282  0  -0.315485  -0.505729  0  2.227135  0
O  O89  1  0.66658675  0.65586394  0.17522460  1  0  -0.553477  0  1.990275  0  0  -0.519615  0  2.222214  0  0  -0.540359  0  2.215559  0  -1.137447  0  -0.315056  -0.505195  0  2.226455  0
O  O90  1  0.75371237  0.38787825  0.76673215  1  0  -0.608594  0  2.048913  0  0  -0.56939  0  2.289124  0  0  -0.591399  0  2.282331  0  -1.181687  0  -0.357516  -0.553925  0  2.29318  0
O  O91  1  0.38784970  0.75383899  0.26670819  1  0  -0.608412  0  2.047817  0  0  -0.569279  0  2.288141  0  0  -0.591255  0  2.281317  0  -1.180406  0  -0.357252  -0.553806  0  2.292175  0
O  O92  1  0.81155805  0.20488643  0.65584328  1  0  -0.290693  0  2.327088  0  0  -0.206279  0  2.562388  0  0  -0.22841  0  2.562743  0  -1.064705  0  -0.173309  -0.191062  0  2.561523  0
O  O93  1  0.20464771  0.81140506  0.15583460  1  0  -0.290569  0  2.328134  0  0  -0.205962  0  2.563293  0  0  -0.228102  0  2.563675  0  -1.063344  0  -0.17334  -0.190734  0  2.562411  0
O  O94  1  0.66271026  0.33934211  0.45431567  1  0  -0.571268  0  1.982773  0  0  -0.536278  0  2.214259  0  0  -0.555684  0  2.205288  0  -1.16485  0  -0.354908  -0.523086  0  2.220606  0
O  O95  1  0.33945734  0.66300925  0.95428255  1  0  -0.572183  0  1.981731  0  0  -0.537148  0  2.213369  0  0  -0.556611  0  2.204286  0  -1.162317  0  -0.355691  -0.523949  0  2.219776  0
O  O96  1  0.84899007  0.15740285  0.41295759  1  0  -0.276361  0  2.332717  0  0  -0.201851  0  2.574945  0  0  -0.222824  0  2.573211  0  -1.063803  0  -0.162077  -0.187272  0  2.575846  0
O  O97  1  0.15721328  0.84894136  0.91285636  1  0  -0.276235  0  2.333083  0  0  -0.201893  0  2.575477  0  0  -0.222905  0  2.573697  0  -1.063066  0  -0.16183  -0.187247  0  2.576342  0
O  O98  1  0.86097022  0.36421030  0.25028118  1  0  -0.554104  0  1.97004  0  0  -0.517264  0  2.200945  0  0  -0.537908  0  2.194131  0  -1.153286  0  -0.291475  -0.502677  0  2.205204  0
O  O99  1  0.36418664  0.86117888  0.75030315  1  0  -0.554092  0  1.970129  0  0  -0.517224  0  2.20093  0  0  -0.537869  0  2.194126  0  -1.152924  0  -0.291445  -0.502642  0  2.205194  0
O  O100  1  0.06359378  0.42641926  0.22835657  1  0  -0.293616  0  2.310017  0  0  -0.213985  0  2.549047  0  0  -0.23466  0  2.547143  0  -1.05882  0  -0.176257  -0.199481  0  2.549725  0
O  O101  1  0.42641536  0.06360058  0.72839644  1  0  -0.294052  0  2.309957  0  0  -0.213986  0  2.548701  0  0  -0.234608  0  2.546772  0  -1.057281  0  -0.176348  -0.199491  0  2.549391  0
O  O102  1  0.22627481  0.19595739  0.37771454  1  0  -0.283102  0  2.300671  0  0  -0.207797  0  2.541479  0  0  -0.228649  0  2.539536  0  -1.060368  0  -0.171463  -0.193376  0  2.542415  0
O  O103  1  0.19568138  0.22627349  0.87764688  1  0  -0.284302  0  2.300407  0  0  -0.209001  0  2.541218  0  0  -0.229839  0  2.53925  0  -1.061507  0  -0.172223  -0.194586  0  2.54218  0
O  O104  1  0.36311800  0.33571849  0.40675629  1  0  -0.56824  0  2.006197  0  0  -0.532042  0  2.239902  0  0  -0.551421  0  2.23151  0  -1.15506  0  -0.348062  -0.518892  0  2.245645  0
O  O105  1  0.33568685  0.36279788  0.90686174  1  0  -0.569776  0  2.005021  0  0  -0.533537  0  2.238647  0  0  -0.552933  0  2.230252  0  -1.15358  0  -0.349312  -0.520387  0  2.24441  0
O  O106  1  0.31094143  0.61106896  0.47463078  1  0  -0.292329  0  2.376902  0  0  -0.222474  0  2.628497  0  0  -0.244031  0  2.628272  0  -1.047935  0  -0.178713  -0.207579  0  2.628085  0
O  O107  1  0.61124619  0.31061524  0.97474516  1  0  -0.291392  0  2.37644  0  0  -0.22178  0  2.628277  0  0  -0.243319  0  2.628082  0  -1.043713  0  -0.178655  -0.206891  0  2.627803  0
O  O108  1  0.28445672  0.50774168  0.64085080  1  0  -0.575694  0  1.952712  0  0  -0.539113  0  2.17738  0  0  -0.559621  0  2.169518  0  -1.166635  0  -0.350194  -0.524617  0  2.182395  0
O  O109  1  0.50770153  0.28426183  0.14094453  1  0  -0.575296  0  1.953196  0  0  -0.538669  0  2.177808  0  0  -0.55915  0  2.169943  0  -1.165787  0  -0.349939  -0.524199  0  2.182766  0
O  O110  1  0.08077034  0.79408365  0.56087978  1  0  -0.288808  0  2.353821  0  0  -0.206181  0  2.592251  0  0  -0.227759  0  2.592021  0  -1.067431  0  -0.16969  -0.191473  0  2.592055  0
O  O111  1  0.79436609  0.08078678  0.06093505  1  0  -0.289134  0  2.352991  0  0  -0.205608  0  2.59066  0  0  -0.227311  0  2.590512  0  -1.066852  0  -0.169624  -0.191044  0  2.590532  0
O  O112  1  0.85124483  0.83550047  0.60998227  1  0  -0.537207  0  1.981183  0  0  -0.494272  0  2.203419  0  0  -0.515429  0  2.19774  0  -1.154144  0  -0.283246  -0.479644  0  2.207152  0
O  O113  1  0.83587113  0.85149059  0.10995484  1  0  -0.537139  0  1.981665  0  0  -0.494022  0  2.20353  0  0  -0.515156  0  2.197832  0  -1.152921  0  -0.282849  -0.479394  0  2.207239  0
