# generated using pymatgen
data_Zn2H18C37S2N2(O5F2)2
_symmetry_space_group_name_H-M   'P 1'
_cell_length_a   12.74735015
_cell_length_b   16.37961532
_cell_length_c   17.71231563
_cell_angle_alpha   95.74301750
_cell_angle_beta   90.37432455
_cell_angle_gamma   92.69774061
_symmetry_Int_Tables_number   1
_chemical_formula_structural   Zn2H18C37S2N2(O5F2)2
_chemical_formula_sum   'Zn2 H18 C37 S2 N2 O10 F4'
_cell_volume   3675.39694772
_cell_formula_units_Z   1
loop_
 _symmetry_equiv_pos_site_id
 _symmetry_equiv_pos_as_xyz
  1  'x, y, z'
loop_
 _atom_site_type_symbol
 _atom_site_label
 _atom_site_symmetry_multiplicity
 _atom_site_fract_x
 _atom_site_fract_y
 _atom_site_fract_z
 _atom_site_occupancy
 _atom_site_pbe_bader_charge
 _atom_site_pbe_bader_spin_density
 _atom_site_pbe_cm5_charge
 _atom_site_pbe_ddec_charge
 _atom_site_pbe_ddec_spin_density
 _atom_site_pbe_ddec_sum_bond_order
 _atom_site_pbe_magmom
Zn  Zn0  1  0.49639733  0.41255730  0.49655137  1  1.293423  0  0.674801  0.849188  0  2.394759  0
Zn  Zn1  1  0.50418530  0.58603277  0.50120153  1  1.284499  0  0.668798  0.844107  0  2.389551  0
H  H2  1  0.39213669  0.71200579  0.42918742  1  0.151825  0  0.133606  0.111521  0  0.965579  0
H  H3  1  0.39333780  0.86423060  0.42933772  1  0.08871  0  0.114508  0.123875  0  0.993837  0
H  H4  1  0.63761797  0.87919963  0.60308641  1  0.099588  0  0.121803  0.151289  0  0.973385  0
H  H5  1  0.37998404  0.11950995  0.38488804  1  0.09899  0  0.124562  0.154329  0  0.968087  0
H  H6  1  0.58169597  0.13603958  0.58517926  1  0.082395  0  0.112602  0.120606  0  0.998081  0
H  H7  1  0.58462231  0.28822206  0.58426096  1  0.141408  0  0.13199  0.109965  0  0.970945  0
H  H8  1  0.58177260  0.00427918  0.56427021  1  0.057661  0  0.109157  0.106464  0  0.993572  0
H  H9  1  0.41703536  0.99525069  0.43528290  1  0.054001  0  0.110268  0.106474  0  0.991933  0
H  H10  1  0.50482643  0.62107923  0.26147157  1  0.105592  0  0.104844  0.11003  0  1.000685  0
H  H11  1  0.50361083  0.61398051  0.12125692  1  0.051583  0  0.099501  0.100834  0  1.010013  0
H  H12  1  0.49523054  0.34861638  0.11219404  1  0.071135  0  0.108103  0.129306  0  0.990592  0
H  H13  1  0.51031195  0.65430854  0.88673895  1  0.081928  0  0.107746  0.128945  0  0.990541  0
H  H14  1  0.49246678  0.38884588  0.87655271  1  0.039887  0  0.100173  0.102032  0  1.009571  0
H  H15  1  0.49389009  0.38244740  0.73639308  1  0.097721  0  0.104679  0.109087  0  1.000978  0
H  H16  1  0.49566659  0.40696164  0.99674723  1  0.075709  0  0.101002  0.098047  0  1.004864  0
H  H17  1  0.50465648  0.59552481  0.00169998  1  0.056873  0  0.100458  0.098013  0  1.006837  0
H  H18  1  0.86632821  0.62760501  0.49823028  1  0.105976  0  0.116261  0.142576  0  0.976302  0
H  H19  1  0.05084964  0.34128226  0.58670696  1  0.612502  0  0.327219  0.363672  0  0.892244  0
C  C20  1  0.49990957  0.50116191  0.35185903  1  1.573657  0  0.213993  0.613508  0  4.166741  0
C  C21  1  0.29588388  0.49784320  0.49821342  1  1.572257  0  0.207724  0.601806  0  4.215035  0
C  C22  1  0.50210617  0.50308151  0.64648317  1  1.637038  0  0.213231  0.612527  0  4.174956  0
C  C23  1  0.70503324  0.49771567  0.49814029  1  1.580729  0  0.206251  0.60138  0  4.221214  0
C  C24  1  0.44476907  0.75254612  0.46629868  1  0.462033  0  0.06405  0.130258  0  3.91468  0
C  C25  1  0.44652777  0.83709578  0.46700434  1  -0.027498  0  -0.084572  -0.200123  0  3.940308  0
C  C26  1  0.51664091  0.88630191  0.51646205  1  0.03034  0  0.01392  0.178716  0  4.041879  0
C  C27  1  0.58153644  0.84582791  0.56335563  1  0.064848  0  -0.085602  -0.301641  0  3.914386  0
C  C28  1  0.57356315  0.76061569  0.55804853  1  1.079956  0  0.248014  0.458483  0  4.063059  0
C  C29  1  0.52540326  0.97570419  0.52171925  1  0.002278  0  -0.075123  -0.116686  0  3.951019  0
C  C30  1  0.47184759  0.02375531  0.47893766  1  -0.102638  0  -0.070426  -0.105133  0  3.943422  0
C  C31  1  0.42719341  0.15306997  0.43025593  1  0.027853  0  -0.07961  -0.291814  0  3.897076  0
C  C32  1  0.48042387  0.11320657  0.48430980  1  0.06929  0  0.013541  0.175524  0  4.040784  0
C  C33  1  0.53903776  0.16277777  0.54104052  1  -0.045743  0  -0.086733  -0.202425  0  3.948037  0
C  C34  1  0.54147886  0.24727630  0.54131141  1  0.476839  0  0.06215  0.128034  0  3.921877  0
C  C35  1  0.43552594  0.23837532  0.43514162  1  1.148707  0  0.255083  0.468545  0  4.05182  0
C  C36  1  0.50013825  0.49131383  0.26684804  1  0.106509  0  -0.024758  -0.144506  0  3.937037  0
C  C37  1  0.50243486  0.56185750  0.22730354  1  -0.072403  0  -0.083269  -0.068488  0  4.010458  0
C  C38  1  0.50185500  0.55738761  0.14883213  1  -0.034592  0  -0.098924  -0.156061  0  3.987337  0
C  C39  1  0.49907785  0.48047634  0.10480265  1  -0.005099  0  -0.007897  0.141757  0  4.061209  0
C  C40  1  0.49715544  0.40954985  0.14341015  1  -0.001366  0  -0.102053  -0.270983  0  3.967526  0
C  C41  1  0.49785181  0.41545089  0.22218536  1  0.411786  0  0.10821  0.295603  0  4.036133  0
C  C42  1  0.49851084  0.47068567  0.02218912  1  -0.035123  0  -0.087768  -0.12489  0  3.986002  0
C  C43  1  0.50150548  0.53184930  0.97614846  1  -0.091324  0  -0.08846  -0.127388  0  3.987911  0
C  C44  1  0.50629930  0.59351616  0.85522985  1  0.102926  0  -0.103434  -0.271751  0  3.970231  0
C  C45  1  0.50130745  0.52235058  0.89355678  1  -0.036695  0  -0.00711  0.144464  0  4.060901  0
C  C46  1  0.49668274  0.44561202  0.84922601  1  -0.034455  0  -0.099578  -0.157943  0  3.989211  0
C  C47  1  0.49742853  0.44155636  0.77076999  1  0.020562  0  -0.083252  -0.067782  0  4.012371  0
C  C48  1  0.50221691  0.51234788  0.73151400  1  -0.048991  0  -0.025815  -0.145597  0  3.943291  0
C  C49  1  0.50656264  0.58797769  0.77649760  1  0.412384  0  0.104963  0.290734  0  4.041278  0
C  C50  1  0.10821834  0.42810791  0.49658442  1  0.051036  0  -0.026579  -0.117766  0  4.028013  0
C  C51  1  0.89157757  0.56508998  0.49805803  1  0.02958  0  -0.094537  -0.143746  0  3.976527  0
C  C52  1  0.17950693  0.49493821  0.49585939  1  -0.093763  0  -0.012681  -0.108602  0  3.91244  0
C  C53  1  0.82106153  0.49849866  0.49800378  1  -0.158023  0  -0.0215  -0.095374  0  3.961239  0
C  C54  1  0.99621113  0.53988073  0.49773352  1  -0.126951  0  -0.027159  -0.004746  0  4.084538  0
C  C55  1  0.00337624  0.45427329  0.49794272  1  -0.219651  0  -0.031123  -0.065116  0  4.099562  0
C  C56  1  0.13221984  0.33942534  0.49497185  1  1.55294  0  0.231726  0.608934  0  4.094176  0
S  S57  1  0.11926566  0.58791099  0.49637425  1  0.249283  0  0.077567  0.116717  0  2.767125  0
S  S58  1  0.88059905  0.40498498  0.49707820  1  0.236177  0  0.065978  0.098871  0  2.801617  0
N  N59  1  0.50829255  0.71403084  0.51154416  1  -1.226916  0  -0.315594  -0.293721  0  3.465235  0
N  N60  1  0.48994319  0.28525879  0.48863237  1  -1.238914  0  -0.316481  -0.296512  0  3.46693  0
O  O61  1  0.49151254  0.43637574  0.38560847  1  -1.160872  0  -0.315659  -0.55221  0  2.383113  0
O  O62  1  0.50770382  0.57452292  0.38405396  1  -1.162667  0  -0.323995  -0.553675  0  2.29754  0
O  O63  1  0.34138169  0.56737183  0.48950807  1  -1.160815  0  -0.322181  -0.552711  0  2.308642  0
O  O64  1  0.33931976  0.43190105  0.50943079  1  -1.153799  0  -0.310404  -0.526553  0  2.327556  0
O  O65  1  0.49125774  0.56736093  0.61298634  1  -1.156352  0  -0.319833  -0.554533  0  2.369564  0
O  O66  1  0.51210332  0.43078933  0.61416852  1  -1.164288  0  -0.320449  -0.554645  0  2.307707  0
O  O67  1  0.65811074  0.42683650  0.49413735  1  -1.15902  0  -0.32335  -0.549027  0  2.318983  0
O  O68  1  0.66299990  0.56687258  0.50217969  1  -1.157531  0  -0.319455  -0.544121  0  2.315261  0
O  O69  1  0.08622843  0.30081242  0.55273207  1  -1.109966  0  -0.350801  -0.490878  0  2.172685  0
O  O70  1  0.18151349  0.30033306  0.44689692  1  -1.092824  0  -0.278101  -0.445021  0  2.083221  0
F  F71  1  0.63574124  0.72135083  0.60221637  1  -0.609325  0  -0.067235  -0.126173  0  1.347381  0
F  F72  1  0.38720230  0.27695839  0.38320060  1  -0.608798  0  -0.052751  -0.105005  0  1.395607  0
F  F73  1  0.49697070  0.34338988  0.25396919  1  -0.625142  0  -0.10522  -0.144593  0  1.36399  0
F  F74  1  0.51252634  0.66031364  0.74491087  1  -0.628875  0  -0.109011  -0.148285  0  1.352133  0
