# generated using pymatgen
data_K2FeH20(C6S)4
_symmetry_space_group_name_H-M   'P 1'
_cell_length_a   12.04181378
_cell_length_b   12.00620000
_cell_length_c   12.05305098
_cell_angle_alpha   63.30050441
_cell_angle_beta   84.25275411
_cell_angle_gamma   116.72626694
_symmetry_Int_Tables_number   1
_chemical_formula_structural   K2FeH20(C6S)4
_chemical_formula_sum   'K4 Fe2 H40 C48 S8'
_cell_volume   1286.88065876
_cell_formula_units_Z   2
loop_
 _symmetry_equiv_pos_site_id
 _symmetry_equiv_pos_as_xyz
  1  'x, y, z'
loop_
 _atom_site_type_symbol
 _atom_site_label
 _atom_site_symmetry_multiplicity
 _atom_site_fract_x
 _atom_site_fract_y
 _atom_site_fract_z
 _atom_site_occupancy
 _atom_site_hle17_ddec_charge
 _atom_site_hle17_ddec_spin_density
 _atom_site_hle17_ddec_sum_bond_order
 _atom_site_hle17_magmom
 _atom_site_hse06_10hf_ddec_charge
 _atom_site_hse06_10hf_ddec_spin_density
 _atom_site_hse06_10hf_ddec_sum_bond_order
 _atom_site_hse06_10hf_magmom
 _atom_site_hse06_ddec_charge
 _atom_site_hse06_ddec_spin_density
 _atom_site_hse06_ddec_sum_bond_order
 _atom_site_hse06_magmom
 _atom_site_pbe_bader_charge
 _atom_site_pbe_bader_spin_density
 _atom_site_pbe_cm5_charge
 _atom_site_pbe_ddec_charge
 _atom_site_pbe_ddec_spin_density
 _atom_site_pbe_ddec_sum_bond_order
 _atom_site_pbe_magmom
K  K0  1  0.20441740  0.32935919  0.62501818  1  0.871538  -0.001008  0.408559  0.0  0.807035  -3.1e-05  0.588723  0.0  0.81431  -0.000946  0.581253  0.0  0.85804  0.003228  0.484838  0.801111  0.001298  0.594527  0.001
K  K1  1  0.04546069  0.67028463  0.12506037  1  0.871328  -0.001025  0.409169  0.0  0.807054  -6e-05  0.589277  0.0  0.814323  -0.000953  0.581783  0.0  0.857131  0.003234  0.484719  0.801133  0.001291  0.595079  0.001
K  K2  1  0.62500313  0.82934817  0.04550469  1  0.871569  -0.001015  0.408578  0.0  0.807127  -4.4e-05  0.588709  0.0  0.814406  -0.00096  0.581232  0.0  0.858072  0.003226  0.484932  0.801206  0.001293  0.594515  0.001
K  K3  1  0.12508923  0.17039541  0.20441528  1  0.871428  -0.001025  0.409031  0.0  0.806997  -6.2e-05  0.589326  0.0  0.814255  -0.00097  0.581849  0.0  0.857127  0.003227  0.484816  0.801067  0.001286  0.595139  0.001
Fe  Fe4  1  0.24996951  0.50010744  0.24993152  1  0.460014  3.830266  3.012941  3.304  0.405132  3.745788  3.558941  3.278  0.492665  3.846681  3.48842  3.45  0.845181  3.21477  0.338054  0.337754  3.648405  3.612324  3.118
Fe  Fe5  1  0.00005124  0.00005323  0.00008649  1  0.459566  3.830154  3.014053  3.304  0.404835  3.745746  3.56008  3.278  0.492384  3.84668  3.489556  3.45  0.84468  3.214831  0.337911  0.337446  3.648351  3.613458  3.118
H  H6  1  0.89192144  0.21780408  0.26769539  1  0.08092  -0.00071  0.9702  -0.001  0.093196  5e-05  1.034069  0.0  0.096914  -1.1e-05  1.03168  0.0  0.042697  0.000674  0.09473  0.090179  0.000112  1.036617  0.0
H  H7  1  0.51406385  0.78199237  0.32641443  1  0.081669  -0.000714  0.969936  -0.001  0.093918  5.2e-05  1.033687  0.0  0.097649  -1.1e-05  1.03126  0.0  0.054487  0.000675  0.09466  0.090876  0.000114  1.036279  0.0
H  H8  1  0.26812184  0.16004086  0.51379704  1  0.08067  -0.000717  0.970696  -0.001  0.093043  4.8e-05  1.034425  0.0  0.096764  -1.4e-05  1.032024  0.0  0.037378  0.000687  0.094715  0.090027  0.000107  1.036968  0.0
H  H9  1  0.32633909  0.84087257  0.89154613  1  0.081039  -0.000705  0.970491  -0.001  0.093236  5.5e-05  1.03441  0.0  0.096962  -7e-06  1.031982  0.0  0.03278  0.000701  0.094822  0.09022  0.000116  1.036968  0.0
H  H10  1  0.35875690  0.34137606  0.92322056  1  0.081371  -0.000706  0.97049  -0.001  0.093654  5.7e-05  1.034221  0.0  0.097373  -6e-06  1.031818  0.0  0.030987  0.000703  0.094799  0.090617  0.000118  1.036799  0.0
H  H11  1  0.73589218  0.65949816  0.98221458  1  0.080758  -0.000713  0.971153  -0.001  0.093198  4.9e-05  1.034789  0.0  0.096934  -1.2e-05  1.032358  0.0  0.038556  0.000687  0.094723  0.090152  0.000109  1.037383  0.0
H  H12  1  0.98259569  0.71789229  0.35832880  1  0.080891  -0.000702  0.970721  -0.001  0.093201  5.9e-05  1.034568  0.0  0.096935  -5e-06  1.032145  0.0  0.04264  0.000687  0.094565  0.09018  0.00012  1.037094  0.0
H  H13  1  0.92338387  0.28182465  0.73599928  1  0.081653  -0.000713  0.96975  -0.001  0.094016  5.6e-05  1.033363  0.0  0.097733  -9e-06  1.030969  0.0  0.051732  0.000682  0.094762  0.090987  0.000118  1.035916  0.0
H  H14  1  0.70502046  0.24777877  0.23525685  1  0.08611  -2.3e-05  0.964645  0.001  0.098102  -0.000125  1.025036  0.0  0.100047  -0.000127  1.025005  0.0  0.048044  4.6e-05  0.096998  0.096557  -0.000121  1.0256  0.0
H  H15  1  0.51687576  0.75217859  0.54289732  1  0.086479  -2.2e-05  0.964392  0.001  0.098493  -0.000126  1.024711  0.0  0.100436  -0.000128  1.024688  0.0  0.079604  5.5e-05  0.097101  0.096945  -0.000121  1.025279  0.0
H  H16  1  0.23531925  0.93981796  0.51668063  1  0.085316  -2.4e-05  0.965147  0.001  0.097563  -0.000125  1.025307  0.0  0.099458  -0.000127  1.025389  0.0  0.067645  4.9e-05  0.097144  0.096052  -0.000122  1.025794  0.0
H  H17  1  0.54289320  0.06046044  0.70467994  1  0.08536  -2.6e-05  0.965716  0.0  0.097468  -0.000126  1.026059  0.0  0.099375  -0.000127  1.026121  0.0  0.081067  5.4e-05  0.096975  0.095946  -0.000122  1.026569  0.0
H  H18  1  0.54559259  0.56087928  0.70667049  1  0.085466  -2.5e-05  0.965661  0.001  0.097641  -0.000126  1.025965  0.0  0.09943  -0.000128  1.026173  0.0  0.082766  5.4e-05  0.097073  0.096113  -0.000122  1.026476  0.0
H  H19  1  0.73320383  0.43938882  0.01489036  1  0.085586  -2.3e-05  0.96522  0.001  0.097823  -0.000125  1.02543  0.0  0.099596  -0.000128  1.025626  0.0  0.068808  5e-05  0.097037  0.096295  -0.000122  1.025941  0.0
H  H20  1  0.01487026  0.74787818  0.54512739  1  0.085906  -2.4e-05  0.964174  0.001  0.097887  -0.000125  1.024617  0.0  0.099826  -0.000127  1.0246  0.0  0.076477  5.4e-05  0.096987  0.096326  -0.000121  1.025195  0.0
H  H21  1  0.70661980  0.25188790  0.73346410  1  0.086151  -2.2e-05  0.964068  0.001  0.098176  -0.000126  1.024388  0.0  0.100087  -0.000128  1.024416  0.0  0.085185  5.6e-05  0.09731  0.096625  -0.000121  1.02495  0.0
H  H22  1  0.63127793  0.35373458  0.33940789  1  0.097867  -0.000555  0.966962  -0.001  0.108218  0.000284  1.027529  0.0  0.110848  0.000169  1.027166  0.0  0.063933  0.000874  0.097238  0.106507  0.000313  1.027398  0.0
H  H23  1  0.30718315  0.64645751  0.72205819  1  0.097279  -0.000565  0.96688  -0.001  0.107491  0.000279  1.027578  0.0  0.110077  0.000165  1.027268  0.0  0.062067  0.000859  0.096961  0.105797  0.000308  1.027441  0.0
H  H24  1  0.33907656  0.96974769  0.30720317  1  0.097149  -0.00055  0.968365  -0.001  0.107285  0.000298  1.029195  0.0  0.109987  0.00018  1.028739  0.0  0.091583  0.000839  0.096575  0.105534  0.000325  1.029085  0.0
H  H25  1  0.72212196  0.02950112  0.63136827  1  0.096882  -0.000555  0.967856  -0.001  0.107407  0.000281  1.028201  0.0  0.110043  0.000167  1.027804  0.0  0.064585  0.000843  0.0968  0.105704  0.00031  1.02806  0.0
H  H26  1  0.61873536  0.52953818  0.52776700  1  0.097235  -0.000558  0.967843  -0.001  0.107526  0.000281  1.028399  0.0  0.110135  0.000168  1.02806  0.0  0.066321  0.000845  0.096923  0.105819  0.000311  1.028257  0.0
H  H27  1  0.94298485  0.46973550  0.91078139  1  0.096656  -0.000548  0.968749  -0.001  0.106864  0.000299  1.029552  0.0  0.109503  0.000181  1.029184  0.0  0.089574  0.000843  0.096416  0.105159  0.000327  1.029391  0.0
H  H28  1  0.91044849  0.85373287  0.61874724  1  0.097807  -0.000555  0.966578  -0.001  0.108081  0.000283  1.027275  0.0  0.1107  0.000169  1.026899  0.0  0.079497  0.000844  0.097418  0.106362  0.000314  1.027162  0.0
H  H29  1  0.52751259  0.14635035  0.94306558  1  0.097507  -0.000561  0.967591  -0.001  0.107847  0.000286  1.028185  0.0  0.110473  0.000171  1.02784  0.0  0.058619  0.000878  0.096995  0.106139  0.000315  1.028041  0.0
H  H30  1  0.74494975  0.42411435  0.48190287  1  0.090527  0.000193  0.962827  0.001  0.102848  0.000106  1.022838  0.0  0.105153  6.5e-05  1.022041  0.0  0.05235  0.00046  0.09962  0.101159  0.000141  1.023733  0.0
H  H31  1  0.09441844  0.57613436  0.67861798  1  0.090237  0.000194  0.963439  0.001  0.102866  0.000109  1.023166  0.0  0.105156  6.7e-05  1.0224  0.0  0.083942  0.000469  0.099853  0.101183  0.000145  1.024043  0.0
H  H32  1  0.48147927  0.22636522  0.09464333  1  0.090523  0.000193  0.96282  0.001  0.103343  0.000108  1.022278  0.0  0.105658  6.6e-05  1.021434  0.0  0.042021  0.000461  0.099782  0.101656  0.000142  1.023197  0.0
H  H33  1  0.67868154  0.77263307  0.74534252  1  0.090139  0.000192  0.963015  0.001  0.102751  0.000107  1.022775  0.0  0.105051  6.6e-05  1.021997  0.0  0.037199  0.000461  0.09967  0.101075  0.000141  1.023642  0.0
H  H34  1  0.50468379  0.27244328  0.57151884  1  0.090409  0.000192  0.96267  0.001  0.102923  0.000105  1.022508  0.0  0.105207  6.5e-05  1.021741  0.0  0.081052  0.000456  0.099745  0.101234  0.000139  1.023387  0.0
H  H35  1  0.15558121  0.72660711  0.76815313  1  0.090185  0.000191  0.963086  0.001  0.102816  0.000105  1.022831  0.0  0.105129  6.4e-05  1.022  0.0  0.038877  0.000452  0.099727  0.101119  0.000138  1.023747  0.0
H  H36  1  0.76776650  0.92393342  0.50511694  1  0.090185  0.000193  0.963389  0.001  0.102831  0.000106  1.023055  0.0  0.10514  6.6e-05  1.022256  0.0  0.05956  0.00046  0.099707  0.101122  0.000141  1.023968  0.0
H  H37  1  0.57134682  0.07636652  0.15544511  1  0.090601  0.000194  0.962508  0.001  0.103167  0.000109  1.022333  0.0  0.105477  6.7e-05  1.02152  0.0  0.083181  0.000468  0.099827  0.101462  0.000145  1.023253  0.0
H  H38  1  0.92657954  0.38554666  0.52088048  1  0.08857  -0.000735  0.975967  -0.001  0.101192  -3.7e-05  1.037972  0.0  0.104072  -8.6e-05  1.036663  0.0  0.042052  0.000409  0.096909  0.099126  2e-05  1.039168  0.0
H  H39  1  0.09366196  0.61448263  0.45884171  1  0.08825  -0.000742  0.976358  -0.001  0.10087  -4e-05  1.038472  0.0  0.103694  -8.9e-05  1.037272  0.0  0.058265  0.000387  0.096838  0.098824  1.6e-05  1.039627  0.0
H  H40  1  0.52082087  0.44786625  0.09381988  1  0.088296  -0.000743  0.975381  -0.001  0.100789  -4e-05  1.037717  0.0  0.103631  -8.9e-05  1.036483  0.0  0.055134  0.000388  0.096772  0.098734  1.5e-05  1.0389  0.0
H  H41  1  0.45882327  0.55175478  0.92697365  1  0.087578  -0.000735  0.976217  -0.001  0.100361  -3.8e-05  1.038154  0.0  0.103198  -8.6e-05  1.036931  0.0  0.053863  0.00039  0.096536  0.098313  1.7e-05  1.039315  0.0
H  H42  1  0.32298971  0.05177936  0.79130777  1  0.087915  -0.000739  0.976516  -0.001  0.100639  -4e-05  1.038422  0.0  0.103469  -8.8e-05  1.037226  0.0  0.055873  0.000385  0.096613  0.098577  1.5e-05  1.039578  0.0
H  H43  1  0.15613575  0.94785950  0.72916791  1  0.088315  -0.000741  0.975189  -0.001  0.100877  -4e-05  1.037455  0.0  0.103726  -8.9e-05  1.03622  0.0  0.055376  0.000386  0.09672  0.098806  1.5e-05  1.038637  0.0
H  H44  1  0.72916027  0.88552281  0.32346322  1  0.088411  -0.000737  0.975742  -0.001  0.100975  -4e-05  1.037897  0.0  0.103829  -8.8e-05  1.036641  0.0  0.042117  0.000401  0.096769  0.098925  1.5e-05  1.039045  0.0
H  H45  1  0.79136181  0.11468954  0.15591001  1  0.088486  -0.000747  0.975743  -0.001  0.101087  -4.5e-05  1.037886  0.0  0.103923  -9.4e-05  1.036679  0.0  0.059648  0.000377  0.096782  0.099026  1.1e-05  1.039063  0.0
C  C46  1  0.92293983  0.29863806  0.39747908  1  0.114652  -0.018829  3.811831  -0.016  0.138585  -0.00454  4.053204  -0.005  0.145338  -0.00584  4.075634  -0.005  -0.167675  0.00105  -0.018657  0.132968  -0.003002  4.038649  -0.004
C  C47  1  0.30369916  0.70133881  0.37593512  1  0.114446  -0.019015  3.812115  -0.016  0.138663  -0.004592  4.052932  -0.005  0.145453  -0.005924  4.075341  -0.005  -0.121821  0.000995  -0.018155  0.133018  -0.003035  4.038398  -0.004
C  C48  1  0.39770872  0.32087424  0.30365409  1  0.114124  -0.018955  3.812956  -0.016  0.13802  -0.004597  4.054223  -0.005  0.144772  -0.005932  4.076659  -0.005  -0.158488  0.00095  -0.01833  0.132418  -0.003059  4.039634  -0.004
C  C49  1  0.37593978  0.67948009  0.92296945  1  0.114678  -0.018761  3.81207  -0.016  0.138836  -0.004511  4.053031  -0.005  0.145603  -0.005802  4.07543  -0.005  -0.108037  0.000977  -0.018058  0.133203  -0.002981  4.038492  -0.004
C  C50  1  0.32722917  0.17979338  0.87390241  1  0.115367  -0.018833  3.811683  -0.016  0.139185  -0.004531  4.053071  -0.005  0.145957  -0.005842  4.075499  -0.005  -0.114303  0.000991  -0.018112  0.133551  -0.002993  4.038515  -0.004
C  C51  1  0.94611522  0.82054192  0.85247740  1  0.11467  -0.018899  3.812959  -0.016  0.138471  -0.004577  4.054454  -0.005  0.145213  -0.005894  4.076911  -0.005  -0.165152  0.000992  -0.01857  0.13288  -0.003042  4.039856  -0.004
C  C52  1  0.85273455  0.79869910  0.32719971  1  0.114629  -0.018819  3.812597  -0.016  0.13852  -0.004525  4.054025  -0.005  0.145283  -0.005817  4.076448  -0.005  -0.160826  0.00103  -0.018421  0.132905  -0.003003  4.039463  -0.004
C  C53  1  0.87413278  0.20143448  0.94606745  1  0.114458  -0.019071  3.812486  -0.017  0.138601  -0.004626  4.053447  -0.005  0.145403  -0.005977  4.075851  -0.006  -0.071709  0.000946  -0.018331  0.132955  -0.003058  4.038903  -0.004
C  C54  1  0.85801881  0.26006752  0.31717963  1  -0.143224  0.011798  3.761686  0.017  -0.156684  0.006327  3.998652  0.009  -0.161249  0.005237  4.019136  0.008  -0.058046  0.016735  -0.102444  -0.153744  0.007834  3.985489  0.01
C  C55  1  0.42250756  0.73982206  0.40237276  1  -0.14255  0.011892  3.76056  0.017  -0.156055  0.006373  3.997357  0.009  -0.160589  0.005277  4.017776  0.008  -0.118502  0.016903  -0.101953  -0.15313  0.007894  3.98423  0.01
C  C56  1  0.31741512  0.17540621  0.42233865  1  -0.142204  0.011882  3.761422  0.017  -0.15585  0.00637  3.998533  0.009  -0.160375  0.005282  4.018919  0.008  -0.054407  0.016844  -0.101904  -0.152923  0.007886  3.985408  0.01
C  C57  1  0.40234500  0.82509978  0.85782389  1  -0.14144  0.011765  3.76015  0.017  -0.154859  0.006296  3.996778  0.009  -0.159389  0.005205  4.017232  0.008  -0.094551  0.016669  -0.101527  -0.151933  0.007803  3.983629  0.01
C  C58  1  0.39244656  0.32554636  0.84730104  1  -0.142622  0.011802  3.761697  0.017  -0.156094  0.006312  3.99837  0.009  -0.160633  0.005224  4.018781  0.008  -0.085595  0.016713  -0.10188  -0.15317  0.007828  3.985249  0.01
C  C59  1  0.82742336  0.67494206  0.93283454  1  -0.143019  0.011851  3.762638  0.017  -0.156615  0.006349  3.999574  0.009  -0.161147  0.005261  4.019947  0.008  -0.049304  0.016786  -0.10228  -0.153689  0.00786  3.986426  0.01
C  C60  1  0.93305627  0.76016700  0.39215873  1  -0.142887  0.01178  3.762334  0.017  -0.15632  0.006311  3.999073  0.009  -0.160887  0.005217  4.019569  0.008  -0.058618  0.016705  -0.102198  -0.153378  0.007819  3.985904  0.01
C  C61  1  0.84744125  0.23969730  0.82751108  1  -0.143475  0.011916  3.7616  0.017  -0.157091  0.006389  3.998533  0.009  -0.161629  0.005304  4.018943  0.008  -0.107891  0.016937  -0.102487  -0.154161  0.007915  3.985399  0.011
C  C62  1  0.75313634  0.27803017  0.29814763  1  -0.072999  -0.016064  3.804402  -0.012  -0.081331  -0.004775  4.043264  -0.004  -0.08216  -0.005687  4.065465  -0.004  -0.069551  -0.003652  -0.09424  -0.080526  -0.00385  4.027943  -0.003
C  C63  1  0.42376634  0.72194660  0.52498651  1  -0.073977  -0.016191  3.80425  -0.012  -0.082378  -0.004801  4.043197  -0.004  -0.083223  -0.005729  4.065391  -0.004  -0.092682  -0.003678  -0.09475  -0.081562  -0.00386  4.027862  -0.003
C  C64  1  0.29816475  0.05098089  0.42363563  1  -0.072601  -0.016191  3.805035  -0.012  -0.081169  -0.004813  4.043838  -0.004  -0.082014  -0.005747  4.066092  -0.004  -0.109452  -0.003661  -0.094503  -0.080352  -0.003878  4.028471  -0.003
C  C65  1  0.52497695  0.94913180  0.75296988  1  -0.073684  -0.016034  3.804406  -0.012  -0.082279  -0.004754  4.043398  -0.004  -0.083137  -0.00566  4.065614  -0.004  -0.111553  -0.003623  -0.094348  -0.081457  -0.003831  4.02807  -0.003
C  C66  1  0.49725369  0.44946148  0.72467280  1  -0.073324  -0.016087  3.805333  -0.012  -0.081879  -0.004766  4.044105  -0.004  -0.082641  -0.005678  4.066358  -0.004  -0.118742  -0.003623  -0.094374  -0.081061  -0.003839  4.028767  -0.003
C  C67  1  0.82629618  0.55063915  0.95198697  1  -0.072651  -0.016151  3.80542  -0.012  -0.081216  -0.004801  4.044202  -0.004  -0.081955  -0.005727  4.066509  -0.004  -0.113698  -0.00365  -0.093972  -0.080399  -0.003867  4.028837  -0.003
C  C68  1  0.95194699  0.77811888  0.49699713  1  -0.073167  -0.016042  3.803686  -0.012  -0.081504  -0.004761  4.042518  -0.004  -0.082345  -0.005668  4.064737  -0.004  -0.112092  -0.003629  -0.094295  -0.080697  -0.003833  4.0272  -0.003
C  C69  1  0.72464756  0.22173248  0.82643902  1  -0.073263  -0.016218  3.804809  -0.012  -0.081662  -0.00481  4.043841  -0.004  -0.082485  -0.005748  4.066062  -0.004  -0.110139  -0.003674  -0.094791  -0.080849  -0.003866  4.028493  -0.003
C  C70  1  0.71112347  0.33687448  0.35702616  1  -0.104389  0.013637  3.790397  0.018  -0.117871  0.00823  4.03686  0.01  -0.11997  0.006744  4.057439  0.009  -0.029925  0.019549  -0.10695  -0.116298  0.009703  4.02227  0.011
C  C71  1  0.30628905  0.66322583  0.62553909  1  -0.103979  0.013749  3.790723  0.018  -0.117358  0.008295  4.037391  0.01  -0.119437  0.006806  4.057969  0.009  -0.014359  0.01966  -0.107001  -0.115803  0.009765  4.022817  0.011
C  C72  1  0.35680193  0.06759118  0.30628435  1  -0.103481  0.013747  3.791034  0.018  -0.116765  0.008306  4.037438  0.01  -0.118929  0.006823  4.058056  0.009  -0.059811  0.019723  -0.106075  -0.115115  0.009764  4.022796  0.011
C  C73  1  0.62556069  0.93195851  0.71120179  1  -0.102803  0.013613  3.790173  0.018  -0.116367  0.008205  4.03666  0.01  -0.118456  0.006721  4.057262  0.008  0.017286  0.019457  -0.106344  -0.114777  0.009669  4.022033  0.011
C  C74  1  0.53893302  0.43206004  0.62430322  1  -0.103268  0.013666  3.790161  0.018  -0.116693  0.008232  4.036701  0.01  -0.118756  0.006746  4.057226  0.009  0.014619  0.019523  -0.106548  -0.11512  0.009701  4.022094  0.011
C  C75  1  0.94380261  0.56749813  0.89311768  1  -0.102981  0.013719  3.78999  0.018  -0.116425  0.008284  4.036579  0.01  -0.118525  0.006802  4.057146  0.009  -0.062883  0.019679  -0.106215  -0.114843  0.00974  4.021943  0.011
C  C76  1  0.89287984  0.83686588  0.53895779  1  -0.103902  0.013618  3.789694  0.018  -0.117382  0.008211  4.036305  0.01  -0.119451  0.00673  4.056858  0.008  -0.039793  0.019521  -0.107202  -0.115829  0.009681  4.02174  0.011
C  C77  1  0.62416026  0.16318131  0.94384742  1  -0.103992  0.013788  3.790896  0.018  -0.117534  0.008322  4.037499  0.01  -0.119652  0.006826  4.058113  0.009  -0.008881  0.019703  -0.106976  -0.115955  0.009791  4.022887  0.011
C  C78  1  0.77462498  0.37571089  0.43698593  1  -0.091095  -0.015148  3.828045  -0.011  -0.101967  -0.003897  4.075461  -0.003  -0.102269  -0.005016  4.09583  -0.004  -0.077924  -0.002668  -0.102709  -0.101643  -0.003001  4.06204  -0.003
C  C79  1  0.18753389  0.62440426  0.60080216  1  -0.092032  -0.01526  3.829152  -0.011  -0.10318  -0.003916  4.076739  -0.003  -0.103481  -0.005051  4.097071  -0.004  -0.14837  -0.002638  -0.103053  -0.102869  -0.003008  4.063366  -0.003
C  C80  1  0.43673788  0.21130618  0.18766450  1  -0.09253  -0.015278  3.828828  -0.011  -0.103828  -0.003945  4.076386  -0.003  -0.10412  -0.005082  4.096741  -0.004  -0.064001  -0.002711  -0.10327  -0.103518  -0.003035  4.062951  -0.003
C  C81  1  0.60081107  0.78808119  0.77488615  1  -0.09238  -0.015111  3.82922  -0.011  -0.103662  -0.003874  4.076977  -0.003  -0.103982  -0.004981  4.097348  -0.004  -0.120274  -0.002607  -0.103366  -0.103329  -0.002985  4.063529  -0.003
C  C82  1  0.47520246  0.28804137  0.64925557  1  -0.092768  -0.015176  3.828894  -0.011  -0.103903  -0.00389  4.076549  -0.003  -0.104202  -0.005007  4.096901  -0.004  -0.165759  -0.002621  -0.103349  -0.103583  -0.002998  4.063125  -0.003
C  C83  1  0.06241753  0.71136780  0.81304111  1  -0.091416  -0.015252  3.828206  -0.011  -0.102568  -0.003938  4.075741  -0.003  -0.10286  -0.005068  4.096101  -0.004  -0.060967  -0.002708  -0.102915  -0.102257  -0.003031  4.062312  -0.003
C  C84  1  0.81282434  0.87557721  0.47548333  1  -0.091031  -0.01513  3.828305  -0.011  -0.102192  -0.00388  4.075642  -0.003  -0.102503  -0.004993  4.096025  -0.004  -0.080218  -0.002656  -0.102477  -0.101871  -0.002988  4.062242  -0.003
C  C85  1  0.64914596  0.12458615  0.06235617  1  -0.092309  -0.015298  3.828225  -0.011  -0.103467  -0.003931  4.075859  -0.003  -0.10377  -0.005077  4.096224  -0.004  -0.146344  -0.00265  -0.102847  -0.103155  -0.00302  4.062466  -0.003
C  C86  1  0.87795633  0.35539745  0.45822155  1  -0.160945  0.012257  3.772391  0.017  -0.175226  0.006733  4.013791  0.009  -0.179932  0.005661  4.034888  0.008  -0.025775  0.016293  -0.108762  -0.171847  0.007768  3.999951  0.01
C  C87  1  0.18640873  0.64459398  0.47740699  1  -0.160622  0.012349  3.772158  0.017  -0.174952  0.006771  4.013531  0.009  -0.179697  0.005694  4.034668  0.008  -0.023949  0.016376  -0.109236  -0.171558  0.007806  3.999706  0.01
C  C88  1  0.45821246  0.33640080  0.18651330  1  -0.160156  0.012357  3.770535  0.017  -0.174283  0.006786  4.011967  0.009  -0.179021  0.005713  4.033116  0.008  -0.027697  0.01639  -0.109376  -0.170871  0.00781  3.998073  0.01
C  C89  1  0.47738046  0.66338004  0.87821464  1  -0.159014  0.012236  3.771331  0.017  -0.173332  0.006708  4.012423  0.009  -0.178043  0.005631  4.033535  0.008  -0.025416  0.016238  -0.108326  -0.169926  0.007738  3.998553  0.01
C  C90  1  0.37185403  0.16347751  0.77265723  1  -0.159466  0.012277  3.771714  0.017  -0.1736  0.006728  4.012839  0.009  -0.178328  0.005655  4.033968  0.008  -0.022158  0.016266  -0.108398  -0.170187  0.007753  3.998983  0.01
C  C91  1  0.06340406  0.83630697  0.79176318  1  -0.16044  0.012327  3.771056  0.017  -0.174599  0.006769  4.012411  0.009  -0.179325  0.005696  4.033541  0.008  -0.022651  0.016334  -0.108937  -0.171186  0.007785  3.998523  0.01
C  C92  1  0.79180887  0.85536265  0.37213131  1  -0.160709  0.012244  3.772356  0.017  -0.174845  0.006714  4.013759  0.009  -0.179567  0.005636  4.034879  0.008  -0.02793  0.016258  -0.108845  -0.171448  0.00775  3.999886  0.01
C  C93  1  0.77269613  0.14477744  0.06330365  1  -0.160829  0.012372  3.771944  0.017  -0.175033  0.006783  4.013237  0.009  -0.179783  0.005716  4.034356  0.008  -0.075111  0.016429  -0.109209  -0.171638  0.007816  3.999417  0.01
S  S94  1  0.05732817  0.27891025  0.42024222  1  -0.536623  0.05713  2.288496  0.07  -0.513699  0.05517  2.675445  0.058  -0.54686  0.037694  2.665016  0.04  -0.460721  0.144731  -0.278398  -0.487255  0.071275  2.682584  0.073
S  S95  1  0.30053463  0.72146312  0.22194320  1  -0.534714  0.05748  2.290133  0.071  -0.512055  0.055409  2.677233  0.058  -0.545403  0.037833  2.666894  0.041  -0.457655  0.145537  -0.277824  -0.485511  0.07155  2.684309  0.074
S  S96  1  0.42058373  0.47848191  0.30054850  1  -0.536305  0.057313  2.292535  0.07  -0.513306  0.055307  2.679796  0.058  -0.54656  0.037802  2.6695  0.041  -0.459792  0.14507  -0.279024  -0.486865  0.071483  2.686903  0.073
S  S97  1  0.22202422  0.52227394  0.05728615  1  -0.538249  0.056843  2.290294  0.07  -0.515439  0.054974  2.677679  0.058  -0.548486  0.037565  2.667152  0.04  -0.467596  0.144138  -0.280314  -0.489126  0.071033  2.684958  0.073
S  S98  1  0.19299596  0.02266245  0.02783618  1  -0.537605  0.05695  2.290368  0.07  -0.514826  0.055093  2.678229  0.058  -0.547878  0.037612  2.667623  0.04  -0.465606  0.144395  -0.279732  -0.488501  0.071133  2.685477  0.073
S  S99  1  0.94906778  0.97801006  0.82984372  1  -0.536834  0.057227  2.29171  0.07  -0.513743  0.055237  2.678917  0.058  -0.546955  0.03774  2.668594  0.041  -0.456645  0.144753  -0.279047  -0.487411  0.071333  2.68611  0.073
S  S100  1  0.83003133  0.77892188  0.19290339  1  -0.536633  0.057017  2.287846  0.07  -0.513936  0.055081  2.675334  0.058  -0.547079  0.037642  2.664864  0.04  -0.461389  0.144543  -0.278356  -0.487594  0.071162  2.682563  0.073
S  S101  1  0.02834613  0.22164623  0.94904153  1  -0.534232  0.057563  2.29047  0.071  -0.511707  0.055399  2.67792  0.058  -0.545021  0.037832  2.667472  0.041  -0.457249  0.145659  -0.277203  -0.485148  0.07164  2.684944  0.074
