# generated using pymatgen
data_CuH8C9(NO)2
_symmetry_space_group_name_H-M   'P 1'
_cell_length_a   5.28207470
_cell_length_b   12.72747751
_cell_length_c   14.67396151
_cell_angle_alpha   88.11063160
_cell_angle_beta   80.86541044
_cell_angle_gamma   78.04529782
_symmetry_Int_Tables_number   1
_chemical_formula_structural   CuH8C9(NO)2
_chemical_formula_sum   'Cu4 H32 C36 N8 O8'
_cell_volume   952.85891979
_cell_formula_units_Z   4
loop_
 _symmetry_equiv_pos_site_id
 _symmetry_equiv_pos_as_xyz
  1  'x, y, z'
loop_
 _atom_site_type_symbol
 _atom_site_label
 _atom_site_symmetry_multiplicity
 _atom_site_fract_x
 _atom_site_fract_y
 _atom_site_fract_z
 _atom_site_occupancy
 _atom_site_hle17_bader_spin_density
 _atom_site_hle17_ddec_charge
 _atom_site_hle17_ddec_spin_density
 _atom_site_hle17_ddec_sum_bond_order
 _atom_site_hle17_magmom
 _atom_site_hse06_10hf_bader_spin_density
 _atom_site_hse06_10hf_ddec_charge
 _atom_site_hse06_10hf_ddec_spin_density
 _atom_site_hse06_10hf_ddec_sum_bond_order
 _atom_site_hse06_10hf_magmom
 _atom_site_hse06_bader_spin_density
 _atom_site_hse06_ddec_charge
 _atom_site_hse06_ddec_spin_density
 _atom_site_hse06_ddec_sum_bond_order
 _atom_site_hse06_magmom
 _atom_site_pbe_bader_spin_density
 _atom_site_pbe_cm5_charge
 _atom_site_pbe_ddec_charge
 _atom_site_pbe_ddec_spin_density
 _atom_site_pbe_ddec_sum_bond_order
 _atom_site_pbe_magmom
Cu  Cu0  1  0.39691912  0.20823913  0.75018717  1  0  0.531799  0  2.213127  0  0  0.424616  0  2.723474  0  0  0.403107  0  2.693185  0  0  0.654821  0.442281  0  2.740229  0
Cu  Cu1  1  0.60305206  0.79176308  0.24983354  1  0  0.531697  0  2.212808  0  0  0.424436  0  2.723173  0  0  0.402954  0  2.692956  0  0  0.654695  0.442101  0  2.739913  0
Cu  Cu2  1  0.99997514  0.00000206  0.00000522  1  0  0.304168  0  2.022018  0  0  0.22756  0  2.428329  0  0  0.233701  0  2.385843  0  0  0.368598  0.224355  0  2.457368  0
Cu  Cu3  1  0.99993301  0.99999319  0.50000958  1  0  0.304787  0  2.021167  0  0  0.227643  0  2.427875  0  0  0.233916  0  2.385286  0  0  0.368594  0.224431  0  2.456789  0
H  H4  1  0.08807342  0.60374717  0.70008972  1  0  0.114602  0  0.955944  0  0  0.123378  0  1.019556  0  0  0.126936  0  1.017315  0  0  0.113442  0.120857  0  1.021259  0
H  H5  1  0.30939419  0.60398810  0.79955811  1  0  0.112333  0  0.957358  0  0  0.121964  0  1.019991  0  0  0.125447  0  1.017889  0  0  0.113422  0.119495  0  1.0216  0
H  H6  1  0.91194120  0.39624219  0.29991132  1  0  0.114572  0  0.955889  0  0  0.123319  0  1.019542  0  0  0.126875  0  1.017307  0  0  0.11343  0.120795  0  1.021243  0
H  H7  1  0.69059531  0.39601010  0.20043312  1  0  0.112208  0  0.957513  0  0  0.12183  0  1.020136  0  0  0.125306  0  1.01805  0  0  0.113406  0.119358  0  1.021742  0
H  H8  1  0.97462711  0.24801358  0.61662131  1  0  0.079851  0  0.950701  0  0  0.088648  0  1.015136  0  0  0.091562  0  1.01247  0  0  0.115499  0.08658  0  1.017106  0
H  H9  1  0.77880567  0.24873372  0.88383302  1  0  0.081043  0  0.948613  0  0  0.089864  0  1.012994  0  0  0.092717  0  1.010389  0  0  0.11622  0.087801  0  1.014965  0
H  H10  1  0.02536930  0.75198140  0.38338259  1  0  0.079871  0  0.950791  0  0  0.088672  0  1.015224  0  0  0.091585  0  1.012557  0  0  0.115518  0.086604  0  1.017194  0
H  H11  1  0.22121066  0.75127090  0.11617503  1  0  0.081005  0  0.948584  0  0  0.089871  0  1.012919  0  0  0.092718  0  1.010324  0  0  0.116232  0.087821  0  1.014877  0
H  H12  1  0.70865695  0.41145106  0.55179329  1  0  0.135721  0  0.965477  0  0  0.141641  0  1.031119  0  0  0.145959  0  1.027886  0  0  0.114505  0.138567  0  1.033506  0
H  H13  1  0.88097197  0.41248490  0.94826191  1  0  0.135387  0  0.966742  0  0  0.141608  0  1.03183  0  0  0.145982  0  1.028473  0  0  0.114013  0.138505  0  1.03427  0
H  H14  1  0.29134869  0.58854473  0.44820873  1  0  0.135705  0  0.965473  0  0  0.141689  0  1.031036  0  0  0.146007  0  1.027803  0  0  0.114523  0.138616  0  1.033425  0
H  H15  1  0.11903076  0.58753257  0.05173220  1  0  0.135437  0  0.966628  0  0  0.141613  0  1.031773  0  0  0.145989  0  1.028412  0  0  0.114058  0.138516  0  1.034215  0
H  H16  1  0.60032267  0.80525738  0.51700550  1  0  0.058327  0  0.943179  0  0  0.069427  0  1.010935  0  0  0.069577  0  1.011145  0  0  0.102409  0.069224  0  1.010905  0
H  H17  1  0.59412487  0.80578659  0.98285727  1  0  0.058607  0  0.944172  0  0  0.069814  0  1.011797  0  0  0.070006  0  1.011975  0  0  0.101947  0.069563  0  1.011814  0
H  H18  1  0.39967794  0.19472957  0.48299294  1  0  0.058312  0  0.943161  0  0  0.069477  0  1.010879  0  0  0.069624  0  1.011089  0  0  0.102446  0.069274  0  1.01085  0
H  H19  1  0.40590026  0.19421642  0.01714081  1  0  0.058612  0  0.944114  0  0  0.069865  0  1.01173  0  0  0.07005  0  1.011922  0  0  0.101957  0.069613  0  1.011749  0
H  H20  1  0.74524389  0.86884162  0.59662964  1  0  0.04078  0  0.966418  0  0  0.052984  0  1.040469  0  0  0.05421  0  1.037636  0  0  0.090502  0.051949  0  1.042632  0
H  H21  1  0.38514714  0.86926391  0.90338513  1  0  0.041084  0  0.968192  0  0  0.05305  0  1.042262  0  0  0.054362  0  1.039358  0  0  0.091067  0.05197  0  1.044461  0
H  H22  1  0.25475785  0.13115898  0.40336020  1  0  0.04076  0  0.96641  0  0  0.052933  0  1.040541  0  0  0.054167  0  1.037674  0  0  0.090471  0.051896  0  1.042717  0
H  H23  1  0.61486601  0.13073991  0.09661560  1  0  0.041073  0  0.968276  0  0  0.053066  0  1.042333  0  0  0.054374  0  1.039437  0  0  0.091054  0.051984  0  1.044531  0
H  H24  1  0.22762453  0.78752428  0.63850642  1  0  0.110856  0  0.960752  0  0  0.127439  0  1.028065  0  0  0.129382  0  1.027377  0  0  0.088398  0.125992  0  1.028617  0
H  H25  1  0.98430103  0.78946423  0.86136471  1  0  0.110579  0  0.959165  0  0  0.126593  0  1.02716  0  0  0.128461  0  1.02656  0  0  0.087686  0.125192  0  1.027643  0
H  H26  1  0.77237019  0.21248596  0.36149171  1  0  0.1108  0  0.960847  0  0  0.127407  0  1.028126  0  0  0.129346  0  1.027448  0  0  0.08839  0.12596  0  1.028675  0
H  H27  1  0.01570714  0.21053075  0.13863107  1  0  0.110543  0  0.95921  0  0  0.126608  0  1.027141  0  0  0.128475  0  1.026539  0  0  0.087703  0.125204  0  1.027624  0
H  H28  1  0.26647541  0.92347968  0.63692318  1  0  0.104122  0  0.96866  0  0  0.124118  0  1.035399  0  0  0.126229  0  1.034143  0  0  0.086745  0.122546  0  1.036344  0
H  H29  1  0.80779914  0.92514552  0.86350990  1  0  0.103744  0  0.968407  0  0  0.123081  0  1.036051  0  0  0.125187  0  1.034799  0  0  0.086423  0.121511  0  1.036994  0
H  H30  1  0.73355817  0.07652655  0.36306074  1  0  0.104108  0  0.968641  0  0  0.12406  0  1.035427  0  0  0.126146  0  1.034195  0  0  0.086736  0.122482  0  1.036389  0
H  H31  1  0.19222546  0.07485508  0.13648281  1  0  0.103763  0  0.968408  0  0  0.123095  0  1.036055  0  0  0.125199  0  1.034802  0  0  0.086415  0.121524  0  1.036995  0
H  H32  1  0.38069679  0.83569489  0.72449512  1  0  0.112944  0  0.953299  0  0  0.136579  0  1.008084  0  0  0.137593  0  1.009421  0  0  0.091761  0.135816  0  1.007162  0
H  H33  1  0.78260311  0.83772580  0.77550496  1  0  0.11237  0  0.953087  0  0  0.136436  0  1.0071  0  0  0.137326  0  1.008603  0  0  0.091546  0.135725  0  1.006111  0
H  H34  1  0.61929432  0.16432258  0.27550301  1  0  0.112927  0  0.953304  0  0  0.136612  0  1.008039  0  0  0.137634  0  1.00937  0  0  0.091769  0.135849  0  1.007116  0
H  H35  1  0.21741105  0.16227239  0.22449246  1  0  0.112415  0  0.9531  0  0  0.136467  0  1.007113  0  0  0.137377  0  1.008597  0  0  0.091582  0.135757  0  1.006117  0
C  C36  1  0.19509765  0.43123968  0.71649241  1  0  0.167872  0  3.758852  0  0  0.168472  0  3.998147  0  0  0.172554  0  4.017368  0  0  0.115677  0.165791  0  3.985201  0
C  C37  1  0.37544441  0.43142711  0.78342605  1  0  0.16773  0  3.758229  0  0  0.166657  0  3.998918  0  0  0.170881  0  4.018011  0  0  0.114623  0.163896  0  3.98603  0
C  C38  1  0.80490891  0.56875450  0.28350620  1  0  0.167926  0  3.758815  0  0  0.168524  0  3.998121  0  0  0.172609  0  4.017343  0  0  0.115724  0.165841  0  3.985173  0
C  C39  1  0.62457015  0.56857029  0.21657137  1  0  0.167785  0  3.758189  0  0  0.166614  0  3.998975  0  0  0.17084  0  4.018067  0  0  0.11456  0.163853  0  3.986084  0
C  C40  1  0.05966674  0.52573885  0.68114073  1  0  -0.127514  0  3.675562  0  0  -0.162023  0  3.926752  0  0  -0.165853  0  3.946615  0  0  -0.07149  -0.159667  0  3.913462  0
C  C41  1  0.41595399  0.52609318  0.81864427  1  0  -0.121814  0  3.67325  0  0  -0.156711  0  3.924321  0  0  -0.160578  0  3.94405  0  0  -0.069581  -0.154332  0  3.91111  0
C  C42  1  0.94034485  0.47425292  0.31885768  1  0  -0.127498  0  3.67531  0  0  -0.162027  0  3.926476  0  0  -0.165846  0  3.946314  0  0  -0.071404  -0.15967  0  3.913183  0
C  C43  1  0.58405686  0.47390823  0.18134711  1  0  -0.121643  0  3.673292  0  0  -0.156564  0  3.924363  0  0  -0.160432  0  3.944095  0  0  -0.069554  -0.15418  0  3.911145  0
C  C44  1  0.88018366  0.52003326  0.62229262  1  0  -0.023382  0  3.769992  0  0  -0.007013  0  4.010574  0  0  -0.010473  0  4.031719  0  0  -0.003988  -0.004502  0  3.996197  0
C  C45  1  0.60093593  0.52067922  0.87753027  1  0  -0.024515  0  3.77123  0  0  -0.007517  0  4.011538  0  0  -0.010834  0  4.032499  0  0  -0.004633  -0.005108  0  3.997271  0
C  C46  1  0.11982937  0.47996333  0.37770558  1  0  -0.023438  0  3.769998  0  0  -0.00689  0  4.010407  0  0  -0.010348  0  4.031554  0  0  -0.004058  -0.004386  0  3.996021  0
C  C47  1  0.39906906  0.47932620  0.12246200  1  0  -0.024716  0  3.771425  0  0  -0.007526  0  4.011449  0  0  -0.010845  0  4.032418  0  0  -0.004648  -0.005118  0  3.997182  0
C  C48  1  0.99563867  0.32822285  0.63334106  1  0  0.139267  0  3.669023  0  0  0.10874  0  3.930661  0  0  0.114229  0  3.943345  0  0  0.047538  0.105116  0  3.922147  0
C  C49  1  0.67770880  0.32884488  0.86684629  1  0  0.143237  0  3.670001  0  0  0.112191  0  3.931151  0  0  0.117705  0  3.943936  0  0  0.049572  0.10858  0  3.922565  0
C  C50  1  0.00436503  0.67177293  0.36666175  1  0  0.139329  0  3.669015  0  0  0.108765  0  3.930661  0  0  0.114255  0  3.943345  0  0  0.047573  0.105139  0  3.92215  0
C  C51  1  0.32229617  0.67115974  0.13315826  1  0  0.143342  0  3.669531  0  0  0.112232  0  3.930683  0  0  0.117748  0  3.943461  0  0  0.049585  0.108605  0  3.9221  0
C  C52  1  0.84808293  0.41885717  0.59735487  1  0  -0.111028  0  3.661331  0  0  -0.137322  0  3.91369  0  0  -0.140792  0  3.93273  0  0  -0.074039  -0.135107  0  3.90088  0
C  C53  1  0.73434475  0.41964417  0.90265030  1  0  -0.114299  0  3.663738  0  0  -0.140679  0  3.915375  0  0  -0.144226  0  3.93441  0  0  -0.074886  -0.138411  0  3.902554  0
C  C54  1  0.15192166  0.58113701  0.40264521  1  0  -0.111066  0  3.661291  0  0  -0.137433  0  3.913589  0  0  -0.140906  0  3.932629  0  0  -0.074038  -0.135223  0  3.900785  0
C  C55  1  0.26565506  0.58036366  0.09734626  1  0  -0.114308  0  3.663411  0  0  -0.140716  0  3.915055  0  0  -0.144261  0  3.934084  0  0  -0.074914  -0.138459  0  3.902249  0
C  C56  1  0.15017897  0.07648402  0.90550464  1  0  -0.088938  0  3.530372  0  0  -0.07492  0  3.871157  0  0  -0.071692  0  3.870713  0  0  -0.052673  -0.077753  0  3.872148  0
C  C57  1  0.77479541  0.07598776  0.59506854  1  0  -0.088934  0  3.533347  0  0  -0.074857  0  3.874266  0  0  -0.07165  0  3.873784  0  0  -0.052847  -0.077696  0  3.875354  0
C  C58  1  0.84980951  0.92351096  0.09450717  1  0  -0.089317  0  3.530429  0  0  -0.075348  0  3.871316  0  0  -0.072115  0  3.870873  0  0  -0.052839  -0.078183  0  3.872308  0
C  C59  1  0.22507953  0.92400400  0.40495276  1  0  -0.088547  0  3.532802  0  0  -0.074436  0  3.873604  0  0  -0.071221  0  3.873111  0  0  -0.052651  -0.077284  0  3.874698  0
C  C60  1  0.71492626  0.61881573  0.58896822  1  0  0.571931  0  3.821675  0  0  0.5237  0  4.115861  0  0  0.556053  0  4.107818  0  0  0.234487  0.501617  0  4.120913  0
C  C61  1  0.66712983  0.61957989  0.91078452  1  0  0.573297  0  3.824197  0  0  0.523517  0  4.120479  0  0  0.555888  0  4.112307  0  0  0.234537  0.501471  0  4.125575  0
C  C62  1  0.28508932  0.38118327  0.41103183  1  0  0.572096  0  3.821746  0  0  0.523678  0  4.11612  0  0  0.55603  0  4.108082  0  0  0.234492  0.50162  0  4.12114  0
C  C63  1  0.33288145  0.38042474  0.08920335  1  0  0.573654  0  3.823993  0  0  0.52391  0  4.120139  0  0  0.556268  0  4.111965  0  0  0.23476  0.501865  0  4.125239  0
C  C64  1  0.62199510  0.81074875  0.58978097  1  0  0.146095  0  3.605877  0  0  0.088253  0  3.880028  0  0  0.097714  0  3.884582  0  0  -0.068924  0.081882  0  3.876895  0
C  C65  1  0.56702046  0.81149554  0.91007900  1  0  0.143009  0  3.610068  0  0  0.085161  0  3.884276  0  0  0.094535  0  3.888849  0  0  -0.070934  0.078892  0  3.881067  0
C  C66  1  0.37801264  0.18924703  0.41021549  1  0  0.146173  0  3.605859  0  0  0.08825  0  3.880064  0  0  0.097728  0  3.884606  0  0  -0.068908  0.081877  0  3.876931  0
C  C67  1  0.43299464  0.18850827  0.08992095  1  0  0.142985  0  3.609831  0  0  0.085069  0  3.884202  0  0  0.094427  0  3.888783  0  0  -0.07098  0.078803  0  3.880991  0
C  C68  1  0.35869532  0.84012241  0.65127932  1  0  -0.333621  0  3.701768  0  0  -0.408572  0  3.940898  0  0  -0.413276  0  3.951053  0  0  -0.251436  -0.405021  0  3.933845  0
C  C69  1  0.80013015  0.84174709  0.84876393  1  0  -0.33065  0  3.699879  0  0  -0.4044  0  3.938579  0  0  -0.408956  0  3.948789  0  0  -0.249172  -0.400908  0  3.931453  0
C  C70  1  0.64131102  0.15988382  0.34871763  1  0  -0.333551  0  3.701825  0  0  -0.408508  0  3.940989  0  0  -0.413192  0  3.951162  0  0  -0.251459  -0.404963  0  3.933929  0
C  C71  1  0.19988087  0.15825352  0.15123427  1  0  -0.330741  0  3.699812  0  0  -0.404475  0  3.938531  0  0  -0.409045  0  3.948732  0  0  -0.249222  -0.40098  0  3.931395  0
N  N72  1  0.16315378  0.33327939  0.69255456  1  0  -0.30544  0  3.286493  0  0  -0.251022  0  3.582453  0  0  -0.253504  0  3.58648  0  0  -0.339786  -0.249539  0  3.57918  0
N  N73  1  0.50546567  0.33358998  0.80755082  1  0  -0.308814  0  3.289089  0  0  -0.253235  0  3.58445  0  0  -0.255699  0  3.588382  0  0  -0.340971  -0.251759  0  3.581216  0
N  N74  1  0.83684577  0.66671318  0.30744855  1  0  -0.305507  0  3.286537  0  0  -0.251036  0  3.58246  0  0  -0.253533  0  3.586503  0  0  -0.339918  -0.24955  0  3.579184  0
N  N75  1  0.49454064  0.66640822  0.19245247  1  0  -0.308926  0  3.288911  0  0  -0.253236  0  3.584225  0  0  -0.255711  0  3.588171  0  0  -0.340951  -0.251758  0  3.580993  0
N  N76  1  0.24562562  0.12490129  0.84474350  1  0  -0.37409  0  3.298834  0  0  -0.315726  0  3.624104  0  0  -0.321406  0  3.631062  0  0  -0.414986  -0.312703  0  3.619043  0
N  N77  1  0.63155993  0.12437700  0.65596244  1  0  -0.374936  0  3.300622  0  0  -0.316538  0  3.625847  0  0  -0.322169  0  3.632805  0  0  -0.415395  -0.313579  0  3.620846  0
N  N78  1  0.75434141  0.87510573  0.15527185  1  0  -0.373746  0  3.298513  0  0  -0.315329  0  3.623752  0  0  -0.321026  0  3.630726  0  0  -0.41486  -0.312304  0  3.618684  0
N  N79  1  0.36836975  0.87561236  0.34406012  1  0  -0.37532  0  3.299997  0  0  -0.31692  0  3.625233  0  0  -0.322558  0  3.632189  0  0  -0.415525  -0.313958  0  3.620235  0
O  O80  1  0.77685334  0.70910245  0.61701412  1  0  -0.333205  0  2.268231  0  0  -0.261109  0  2.506882  0  0  -0.282957  0  2.505185  0  0  -0.170101  -0.245974  0  2.507541  0
O  O81  1  0.51518452  0.70972774  0.88248272  1  0  -0.331809  0  2.268104  0  0  -0.25939  0  2.507173  0  0  -0.281266  0  2.505539  0  0  -0.168179  -0.244304  0  2.507806  0
O  O82  1  0.22316459  0.29089575  0.38298515  1  0  -0.333227  0  2.268026  0  0  -0.261098  0  2.506806  0  0  -0.282954  0  2.505108  0  0  -0.170091  -0.24597  0  2.507456  0
O  O83  1  0.48481900  0.29027608  0.11751988  1  0  -0.331846  0  2.267678  0  0  -0.259534  0  2.50688  0  0  -0.28138  0  2.505225  0  0  -0.168254  -0.244447  0  2.507513  0
O  O84  1  0.54083530  0.61826352  0.54302028  1  0  -0.503011  0  1.964754  0  0  -0.461548  0  2.181419  0  0  -0.480335  0  2.175707  0  0  -0.264895  -0.448713  0  2.185215  0
O  O85  1  0.84131375  0.61927996  0.95689182  1  0  -0.505024  0  1.967369  0  0  -0.462904  0  2.184736  0  0  -0.481701  0  2.178912  0  0  -0.266492  -0.450075  0  2.18858  0
O  O86  1  0.45915942  0.38174271  0.45698068  1  0  -0.503076  0  1.965072  0  0  -0.46153  0  2.18181  0  0  -0.48032  0  2.176102  0  0  -0.264869  -0.448708  0  2.185598  0
O  O87  1  0.15874685  0.38072225  0.04308805  1  0  -0.505143  0  1.967515  0  0  -0.463099  0  2.184957  0  0  -0.481891  0  2.179133  0  0  -0.266556  -0.450272  0  2.188802  0
