# generated using pymatgen
data_Co2H32C52(N2O3)3
_symmetry_space_group_name_H-M   'P 1'
_cell_length_a   15.00177105
_cell_length_b   15.00423697
_cell_length_c   15.17843416
_cell_angle_alpha   109.54701581
_cell_angle_beta   118.20434906
_cell_angle_gamma   89.87925107
_symmetry_Int_Tables_number   1
_chemical_formula_structural   Co2H32C52(N2O3)3
_chemical_formula_sum   'Co4 H64 C104 N12 O18'
_cell_volume   2786.81868601
_cell_formula_units_Z   2
loop_
 _symmetry_equiv_pos_site_id
 _symmetry_equiv_pos_as_xyz
  1  'x, y, z'
loop_
 _atom_site_type_symbol
 _atom_site_label
 _atom_site_symmetry_multiplicity
 _atom_site_fract_x
 _atom_site_fract_y
 _atom_site_fract_z
 _atom_site_occupancy
 _atom_site_pbe_bader_charge
 _atom_site_pbe_bader_spin_density
 _atom_site_pbe_cm5_charge
 _atom_site_pbe_ddec_charge
 _atom_site_pbe_ddec_spin_density
 _atom_site_pbe_ddec_sum_bond_order
 _atom_site_pbe_magmom
Co  Co0  1  0.31566132  0.30244517  0.13673963  1  1.322105  0.320795  0.777667  0.9285  0.380165  3.207464  0.314
Co  Co1  1  0.16924561  0.19933221  0.87567397  1  1.390585  2.645472  0.746761  1.009486  3.089505  2.78255  2.615
Co  Co2  1  0.68431403  0.69768142  0.86349488  1  1.3215  0.322109  0.778742  0.929562  0.381714  3.207952  0.316
Co  Co3  1  0.83081054  0.80069896  0.12460618  1  1.391119  2.643811  0.748119  1.011003  3.088174  2.786845  2.613
H  H4  1  0.32225675  0.21285232  0.42927805  1  0.074868  -4.9e-05  0.105277  0.108456  -3.6e-05  1.019803  0.0
H  H5  1  0.88995973  0.28473700  0.56820867  1  0.0476  0.001119  0.103939  0.106489  0.000527  1.023101  0.0
H  H6  1  0.67788978  0.78695770  0.57079047  1  0.072442  -4.8e-05  0.105515  0.108577  -3.5e-05  1.020137  0.0
H  H7  1  0.11031789  0.71514480  0.43143663  1  0.121024  0.001071  0.103886  0.106357  0.000527  1.024098  0.0
H  H8  1  0.20635051  0.10866110  0.04320950  1  0.144085  0.00046  0.132356  0.11262  0.000121  1.019603  0.0
H  H9  1  0.15903255  0.40469024  0.95051463  1  0.137412  0.00217  0.124133  0.09919  0.000683  1.002266  0.001
H  H10  1  0.79330629  0.89154945  0.95672182  1  0.142853  0.000456  0.132082  0.112125  0.000116  1.019546  0.0
H  H11  1  0.84055673  0.59541101  0.04954529  1  0.13404  0.00219  0.124306  0.099174  0.000692  1.00264  0.001
H  H12  1  0.33844486  0.32694122  0.34566612  1  0.127379  -4.9e-05  0.1202  0.089639  -0.000111  1.013685  0.0
H  H13  1  0.99003562  0.17556848  0.65956621  1  0.131939  0.002103  0.117208  0.088065  0.000704  1.007943  0.001
H  H14  1  0.66164291  0.67302321  0.65456915  1  0.110192  -5e-05  0.12002  0.089197  -0.00011  1.01436  0.0
H  H15  1  0.01021316  0.82439227  0.34031470  1  0.131755  0.002113  0.117343  0.08792  0.000709  1.008205  0.001
H  H16  1  0.18334421  0.98750699  0.11272207  1  0.130716  9.7e-05  0.11816  0.129598  4.9e-05  0.997304  0.0
H  H17  1  0.06405989  0.52140623  0.87499344  1  0.088463  0.0011  0.114178  0.122424  0.00052  1.004244  0.001
H  H18  1  0.81633130  0.01253719  0.88710302  1  0.131753  9.7e-05  0.118198  0.129605  4.9e-05  0.9976  0.0
H  H19  1  0.93539279  0.47856810  0.12474610  1  0.088464  0.001102  0.113813  0.122051  0.000521  1.005035  0.001
H  H20  1  0.35057301  0.74985601  0.42824072  1  0.048654  2.9e-05  0.094389  0.092682  1.5e-05  1.013086  0.0
H  H21  1  0.91253109  0.75245984  0.56088622  1  0.057757  1.6e-05  0.093196  0.091611  -1e-06  1.016713  0.0
H  H22  1  0.64950498  0.24997795  0.57174931  1  0.04799  2.9e-05  0.094282  0.092538  1.5e-05  1.014149  0.0
H  H23  1  0.08759459  0.24757179  0.43891236  1  0.059265  1.6e-05  0.093261  0.091677  -1e-06  1.016763  0.0
H  H24  1  0.33145458  0.57202062  0.35497001  1  0.045011  -2.3e-05  0.098014  0.095965  -7e-05  1.0222  0.0
H  H25  1  0.96929650  0.93089721  0.64313101  1  0.077724  0.00047  0.097989  0.09799  0.000231  1.019242  0.0
H  H26  1  0.66855524  0.42796946  0.64476930  1  0.040406  -2.2e-05  0.097584  0.09557  -6.9e-05  1.021924  0.0
H  H27  1  0.03068233  0.06911200  0.35669395  1  0.060844  0.000473  0.098207  0.098072  0.000232  1.019688  0.0
H  H28  1  0.22869089  0.85536128  0.46448233  1  0.073068  8.1e-05  0.102643  0.105133  4.3e-05  1.034309  0.0
H  H29  1  0.75538476  0.64098493  0.52620121  1  0.071366  -1.5e-05  0.102867  0.107217  -5.1e-05  1.033234  0.0
H  H30  1  0.77120793  0.14457151  0.53557788  1  0.075595  8.2e-05  0.102521  0.105013  4.3e-05  1.034872  0.0
H  H31  1  0.24469921  0.35900345  0.47374348  1  0.072688  -1.5e-05  0.102724  0.107118  -5.2e-05  1.0334  0.0
H  H32  1  0.07469064  0.55757089  0.05316347  1  0.100921  7.2e-05  0.103422  0.103698  2.4e-05  1.039535  0.0
H  H33  1  0.01257027  0.93199265  0.94488907  1  0.118241  7.9e-05  0.103667  0.11092  4e-05  1.049705  0.0
H  H34  1  0.92512268  0.44227344  0.94676886  1  0.101973  7.2e-05  0.103541  0.104203  2.4e-05  1.039023  0.0
H  H35  1  0.98739217  0.06785323  0.05488739  1  0.118749  7.9e-05  0.103521  0.110754  3.9e-05  1.051482  0.0
H  H36  1  0.23629180  0.89115342  0.19906150  1  0.078325  3.2e-05  0.114702  0.126866  2.4e-05  0.992296  0.0
H  H37  1  0.02605941  0.60777830  0.78452909  1  0.063708  8.6e-05  0.114103  0.124316  4.6e-05  0.997519  0.0
H  H38  1  0.76362115  0.10872028  0.80092267  1  0.077389  3.2e-05  0.114637  0.126501  2.4e-05  0.992518  0.0
H  H39  1  0.97430687  0.39205387  0.21503166  1  0.065303  8.6e-05  0.114045  0.124341  4.6e-05  0.997514  0.0
H  H40  1  0.09723562  0.73509101  0.12253886  1  0.122797  4.1e-05  0.112636  0.129668  -3.5e-05  0.982651  0.0
H  H41  1  0.96470889  0.75516603  0.86743553  1  0.095563  0.000248  0.10975  0.125426  0.000108  0.990487  0.0
H  H42  1  0.90236316  0.26480471  0.87731042  1  0.122896  4.1e-05  0.112651  0.12933  -3.5e-05  0.983308  0.0
H  H43  1  0.03543451  0.24464845  0.13227023  1  0.095425  0.000249  0.109501  0.125567  0.000109  0.990107  0.0
H  H44  1  0.17943115  0.91347667  0.57320011  1  0.023768  0.000823  0.105659  0.111801  0.000341  1.009161  0.0
H  H45  1  0.60142865  0.58255546  0.42431486  1  0.054181  0.000253  0.10762  0.114443  0.000106  1.003828  0.0
H  H46  1  0.82059520  0.08644997  0.42689636  1  0.023541  0.000827  0.1056  0.111708  0.000342  1.009056  0.0
H  H47  1  0.39881794  0.41745461  0.57592285  1  0.05509  0.000255  0.107786  0.114832  0.000107  1.003807  0.0
H  H48  1  0.25150272  0.19049725  0.57038104  1  0.099483  0.000763  0.106197  0.110857  0.000329  1.024023  0.0
H  H49  1  0.67877753  0.30654691  0.42970939  1  0.10869  0.000249  0.108764  0.115192  0.000109  1.019599  0.0
H  H50  1  0.74855581  0.80936339  0.42954693  1  0.098837  0.000765  0.10622  0.110608  0.00033  1.024589  0.0
H  H51  1  0.32148986  0.69358559  0.57057905  1  0.114111  0.00025  0.108837  0.115755  0.00011  1.018824  0.0
H  H52  1  0.14908303  0.99904828  0.72515340  1  0.145922  0.001401  0.122619  0.097809  0.000434  1.01551  0.001
H  H53  1  0.42495387  0.49679408  0.27723969  1  0.172141  0.000399  0.126227  0.101696  0.000111  1.029065  0.0
H  H54  1  0.85100701  0.00096145  0.27496618  1  0.148634  0.001405  0.122925  0.098118  0.000437  1.01521  0.001
H  H55  1  0.57510095  0.50319305  0.72301661  1  0.174863  0.000404  0.126712  0.101849  0.000113  1.028692  0.0
H  H56  1  0.21830738  0.26454618  0.72484626  1  0.072686  0.001507  0.117867  0.087715  0.000484  1.008358  0.001
H  H57  1  0.49635169  0.23187861  0.28061107  1  0.08554  0.00048  0.122066  0.09239  0.000168  1.006075  0.0
H  H58  1  0.78182036  0.73542810  0.27514500  1  0.072442  0.001514  0.11807  0.087674  0.000486  1.008547  0.001
H  H59  1  0.50377722  0.76807091  0.71978520  1  0.082584  0.000488  0.121932  0.09176  0.00017  1.007792  0.0
H  H60  1  0.54426637  0.13210958  0.17386826  1  0.075381  5.8e-05  0.098406  0.096988  -9e-06  1.028993  0.0
H  H61  1  0.37222656  0.36902238  0.82906860  1  0.0638  0.00033  0.09982  0.100878  0.000151  1.023752  0.0
H  H62  1  0.45606449  0.86809427  0.82623341  1  0.078148  5.7e-05  0.098661  0.097467  -1e-05  1.028063  0.0
H  H63  1  0.62740756  0.63131757  0.17105807  1  0.06279  0.000328  0.09982  0.100725  0.000149  1.023438  0.0
H  H64  1  0.33601989  0.98246710  0.83466923  1  0.091259  0.000251  0.099802  0.101054  6.9e-05  1.03345  0.0
H  H65  1  0.50747186  0.51606859  0.17180668  1  0.077916  -2e-06  0.098126  0.098827  -4.7e-05  1.036244  0.0
H  H66  1  0.66443826  0.01804555  0.16571552  1  0.069263  0.000253  0.099688  0.101158  6.9e-05  1.032636  0.0
H  H67  1  0.49234552  0.48431278  0.82828089  1  0.076335  -3e-06  0.098028  0.098867  -4.7e-05  1.036068  0.0
C  C68  1  0.20257032  0.55265516  0.19884309  1  -0.091987  0.001457  -0.016047  -0.032847  0.000718  3.945396  0.001
C  C69  1  0.99446945  0.94308749  0.79886301  1  -0.035449  0.007812  -0.020459  -0.032224  0.004309  3.957034  0.006
C  C70  1  0.79731439  0.44736808  0.80115038  1  -0.087329  0.001455  -0.015928  -0.032101  0.000716  3.943721  0.001
C  C71  1  0.00546588  0.05677386  0.20093350  1  -0.019344  0.00774  -0.020479  -0.031931  0.004314  3.955887  0.006
C  C72  1  0.18415469  0.44359184  0.15433717  1  1.574448  0.000163  0.211332  0.56403  0.00012  4.171134  0.0
C  C73  1  0.01719384  0.05170785  0.84553873  1  1.577486  0.003592  0.19869  0.567342  0.002515  4.228215  0.003
C  C74  1  0.81586408  0.55646177  0.84587731  1  1.578043  0.000138  0.21105  0.563657  0.000101  4.172725  0.0
C  C75  1  0.98270654  0.94813940  0.15432226  1  1.559664  0.003691  0.198654  0.566923  0.002531  4.229205  0.003
C  C76  1  0.22141852  0.04581792  0.56005845  1  0.027433  -0.000855  0.012835  0.087434  -0.001027  3.965745  -0.001
C  C77  1  0.65763863  0.45084819  0.43826322  1  -0.071411  9.8e-05  0.012967  0.086668  3.3e-05  3.963087  0.0
C  C78  1  0.77854425  0.95408176  0.43990395  1  0.004537  -0.000841  0.013535  0.088512  -0.001013  3.965188  -0.001
C  C79  1  0.34247663  0.54914962  0.56183278  1  -0.06413  9.3e-05  0.013808  0.087956  3e-05  3.960489  0.0
C  C80  1  0.24862029  0.02053549  0.32738778  1  0.59978  -2.5e-05  0.12558  0.209056  -8.7e-05  4.007925  0.0
C  C81  1  0.91312617  0.47812601  0.66315177  1  0.472017  -2.2e-05  0.123895  0.208941  -0.000393  4.026224  0.001
C  C82  1  0.75133232  0.97936406  0.67255794  1  0.598063  -2.5e-05  0.125325  0.208222  -8.7e-05  4.008061  0.0
C  C83  1  0.08696447  0.52178708  0.33661358  1  0.463508  -2.7e-05  0.123689  0.208327  -0.0004  4.024022  0.001
C  C84  1  0.25762952  0.08907614  0.27958589  1  -0.077841  -0.001216  0.015693  0.081707  -0.001375  3.954436  -0.001
C  C85  1  0.97138747  0.41245293  0.71300253  1  -0.04116  -0.011488  0.012144  0.081368  -0.01258  3.968765  -0.007
C  C86  1  0.74240561  0.91082972  0.72039245  1  -0.129487  -0.001216  0.016084  0.082454  -0.00138  3.955074  -0.001
C  C87  1  0.02862171  0.58746417  0.28675376  1  -0.045742  -0.01157  0.012162  0.080964  -0.01267  3.967984  -0.007
C  C88  1  0.35622236  0.12867621  0.00546908  1  1.553858  -0.000514  0.22259  0.575868  -0.00158  4.14241  -0.001
C  C89  1  0.36065233  0.36596815  0.99971640  1  1.575939  -0.002704  0.220664  0.574142  -0.003635  4.160041  -0.003
C  C90  1  0.64399238  0.87147608  0.99476333  1  1.54877  -0.000538  0.221958  0.574429  -0.001615  4.145193  -0.001
C  C91  1  0.63921095  0.63437170  0.00040561  1  1.571855  -0.002702  0.222238  0.576447  -0.003634  4.159403  -0.002
C  C92  1  0.22635127  0.75478299  0.28017269  1  -0.035778  0.0  -0.010414  0.055273  -4.6e-05  4.007357  0.0
C  C93  1  0.93518291  0.74197759  0.70855844  1  -0.082349  -0.000726  -0.015389  0.048495  -0.000805  4.027677  0.0
C  C94  1  0.77349211  0.24517248  0.71970726  1  -0.036367  -1.1e-05  -0.010447  0.05514  -5.4e-05  4.00774  0.0
C  C95  1  0.06494695  0.25786718  0.29115306  1  -0.073124  -0.000734  -0.014998  0.048285  -0.000813  4.026584  0.0
C  C96  1  0.23409377  0.85993031  0.32692090  1  -0.016561  -8.1e-05  0.014652  0.128142  -0.000125  3.991733  0.0
C  C97  1  0.89656272  0.63746481  0.66034888  1  0.056856  -1.7e-05  0.014449  0.130459  -0.000161  4.008488  0.0
C  C98  1  0.76566629  0.13997717  0.67298180  1  -0.010133  -8.2e-05  0.014723  0.127822  -0.000125  3.990868  0.0
C  C99  1  0.10361229  0.36241727  0.33938848  1  0.061571  -1.7e-05  0.014118  0.130367  -0.000163  4.007486  0.0
C  C100  1  0.29811297  0.18718136  0.34380651  1  0.060021  0.000679  -0.081423  -0.161637  0.000238  3.966368  0.0
C  C101  1  0.94993923  0.31333417  0.65291722  1  0.061731  0.00645  -0.085145  -0.166645  0.00328  3.966308  0.005
C  C102  1  0.70196101  0.81271796  0.65624936  1  0.061427  0.000679  -0.082016  -0.16256  0.000238  3.967257  0.0
C  C103  1  0.05024691  0.68658170  0.34683154  1  -0.008791  0.006504  -0.085443  -0.166641  0.003281  3.966865  0.005
C  C104  1  0.23421170  0.12771900  0.12868192  1  0.518206  9.3e-05  0.058091  0.106757  -0.000241  3.861046  0.0
C  C105  1  0.10018731  0.38173690  0.86580463  1  0.494692  -0.007728  0.05629  0.112423  -0.008891  3.920674  -0.005
C  C106  1  0.76552324  0.87235787  0.87127338  1  0.520277  6.5e-05  0.058297  0.107571  -0.000264  3.862633  0.0
C  C107  1  0.89964648  0.61826686  0.13415063  1  0.500435  -0.007757  0.056489  0.11255  -0.00892  3.923267  -0.005
C  C108  1  0.23753528  0.00074368  0.46687648  1  0.511586  0.000175  0.117214  0.200338  6.9e-05  4.032094  0.0
C  C109  1  0.76428369  0.49649788  0.52728958  1  0.557975  0.00054  0.11603  0.198964  0.000152  4.036558  0.001
C  C110  1  0.76232954  0.99913804  0.53302958  1  0.509219  0.000171  0.117059  0.199771  6.6e-05  4.03207  0.0
C  C111  1  0.23582852  0.50345374  0.47265682  1  0.555287  0.000548  0.115731  0.198715  0.000154  4.035754  0.001
C  C112  1  0.30734616  0.25046808  0.29848057  1  0.41496  -0.001562  0.043318  0.065948  -0.001956  3.967655  -0.001
C  C113  1  0.00488959  0.25325745  0.70252734  1  0.433783  -0.007448  0.045222  0.083663  -0.008157  3.975112  -0.005
C  C114  1  0.69263455  0.74950846  0.70162415  1  0.428622  -0.001564  0.044189  0.067772  -0.00196  3.967644  -0.001
C  C115  1  0.99529036  0.74671407  0.29737761  1  0.436219  -0.007523  0.045515  0.08437  -0.00823  3.975693  -0.005
C  C116  1  0.22307882  0.06071515  0.16910126  1  -0.036853  0.000645  -0.0672  -0.147187  0.000212  3.906113  0.0
C  C117  1  0.04779921  0.44618261  0.82234421  1  -0.011415  0.005394  -0.076165  -0.161944  0.002725  3.932851  0.004
C  C118  1  0.77678088  0.93927241  0.83083337  1  0.01178  0.000636  -0.06747  -0.147906  0.00021  3.908427  0.0
C  C119  1  0.95200134  0.55377475  0.17748837  1  -0.010842  0.005403  -0.075641  -0.160967  0.002727  3.934918  0.004
C  C120  1  0.29128202  0.70765135  0.34500542  1  -0.078981  0.000176  -0.099886  -0.144636  0.000109  4.012442  0.0
C  C121  1  0.93634037  0.79205189  0.64571118  1  -0.061498  1e-05  -0.102077  -0.147426  -0.000103  4.020519  0.0
C  C122  1  0.70869239  0.29238112  0.65490588  1  -0.079259  0.000178  -0.100003  -0.14481  0.00011  4.012968  0.0
C  C123  1  0.06371540  0.20788238  0.35406746  1  -0.063658  1.1e-05  -0.102228  -0.147668  -0.000104  4.019727  0.0
C  C124  1  0.28092970  0.60798215  0.30407158  1  0.070448  -1.3e-05  -0.093256  -0.093948  -0.000149  4.00883  0.0
C  C125  1  0.96821765  0.89153309  0.69140527  1  -0.043752  -0.000136  -0.09291  -0.093716  -0.000331  4.008676  0.0
C  C126  1  0.71898681  0.39206415  0.69582398  1  0.067468  -2.2e-05  -0.092733  -0.093464  -0.000156  4.006235  0.0
C  C127  1  0.03175422  0.10840984  0.30839249  1  -0.029172  -0.000145  -0.09314  -0.09358  -0.000336  4.008638  0.0
C  C128  1  0.23440356  0.90159161  0.42457788  1  -0.021634  -1.4e-05  -0.081269  -0.212755  -7.3e-05  3.911014  0.0
C  C129  1  0.80109704  0.59537800  0.56592553  1  -0.080788  -0.003593  -0.084826  -0.219195  -0.00394  3.911417  -0.002
C  C130  1  0.76542378  0.09827637  0.57535966  1  -0.027358  -8e-06  -0.081107  -0.212287  -6.8e-05  3.91145  0.0
C  C131  1  0.19900081  0.40456374  0.43396422  1  -0.085693  -0.003641  -0.084544  -0.219174  -0.003992  3.911849  -0.002
C  C132  1  0.43240388  0.06386266  0.00446699  1  0.009236  0.0074  -0.015246  -0.022244  0.004141  3.951848  0.006
C  C133  1  0.43219003  0.43618434  0.00025127  1  -0.012309  0.006148  -0.01547  -0.022309  0.003439  3.955665  0.005
C  C134  1  0.56795563  0.93633799  0.99574779  1  0.000789  0.007485  -0.015002  -0.022249  0.004193  3.952264  0.006
C  C135  1  0.56765574  0.56416078  0.99982107  1  -0.002433  0.00616  -0.015162  -0.022633  0.003446  3.955345  0.005
C  C136  1  0.13765378  0.59975817  0.13408698  1  0.070479  5.4e-05  -0.083555  -0.092856  -6e-05  3.968906  0.0
C  C137  1  0.99466917  0.89289515  0.86194377  1  -0.06344  0.000582  -0.086012  -0.094121  6.6e-05  3.970669  0.001
C  C138  1  0.86209893  0.40017404  0.86584073  1  0.002962  4.3e-05  -0.084008  -0.094154  -6.8e-05  3.969562  0.0
C  C139  1  0.00523033  0.10690540  0.13778617  1  -0.061026  0.000581  -0.086099  -0.094268  6.1e-05  3.972104  0.001
C  C140  1  0.23838446  0.92099260  0.27611891  1  -0.046426  -0.000267  -0.066972  -0.187827  -0.000293  3.863761  0.0
C  C141  1  0.95207941  0.57717942  0.71044744  1  0.033565  -0.001293  -0.070755  -0.192564  -0.001408  3.882489  -0.001
C  C142  1  0.76147695  0.07890682  0.72382645  1  -0.043718  -0.000253  -0.066573  -0.186724  -0.000279  3.863157  0.0
C  C143  1  0.04814827  0.42270603  0.28923741  1  0.038545  -0.001306  -0.070695  -0.192052  -0.001421  3.881697  -0.001
C  C144  1  0.15039565  0.69992314  0.17311908  1  -0.147788  2.1e-05  -0.083498  -0.118166  -6.4e-05  3.921051  0.0
C  C145  1  0.96743788  0.79293465  0.81818008  1  0.034584  0.00087  -0.08809  -0.123102  0.000448  3.934965  0.001
C  C146  1  0.84935151  0.30002135  0.82674997  1  -0.075763  2.4e-05  -0.083595  -0.11774  -6.2e-05  3.922584  0.0
C  C147  1  0.03260839  0.20686226  0.18150310  1  0.023771  0.000874  -0.087656  -0.122996  0.00045  3.934155  0.001
C  C148  1  0.19099339  0.99181881  0.60431956  1  -0.021856  0.003344  -0.087399  -0.18093  0.001788  3.949094  0.003
C  C149  1  0.58350761  0.50433745  0.39510338  1  -0.048096  0.001091  -0.084971  -0.176907  0.000592  3.953112  0.001
C  C150  1  0.80905147  0.00811875  0.39573870  1  -0.023253  0.003342  -0.087678  -0.181141  0.001787  3.949198  0.003
C  C151  1  0.41660441  0.49566121  0.60506454  1  -0.052432  0.001104  -0.085602  -0.178216  0.0006  3.953991  0.001
C  C152  1  0.23035421  0.14606722  0.60390496  1  -0.076497  0.003157  -0.083039  -0.164047  0.001702  3.943276  0.002
C  C153  1  0.62460092  0.35072853  0.39685459  1  0.049493  0.000901  -0.080554  -0.15961  0.000538  3.937731  0.001
C  C154  1  0.76970778  0.85384591  0.39609772  1  -0.046493  0.003145  -0.083501  -0.164418  0.0017  3.943836  0.002
C  C155  1  0.37552282  0.64928772  0.60335246  1  0.046699  0.000909  -0.081215  -0.160928  0.000544  3.938937  0.001
C  C156  1  0.17315942  0.03839616  0.68896633  1  0.473991  0.000502  0.051918  0.102673  -0.000211  3.942097  0.0
C  C157  1  0.48416399  0.45785852  0.31326442  1  0.475681  0.000387  0.051415  0.095131  0.000123  3.930295  0.0
C  C158  1  0.82701450  0.96159839  0.31119140  1  0.471624  0.000521  0.05177  0.102576  -0.000202  3.941247  0.0
C  C159  1  0.51588624  0.54212142  0.68698803  1  0.471022  0.000381  0.051006  0.09537  0.000118  3.931771  0.0
C  C160  1  0.21113807  0.18695697  0.68842644  1  0.521202  0.000656  0.048343  0.095802  -0.000198  3.95887  0.001
C  C161  1  0.52377791  0.30932742  0.31523609  1  0.429412  0.000621  0.050197  0.084809  0.000242  3.94428  0.0
C  C162  1  0.78901983  0.81300242  0.31165984  1  0.517388  0.000678  0.048629  0.096193  -0.00019  3.959004  0.001
C  C163  1  0.47627759  0.69065032  0.68507761  1  0.431751  0.000619  0.05059  0.085294  0.000239  3.947722  0.0
C  C164  1  0.52508927  0.07404385  0.09797988  1  -0.046669  0.001041  -0.087905  -0.098135  0.000348  3.990863  0.001
C  C165  1  0.42814140  0.42705074  0.90343613  1  -0.039435  -0.000157  -0.086519  -0.097094  -0.000361  3.986584  0.0
C  C166  1  0.47525419  0.92609760  0.90219440  1  -0.034004  0.001006  -0.087877  -0.097827  0.000326  3.987969  0.001
C  C167  1  0.57159777  0.57332837  0.09659904  1  -0.042977  -0.000167  -0.087251  -0.097363  -0.000371  3.987625  0.0
C  C168  1  0.40827581  0.98938053  0.90661948  1  -0.06123  0.000501  -0.08438  -0.090008  0.00011  3.970586  0.0
C  C169  1  0.50450316  0.50983817  0.09689136  1  -0.04873  5e-05  -0.086884  -0.094447  -0.000333  3.980994  0.0
C  C170  1  0.59213264  0.01083937  0.09361189  1  -0.041633  0.000448  -0.084418  -0.089971  7e-05  3.971049  0.0
C  C171  1  0.49526929  0.49052375  0.90316492  1  -0.046371  4.5e-05  -0.086765  -0.094017  -0.00034  3.979623  0.0
N  N172  1  0.27876728  0.22070898  0.19294711  1  -1.165982  -0.000808  -0.324626  -0.179131  -0.000832  3.626078  -0.001
N  N173  1  0.07978204  0.28686051  0.80696495  1  -1.227638  0.070906  -0.326929  -0.245966  0.040786  3.609608  0.06
N  N174  1  0.72111227  0.77932661  0.80711951  1  -1.163453  -0.000777  -0.325511  -0.180887  -0.000808  3.626938  -0.001
N  N175  1  0.92025462  0.71311820  0.19304815  1  -1.231852  0.070965  -0.327789  -0.246988  0.040818  3.612879  0.06
N  N176  1  0.18372824  0.13459623  0.73133854  1  -1.191949  0.06049  -0.311527  -0.22351  0.035689  3.503077  0.046
N  N177  1  0.45434448  0.36152112  0.27268816  1  -1.166112  0.018913  -0.318692  -0.190411  0.010844  3.562864  0.015
N  N178  1  0.81647751  0.86541343  0.26884007  1  -1.192549  0.060533  -0.312134  -0.223836  0.035748  3.503524  0.046
N  N179  1  0.54563993  0.63844024  0.72759625  1  -1.165798  0.019082  -0.318683  -0.189643  0.010944  3.564738  0.015
N  N180  1  0.24911136  0.05937709  0.42129321  1  -1.194678  -0.000762  -0.305436  -0.329285  -0.000848  3.309762  -0.001
N  N181  1  0.82116390  0.43847753  0.57290145  1  -1.216705  -0.003617  -0.306558  -0.331423  -0.003925  3.308125  -0.003
N  N182  1  0.75079531  0.94050820  0.57863377  1  -1.194596  -0.000768  -0.305576  -0.328994  -0.000854  3.309758  -0.001
N  N183  1  0.17888262  0.56142060  0.42697278  1  -1.215334  -0.003659  -0.306506  -0.331396  -0.003969  3.305935  -0.003
O  O184  1  0.19940714  0.25482733  0.00943091  1  -0.730938  0.607127  -0.434577  -0.623883  0.330229  2.07658  0.514
O  O185  1  0.80053091  0.74517623  0.99087738  1  -0.73127  0.607354  -0.434896  -0.624487  0.330526  2.076514  0.514
O  O186  1  0.26826897  0.41028718  0.20118821  1  -1.069254  -0.00524  -0.306361  -0.530284  -0.005709  2.385941  -0.005
O  O187  1  0.05016248  0.08997702  0.79856745  1  -1.152649  0.09349  -0.336478  -0.599056  0.051748  2.380272  0.079
O  O188  1  0.73154572  0.58954684  0.79922117  1  -1.071605  -0.0052  -0.305909  -0.530149  -0.005663  2.388049  -0.004
O  O189  1  0.94976438  0.90992089  0.20134530  1  -1.151056  0.093588  -0.336556  -0.599352  0.05182  2.382632  0.079
O  O190  1  0.38928587  0.20546802  0.09194241  1  -1.087467  0.002161  -0.28406  -0.51547  0.000118  2.408597  0.003
O  O191  1  0.30532010  0.29473193  0.91353626  1  -1.157308  0.065935  -0.28866  -0.546366  0.036208  2.363332  0.061
O  O192  1  0.61086629  0.79486407  0.90810466  1  -1.085614  0.002152  -0.283895  -0.514469  0.000115  2.411034  0.003
O  O193  1  0.69472221  0.70550215  0.08659842  1  -1.154284  0.065893  -0.289676  -0.547583  0.036189  2.365692  0.061
O  O194  1  0.26756049  0.10158016  0.92312623  1  -1.148597  0.066359  -0.288997  -0.529397  0.036641  2.378382  0.061
O  O195  1  0.36405721  0.38728328  0.09094538  1  -1.070686  0.001019  -0.285348  -0.491449  3.2e-05  2.439061  0.002
O  O196  1  0.73250044  0.89836741  0.07731263  1  -1.147292  0.066432  -0.288789  -0.528883  0.036686  2.380263  0.061
O  O197  1  0.63559502  0.61314188  0.90911438  1  -1.070129  0.001067  -0.28632  -0.492271  7e-05  2.442531  0.002
O  O198  1  0.09724418  0.39693375  0.08220099  1  -1.143101  0.014527  -0.293821  -0.487883  0.007721  2.110067  0.012
O  O199  1  0.00285087  0.09574422  0.92210123  1  -1.158741  0.013843  -0.313902  -0.529413  0.006849  2.1124  0.012
O  O200  1  0.90280663  0.60318474  0.91787059  1  -1.144349  0.01443  -0.29383  -0.487938  0.007671  2.110062  0.012
O  O201  1  0.99692067  0.90392977  0.07771918  1  -1.158057  0.013925  -0.314324  -0.529392  0.006896  2.112375  0.012
