# generated using pymatgen
data_NiGeH8C8(N2F3)2
_symmetry_space_group_name_H-M   'P 1'
_cell_length_a   6.98599939
_cell_length_b   6.98599207
_cell_length_c   7.85432378
_cell_angle_alpha   90.00006146
_cell_angle_beta   89.99975242
_cell_angle_gamma   89.99999902
_symmetry_Int_Tables_number   1
_chemical_formula_structural   NiGeH8C8(N2F3)2
_chemical_formula_sum   'Ni1 Ge1 H8 C8 N4 F6'
_cell_volume   383.32348859
_cell_formula_units_Z   1
loop_
 _symmetry_equiv_pos_site_id
 _symmetry_equiv_pos_as_xyz
  1  'x, y, z'
loop_
 _atom_site_type_symbol
 _atom_site_label
 _atom_site_symmetry_multiplicity
 _atom_site_fract_x
 _atom_site_fract_y
 _atom_site_fract_z
 _atom_site_occupancy
 _atom_site_pbe_bader_charge
 _atom_site_pbe_bader_spin_density
 _atom_site_pbe_cm5_charge
 _atom_site_pbe_ddec_charge
 _atom_site_pbe_ddec_spin_density
 _atom_site_pbe_ddec_sum_bond_order
 _atom_site_pbe_magmom
Ni  Ni0  1  0.50000028  0.50000085  0.50000030  1  1.215153  1.577201  0.67902  0.698501  1.773681  2.545006  1.564
Ge  Ge1  1  0.49999909  0.49999971  0.99999878  1  2.645539  0.009397  0.534723  1.745876  0.004135  3.655909  0.016
H  H2  1  0.50000092  0.17761843  0.23382827  1  0.192424  0.002853  0.123548  0.110754  0.001141  1.040731  0.002
H  H3  1  0.50000091  0.82238297  0.23382732  1  0.192342  0.002854  0.123556  0.110768  0.001142  1.040696  0.002
H  H4  1  0.82238285  0.49999783  0.23382525  1  0.192313  0.002854  0.123562  0.110732  0.001142  1.040664  0.002
H  H5  1  0.17761755  0.49999784  0.23382525  1  0.192322  0.002854  0.123582  0.110798  0.001142  1.040607  0.002
H  H6  1  0.49999965  0.17762160  0.76617455  1  0.192496  0.002854  0.123585  0.110856  0.001142  1.040566  0.002
H  H7  1  0.49999965  0.82238614  0.76617614  1  0.192318  0.002854  0.123577  0.110779  0.001142  1.040605  0.002
H  H8  1  0.17761628  0.49999958  0.76617407  1  0.192318  0.002854  0.12356  0.110725  0.001142  1.040662  0.002
H  H9  1  0.82238158  0.49999958  0.76617408  1  0.192417  0.002854  0.123587  0.11083  0.001142  1.040589  0.002
C  C10  1  0.50000063  0.09961096  0.35365778  1  0.388458  0.001741  0.065603  0.065589  -0.00015  3.849157  0.002
C  C11  1  0.50000063  0.90038914  0.35366072  1  0.556804  0.00141  0.065666  0.065621  -0.000149  3.849188  0.002
C  C12  1  0.90038858  0.49999790  0.35365973  1  0.556809  0.001409  0.065604  0.065628  -0.00015  3.849081  0.002
C  C13  1  0.09961125  0.49999791  0.35365876  1  0.388643  0.001741  0.06557  0.065531  -0.00015  3.849062  0.002
C  C14  1  0.49999994  0.09961257  0.64634115  1  0.388554  0.001741  0.065582  0.065433  -0.00015  3.849093  0.002
C  C15  1  0.49999993  0.90038788  0.64634155  1  0.557373  0.001409  0.065675  0.065708  -0.00015  3.849235  0.002
C  C16  1  0.09961055  0.49999808  0.64634086  1  0.388572  0.001741  0.065601  0.06565  -0.00015  3.849031  0.002
C  C17  1  0.90038789  0.49999807  0.64634056  1  0.556704  0.00141  0.065582  0.065514  -0.00015  3.849061  0.002
N  N18  1  0.50000028  0.19995900  0.50000142  1  -1.201368  0.069885  -0.299829  -0.189631  0.040081  3.556043  0.064
N  N19  1  0.50000028  0.80004700  0.50000299  1  -1.203027  0.069893  -0.299992  -0.18976  0.04008  3.556439  0.064
N  N20  1  0.80004468  0.49999942  0.49999971  1  -1.202462  0.069894  -0.299847  -0.189654  0.04008  3.556103  0.064
N  N21  1  0.19995588  0.49999943  0.49999961  1  -1.201293  0.069885  -0.299834  -0.189654  0.04008  3.556072  0.064
F  F22  1  0.50000376  0.50000357  0.24124728  1  -0.760098  0.039179  -0.232729  -0.512313  0.021703  1.331117  0.034
F  F23  1  0.49999680  0.49999814  0.75875077  1  -0.760113  0.03918  -0.232726  -0.512337  0.021703  1.331094  0.034
F  F24  1  0.31720157  0.31719761  0.00000335  1  -0.713301  0.005013  -0.265568  -0.518008  0.00263  0.979415  0.004
F  F25  1  0.68279899  0.68279981  0.99999470  1  -0.713184  0.005013  -0.265544  -0.517979  0.00263  0.979419  0.004
F  F26  1  0.68279900  0.31719962  0.99999834  1  -0.71341  0.005013  -0.265556  -0.51798  0.00263  0.979398  0.004
F  F27  1  0.31720014  0.68279923  0.00000099  1  -0.713306  0.005013  -0.265558  -0.517978  0.00263  0.979406  0.004
