# generated using pymatgen
data_CdH11C19NO4
_symmetry_space_group_name_H-M   'P 1'
_cell_length_a   8.29872443
_cell_length_b   10.63605605
_cell_length_c   10.63556897
_cell_angle_alpha   94.01617860
_cell_angle_beta   77.58268247
_cell_angle_gamma   77.57802101
_symmetry_Int_Tables_number   1
_chemical_formula_structural   CdH11C19NO4
_chemical_formula_sum   'Cd2 H22 C38 N2 O8'
_cell_volume   888.65284153
_cell_formula_units_Z   2
loop_
 _symmetry_equiv_pos_site_id
 _symmetry_equiv_pos_as_xyz
  1  'x, y, z'
loop_
 _atom_site_type_symbol
 _atom_site_label
 _atom_site_symmetry_multiplicity
 _atom_site_fract_x
 _atom_site_fract_y
 _atom_site_fract_z
 _atom_site_occupancy
 _atom_site_pbe_bader_charge
 _atom_site_pbe_bader_spin_density
 _atom_site_pbe_cm5_charge
 _atom_site_pbe_ddec_charge
 _atom_site_pbe_ddec_spin_density
 _atom_site_pbe_ddec_sum_bond_order
 _atom_site_pbe_magmom
Cd  Cd0  1  0.74989124  0.51623086  0.48381068  1  1.281877  0  0.780978  0.966173  0  2.06678  0
Cd  Cd1  1  0.25006480  0.48377251  0.51622510  1  1.281934  0  0.780916  0.966037  0  2.066897  0
H  H2  1  0.97648505  0.25168494  0.52520298  1  0.145928  0  0.116187  0.097138  0  1.049281  0
H  H3  1  0.52342877  0.47480824  0.74833341  1  0.145953  0  0.1162  0.097133  0  1.049386  0
H  H4  1  0.02350825  0.74834660  0.47478084  1  0.145814  0  0.116193  0.097056  0  1.049528  0
H  H5  1  0.47656725  0.52522215  0.25164518  1  0.145883  0  0.11615  0.097065  0  1.04934  0
H  H6  1  0.75000751  0.11927006  0.88072740  1  0.039311  0  0.108325  0.105844  0  1.012553  0
H  H7  1  0.24999857  0.88074762  0.11926048  1  0.039197  0  0.108226  0.105601  0  1.012545  0
H  H8  1  0.20002308  0.13777263  0.53966547  1  0.113673  0  0.105887  0.116944  0  1.017459  0
H  H9  1  0.29995122  0.46031664  0.86224396  1  0.112981  0  0.10592  0.117002  0  1.017634  0
H  H10  1  0.79996335  0.86226527  0.46029803  1  0.11334  0  0.105903  0.11696  0  1.017492  0
H  H11  1  0.70005870  0.53966398  0.13774380  1  0.113897  0  0.105889  0.116975  0  1.017394  0
H  H12  1  0.42843088  0.93775753  0.48052804  1  0.122463  0  0.105698  0.109066  0  1.022867  0
H  H13  1  0.07156645  0.51946943  0.06227062  1  0.122743  0  0.105668  0.108985  0  1.023021  0
H  H14  1  0.57157488  0.06226830  0.51946563  1  0.122917  0  0.105653  0.109048  0  1.022861  0
H  H15  1  0.92846404  0.48052314  0.93772092  1  0.122099  0  0.105609  0.108968  0  1.022842  0
H  H16  1  0.13470837  0.74112546  0.74656340  1  0.09357  0  0.102679  0.10867  0  1.02148  0
H  H17  1  0.36524992  0.25346566  0.25892338  1  0.093495  0  0.102633  0.108706  0  1.021839  0
H  H18  1  0.86528057  0.25890765  0.25345140  1  0.093525  0  0.102654  0.108688  0  1.02177  0
H  H19  1  0.63475160  0.74654561  0.74111052  1  0.093372  0  0.102636  0.108646  0  1.021718  0
H  H20  1  0.89368610  0.93413537  0.79536405  1  0.067282  0  0.10009  0.1006  0  1.011399  0
H  H21  1  0.60627221  0.20460506  0.06589423  1  0.067277  0  0.100035  0.100467  0  1.011658  0
H  H22  1  0.10625589  0.06588682  0.20461802  1  0.0675  0  0.100076  0.100564  0  1.011569  0
H  H23  1  0.39370628  0.79538481  0.93410988  1  0.067236  0  0.100014  0.100512  0  1.011507  0
C  C24  1  0.87815901  0.26132271  0.61377798  1  0.449647  0  0.050284  0.047503  0  3.897063  0
C  C25  1  0.62174341  0.38626379  0.73872208  1  0.445608  0  0.050152  0.047358  0  3.897369  0
C  C26  1  0.12180462  0.73870607  0.38621611  1  0.450133  0  0.050268  0.04743  0  3.897949  0
C  C27  1  0.37821749  0.61377071  0.26128859  1  0.451234  0  0.050251  0.047318  0  3.898136  0
C  C28  1  0.88481043  0.16797218  0.70056695  1  0.017421  0  0.001239  0.036794  0  3.987286  0
C  C29  1  0.61514014  0.29948594  0.83204267  1  0.017619  0  0.001442  0.037206  0  3.987627  0
C  C30  1  0.11516665  0.83204286  0.29944992  1  0.017164  0  0.001099  0.036611  0  3.988088  0
C  C31  1  0.38485641  0.70055338  0.16797170  1  0.01602  0  0.00121  0.036775  0  3.987778  0
C  C32  1  0.74996438  0.18932733  0.81068364  1  0.004539  0  -0.061078  -0.121478  0  3.879578  0
C  C33  1  0.25002474  0.81071351  0.18934627  1  0.005341  0  -0.060742  -0.120847  0  3.87926  0
C  C34  1  0.02749771  0.05179750  0.67216182  1  -0.040753  0  -0.002758  0.074412  0  3.989972  0
C  C35  1  0.47248556  0.32787693  0.94823275  1  -0.040376  0  -0.002694  0.073974  0  3.989824  0
C  C36  1  0.97248394  0.94822837  0.32785240  1  -0.041083  0  -0.002634  0.074361  0  3.989944  0
C  C37  1  0.52750542  0.67214297  0.05177212  1  -0.04104  0  -0.002723  0.074271  0  3.989634  0
C  C38  1  0.18102694  0.05104191  0.58380127  1  -0.052906  0  -0.083218  -0.121137  0  3.938024  0
C  C39  1  0.31895578  0.41623908  0.94899403  1  -0.052526  0  -0.083335  -0.121388  0  3.938801  0
C  C40  1  0.81896883  0.94899445  0.41619626  1  -0.052746  0  -0.083309  -0.121243  0  3.938864  0
C  C41  1  0.68102807  0.58377653  0.05101026  1  -0.053425  0  -0.083235  -0.121244  0  3.93841  0
C  C42  1  0.31243620  0.93997577  0.55252498  1  -0.122119  0  -0.084211  -0.087113  0  3.973417  0
C  C43  1  0.18754834  0.44747917  0.06003951  1  -0.122132  0  -0.084245  -0.086879  0  3.973693  0
C  C44  1  0.68757817  0.06004824  0.44748119  1  -0.1222  0  -0.084196  -0.087102  0  3.973947  0
C  C45  1  0.81244610  0.55251868  0.93997111  1  -0.121659  0  -0.084209  -0.087015  0  3.97387  0
C  C46  1  0.29760496  0.82802832  0.61158376  1  -0.016161  0  -0.023125  -0.043691  0  3.993802  0
C  C47  1  0.20241732  0.38838960  0.17198230  1  -0.016113  0  -0.02297  -0.0434  0  3.993894  0
C  C48  1  0.70241362  0.17198381  0.38841679  1  -0.016389  0  -0.023068  -0.043631  0  3.994391  0
C  C49  1  0.79762189  0.61157784  0.82802526  1  -0.016216  0  -0.023182  -0.043859  0  3.993906  0
C  C50  1  0.14648618  0.82856274  0.70136843  1  0.003648  0  -0.086673  -0.091959  0  3.982855  0
C  C51  1  0.35352293  0.29860280  0.17146010  1  0.003491  0  -0.086809  -0.092346  0  3.98379  0
C  C52  1  0.85351283  0.17147210  0.29863413  1  0.003893  0  -0.086785  -0.092039  0  3.983319  0
C  C53  1  0.64652954  0.70136463  0.82853650  1  0.003956  0  -0.086631  -0.091812  0  3.983565  0
C  C54  1  0.01250761  0.93823595  0.72957472  1  -0.021829  0  -0.0897  -0.130122  0  3.968462  0
C  C55  1  0.48749094  0.27041764  0.06179544  1  -0.021744  0  -0.089719  -0.129711  0  3.968355  0
C  C56  1  0.98747843  0.06179063  0.27043114  1  -0.0215  0  -0.08978  -0.130137  0  3.968421  0
C  C57  1  0.51253434  0.72958532  0.93819341  1  -0.021251  0  -0.089743  -0.130127  0  3.968092  0
C  C58  1  0.43924998  0.70899997  0.57606478  1  1.523375  0  0.19585  0.556662  0  4.237671  0
C  C59  1  0.06074385  0.42387854  0.29098841  1  1.525068  0  0.195763  0.556379  0  4.23829  0
C  C60  1  0.56073592  0.29096219  0.42392827  1  1.523175  0  0.195895  0.556846  0  4.238636  0
C  C61  1  0.93933097  0.57602255  0.70901185  1  1.521904  0  0.195933  0.557016  0  4.237156  0
N  N62  1  0.74995658  0.36711144  0.63289889  1  -1.235238  0  -0.330631  -0.242325  0  3.57858  0
N  N63  1  0.25001961  0.63289564  0.36708226  1  -1.23977  0  -0.330609  -0.241963  0  3.578485  0
O  O64  1  0.58056495  0.71799914  0.50464534  1  -1.140584  0  -0.321802  -0.529643  0  2.208165  0
O  O65  1  0.91944370  0.49528645  0.28195182  1  -1.1414  0  -0.32182  -0.529746  0  2.208064  0
O  O66  1  0.41947569  0.28191951  0.49534737  1  -1.140012  0  -0.321833  -0.529772  0  2.208624  0
O  O67  1  0.08064442  0.50461474  0.71803934  1  -1.139239  0  -0.32181  -0.529741  0  2.207659  0
O  O68  1  0.41585260  0.60307488  0.61812336  1  -1.186138  0  -0.335073  -0.598013  0  2.307796  0
O  O69  1  0.08409823  0.38177756  0.39692094  1  -1.186957  0  -0.335103  -0.597915  0  2.306407  0
O  O70  1  0.58404086  0.39690378  0.38185708  1  -1.186619  0  -0.335097  -0.598162  0  2.307557  0
O  O71  1  0.91594836  0.61807910  0.60307950  1  -1.186385  0  -0.335061  -0.598207  0  2.307238  0
