# generated using pymatgen
data_ZnH14C11(SO4)2
_symmetry_space_group_name_H-M   'P 1'
_cell_length_a   7.79687332
_cell_length_b   11.97308485
_cell_length_c   16.37800000
_cell_angle_alpha   90.00000000
_cell_angle_beta   90.00000000
_cell_angle_gamma   90.00000000
_symmetry_Int_Tables_number   1
_chemical_formula_structural   ZnH14C11(SO4)2
_chemical_formula_sum   'Zn4 H56 C44 S8 O32'
_cell_volume   1528.92930493
_cell_formula_units_Z   4
loop_
 _symmetry_equiv_pos_site_id
 _symmetry_equiv_pos_as_xyz
  1  'x, y, z'
loop_
 _atom_site_type_symbol
 _atom_site_label
 _atom_site_symmetry_multiplicity
 _atom_site_fract_x
 _atom_site_fract_y
 _atom_site_fract_z
 _atom_site_occupancy
 _atom_site_hle17_bader_spin_density
 _atom_site_hle17_ddec_charge
 _atom_site_hle17_ddec_spin_density
 _atom_site_hle17_ddec_sum_bond_order
 _atom_site_hle17_magmom
 _atom_site_hse06_10hf_bader_spin_density
 _atom_site_hse06_10hf_ddec_charge
 _atom_site_hse06_10hf_ddec_spin_density
 _atom_site_hse06_10hf_ddec_sum_bond_order
 _atom_site_hse06_10hf_magmom
 _atom_site_hse06_bader_spin_density
 _atom_site_hse06_ddec_charge
 _atom_site_hse06_ddec_spin_density
 _atom_site_hse06_ddec_sum_bond_order
 _atom_site_hse06_magmom
 _atom_site_pbe_bader_charge
 _atom_site_pbe_bader_spin_density
 _atom_site_pbe_cm5_charge
 _atom_site_pbe_ddec_charge
 _atom_site_pbe_ddec_spin_density
 _atom_site_pbe_ddec_sum_bond_order
 _atom_site_pbe_magmom
Zn  Zn0  1  0.62186851  0.24999906  0.75000061  1  0  1.135411  0  1.774288  0  0  0.956667  0  2.257221  0  0  1.007848  0  2.190313  0  1.329566  0  0.679722  0.920421  0  2.303593  0
Zn  Zn1  1  0.87813277  0.24999906  0.25000000  1  0  1.135422  0  1.774299  0  0  0.956675  0  2.257243  0  0  1.007861  0  2.190334  0  1.329568  0  0.679719  0.920431  0  2.303613  0
Zn  Zn2  1  0.37813235  0.75000053  0.25000000  1  0  1.135402  0  1.774306  0  0  0.956649  0  2.257247  0  0  1.007836  0  2.190341  0  1.329454  0  0.679727  0.920404  0  2.303619  0
Zn  Zn3  1  0.12186808  0.75000053  0.75000061  1  0  1.135418  0  1.774268  0  0  0.95668  0  2.257197  0  0  1.007863  0  2.190289  0  1.329475  0  0.679721  0.920432  0  2.303569  0
H  H4  1  0.39279720  0.53337298  0.61498413  1  0  0.147928  0  0.933094  0  0  0.157006  0  0.993298  0  0  0.161645  0  0.991192  0  0.119362  0  0.116365  0.153732  0  0.994993  0
H  H5  1  0.10720451  0.53337215  0.38501710  1  0  0.147929  0  0.933136  0  0  0.157008  0  0.993328  0  0  0.161648  0  0.991221  0  0.119399  0  0.116362  0.153731  0  0.995034  0
H  H6  1  0.39279592  0.96662557  0.88501587  1  0  0.14795  0  0.93307  0  0  0.157015  0  0.99329  0  0  0.161655  0  0.991182  0  0.11937  0  0.116362  0.15374  0  0.994987  0
H  H7  1  0.10720579  0.96662641  0.11498474  1  0  0.14801  0  0.933029  0  0  0.157091  0  0.993222  0  0  0.161731  0  0.991115  0  0.119371  0  0.116404  0.153815  0  0.994921  0
H  H8  1  0.60720238  0.46662745  0.38501587  1  0  0.147937  0  0.933082  0  0  0.157022  0  0.993264  0  0  0.161661  0  0.991157  0  0.119366  0  0.116376  0.15374  0  0.994979  0
H  H9  1  0.89279506  0.46662745  0.61498290  1  0  0.147953  0  0.933097  0  0  0.157033  0  0.993287  0  0  0.161672  0  0.991179  0  0.119402  0  0.116386  0.153755  0  0.994991  0
H  H10  1  0.60720366  0.03337402  0.11498413  1  0  0.147979  0  0.933035  0  0  0.157043  0  0.993256  0  0  0.161682  0  0.991149  0  0.119366  0  0.116375  0.153769  0  0.994949  0
H  H11  1  0.89279506  0.03337319  0.88501587  1  0  0.14797  0  0.933073  0  0  0.157048  0  0.993276  0  0  0.161687  0  0.991169  0  0.119378  0  0.116366  0.153771  0  0.994978  0
H  H12  1  0.04243111  0.99234743  0.70452741  1  0  0.169706  0  0.932639  0  0  0.187402  0  0.987966  0  0  0.190059  0  0.986569  0  0.136644  0  0.109047  0.185408  0  0.989096  0
H  H13  1  0.45756675  0.99234827  0.29547259  1  0  0.169697  0  0.932694  0  0  0.18742  0  0.987991  0  0  0.190077  0  0.986594  0  0.136601  0  0.109037  0.185426  0  0.989122  0
H  H14  1  0.04243239  0.50765280  0.79547320  1  0  0.169679  0  0.93267  0  0  0.187384  0  0.987991  0  0  0.190042  0  0.986594  0  0.136575  0  0.109036  0.185391  0  0.98912  0
H  H15  1  0.45756803  0.50765280  0.20452680  1  0  0.169651  0  0.932705  0  0  0.187365  0  0.988013  0  0  0.190022  0  0.986616  0  0.13665  0  0.109027  0.185372  0  0.989143  0
H  H16  1  0.95756718  0.00765216  0.29547259  1  0  0.169656  0  0.932724  0  0  0.187374  0  0.988032  0  0  0.19003  0  0.986636  0  0.136603  0  0.109028  0.185379  0  0.989162  0
H  H17  1  0.54243154  0.00765216  0.70452741  1  0  0.169648  0  0.932737  0  0  0.187366  0  0.988043  0  0  0.190023  0  0.986647  0  0.136652  0  0.109021  0.185373  0  0.989172  0
H  H18  1  0.95756846  0.49234763  0.20452680  1  0  0.16968  0  0.932683  0  0  0.187429  0  0.987951  0  0  0.190086  0  0.986554  0  0.136632  0  0.109037  0.185433  0  0.989084  0
H  H19  1  0.54243282  0.49234763  0.79547320  1  0  0.169649  0  0.932736  0  0  0.187372  0  0.988046  0  0  0.190028  0  0.98665  0  0.136602  0  0.109021  0.185378  0  0.989175  0
H  H20  1  0.08388106  0.09706772  0.78113079  1  0  0.128789  0  0.969054  0  0  0.139734  0  1.043985  0  0  0.140773  0  1.044769  0  0.095269  0  0.093901  0.138882  0  1.043576  0
H  H21  1  0.41611809  0.09706772  0.21886983  1  0  0.128792  0  0.969056  0  0  0.139735  0  1.043999  0  0  0.140774  0  1.044783  0  0.095271  0  0.093899  0.138883  0  1.04359  0
H  H22  1  0.08388106  0.40293292  0.71887044  1  0  0.128776  0  0.969094  0  0  0.139722  0  1.044028  0  0  0.140761  0  1.044813  0  0.095307  0  0.093893  0.13887  0  1.043618  0
H  H23  1  0.41611937  0.40293208  0.28112956  1  0  0.128796  0  0.969057  0  0  0.139742  0  1.043984  0  0  0.140782  0  1.044768  0  0.095296  0  0.093907  0.138891  0  1.043573  0
H  H24  1  0.91611723  0.90293188  0.21886983  1  0  0.128785  0  0.969051  0  0  0.139727  0  1.043998  0  0  0.140767  0  1.044781  0  0.095269  0  0.093899  0.138875  0  1.043589  0
H  H25  1  0.58388149  0.90293271  0.78113017  1  0  0.128777  0  0.969097  0  0  0.139721  0  1.044038  0  0  0.140761  0  1.044822  0  0.095275  0  0.093889  0.138869  0  1.043629  0
H  H26  1  0.91611980  0.59706751  0.28113017  1  0  0.128762  0  0.969093  0  0  0.139705  0  1.044034  0  0  0.140745  0  1.044819  0  0.095285  0  0.093887  0.138853  0  1.043624  0
H  H27  1  0.58388149  0.59706751  0.71887044  1  0  0.128799  0  0.969046  0  0  0.139745  0  1.043988  0  0  0.140784  0  1.044772  0  0.09529  0  0.093907  0.138892  0  1.043578  0
H  H28  1  0.22500045  0.08506496  0.69497924  1  0  0.170125  0  0.949373  0  0  0.18831  0  1.003767  0  0  0.190684  0  1.002978  0  0.142083  0  0.107555  0.186523  0  1.004473  0
H  H29  1  0.27499870  0.08506580  0.30502076  1  0  0.170136  0  0.949327  0  0  0.18833  0  1.003714  0  0  0.190704  0  1.002924  0  0.142068  0  0.107567  0.186543  0  1.00442  0
H  H30  1  0.22500045  0.41493567  0.80502137  1  0  0.170093  0  0.949398  0  0  0.188283  0  1.003792  0  0  0.190656  0  1.003002  0  0.14204  0  0.107539  0.186495  0  1.004498  0
H  H31  1  0.27500126  0.41493484  0.19497863  1  0  0.170162  0  0.949366  0  0  0.188295  0  1.003819  0  0  0.190668  0  1.00303  0  0.142052  0  0.107536  0.186507  0  1.004526  0
H  H32  1  0.77499913  0.91493463  0.30502137  1  0  0.1701  0  0.949368  0  0  0.1883  0  1.003752  0  0  0.190673  0  1.002963  0  0.14206  0  0.107548  0.186513  0  1.004458  0
H  H33  1  0.72500088  0.91493463  0.69497802  1  0  0.170143  0  0.949308  0  0  0.188342  0  1.003687  0  0  0.190716  0  1.002897  0  0.142035  0  0.107581  0.186554  0  1.004396  0
H  H34  1  0.77500041  0.58506476  0.19497863  1  0  0.170109  0  0.949385  0  0  0.188298  0  1.003779  0  0  0.190671  0  1.00299  0  0.142061  0  0.10755  0.18651  0  1.004484  0
H  H35  1  0.72500216  0.58506559  0.80502137  1  0  0.17012  0  0.949352  0  0  0.188325  0  1.003726  0  0  0.190699  0  1.002938  0  0.142053  0  0.10756  0.186538  0  1.004433  0
H  H36  1  0.93608293  0.02959889  0.56595799  1  0  0.158244  0  0.924836  0  0  0.181419  0  0.971857  0  0  0.182988  0  0.972279  0  0.066708  0  0.110891  0.180239  0  0.971607  0
H  H37  1  0.56391579  0.02959805  0.43404140  1  0  0.158234  0  0.924858  0  0  0.181399  0  0.971878  0  0  0.182968  0  0.9723  0  0.066697  0  0.110888  0.180219  0  0.971627  0
H  H38  1  0.93608293  0.47040174  0.93404201  1  0  0.158248  0  0.924869  0  0  0.181411  0  0.971885  0  0  0.182979  0  0.972308  0  0.066687  0  0.110873  0.180231  0  0.971634  0
H  H39  1  0.56391964  0.47040258  0.06595799  1  0  0.158246  0  0.924849  0  0  0.181406  0  0.971871  0  0  0.182975  0  0.972294  0  0.066678  0  0.110882  0.180226  0  0.971621  0
H  H40  1  0.06391665  0.97040154  0.43404140  1  0  0.158251  0  0.924837  0  0  0.181421  0  0.971859  0  0  0.18299  0  0.972281  0  0.066745  0  0.110889  0.18024  0  0.971608  0
H  H41  1  0.43608250  0.97040154  0.56595799  1  0  0.158237  0  0.924848  0  0  0.18141  0  0.971868  0  0  0.182979  0  0.97229  0  0.066731  0  0.110884  0.18023  0  0.971617  0
H  H42  1  0.06391665  0.52959869  0.06595799  1  0  0.158252  0  0.924858  0  0  0.181421  0  0.971877  0  0  0.182989  0  0.972299  0  0.066737  0  0.110882  0.18024  0  0.971626  0
H  H43  1  0.43608506  0.52959869  0.93404201  1  0  0.158248  0  0.924863  0  0  0.181415  0  0.971893  0  0  0.182984  0  0.972316  0  0.066753  0  0.110877  0.180235  0  0.971641  0
H  H44  1  0.11389950  0.12295244  0.54307425  1  0  0.161875  0  0.941961  0  0  0.175316  0  1.006591  0  0  0.178174  0  1.004492  0  0.140716  0  0.108433  0.173146  0  1.008228  0
H  H45  1  0.38610092  0.12295244  0.45692636  1  0  0.161877  0  0.94196  0  0  0.175308  0  1.006592  0  0  0.178165  0  1.004493  0  0.140621  0  0.10844  0.173137  0  1.00823  0
H  H46  1  0.11389822  0.37704903  0.95692759  1  0  0.161934  0  0.941965  0  0  0.175349  0  1.006598  0  0  0.178206  0  1.004499  0  0.140621  0  0.108486  0.173179  0  1.008233  0
H  H47  1  0.38610349  0.37704903  0.04307302  1  0  0.161906  0  0.941965  0  0  0.175337  0  1.006576  0  0  0.178195  0  1.004477  0  0.140745  0  0.108465  0.173167  0  1.008214  0
H  H48  1  0.88610135  0.87704716  0.45692636  1  0  0.161897  0  0.941929  0  0  0.175325  0  1.006575  0  0  0.178184  0  1.004475  0  0.140722  0  0.108434  0.173154  0  1.008213  0
H  H49  1  0.61389865  0.87704716  0.54307364  1  0  0.161916  0  0.941906  0  0  0.175349  0  1.006549  0  0  0.178207  0  1.004449  0  0.140632  0  0.108447  0.173177  0  1.008186  0
H  H50  1  0.88610135  0.62295307  0.04307302  1  0  0.161915  0  0.941941  0  0  0.175348  0  1.00657  0  0  0.178206  0  1.004471  0  0.140722  0  0.108457  0.173176  0  1.008208  0
H  H51  1  0.61389993  0.62295307  0.95692698  1  0  0.16189  0  0.941947  0  0  0.175325  0  1.006583  0  0  0.178183  0  1.004484  0  0.140609  0  0.108448  0.173153  0  1.008222  0
H  H52  1  0.89881799  0.16772202  0.52248138  1  0  0.168487  0  0.942945  0  0  0.183847  0  1.001153  0  0  0.18622  0  1.000205  0  0.122187  0  0.108587  0.182033  0  1.001959  0
H  H53  1  0.60118201  0.16772119  0.47751862  1  0  0.168463  0  0.942929  0  0  0.183811  0  1.001152  0  0  0.186184  0  1.000202  0  0.122079  0  0.108572  0.181996  0  1.001958  0
H  H54  1  0.89881799  0.33227861  0.97751984  1  0  0.168498  0  0.942961  0  0  0.183848  0  1.001165  0  0  0.186221  0  1.000216  0  0.122184  0  0.108579  0.182034  0  1.001971  0
H  H55  1  0.60118458  0.33227861  0.02248016  1  0  0.168505  0  0.942935  0  0  0.183854  0  1.001143  0  0  0.186227  0  1.000193  0  0.122038  0  0.108583  0.18204  0  1.001948  0
H  H56  1  0.10118287  0.83227841  0.47751923  1  0  0.168513  0  0.942919  0  0  0.183869  0  1.001125  0  0  0.186242  0  1.000176  0  0.122054  0  0.108586  0.182055  0  1.00193  0
H  H57  1  0.39881756  0.83227841  0.52248077  1  0  0.16853  0  0.942993  0  0  0.18389  0  1.001189  0  0  0.186263  0  1.000241  0  0.122188  0  0.108608  0.182077  0  1.001994  0
H  H58  1  0.10118287  0.66772182  0.02248077  1  0  0.168542  0  0.942982  0  0  0.183898  0  1.00118  0  0  0.18627  0  1.000232  0  0.122042  0  0.108601  0.182083  0  1.001986  0
H  H59  1  0.39881884  0.66772265  0.97751923  1  0  0.168515  0  0.942975  0  0  0.183882  0  1.001165  0  0  0.186255  0  1.000217  0  0.122181  0  0.108617  0.182069  0  1.001968  0
C  C60  1  0.32808408  0.37911199  0.56116070  1  0  0.169171  0  3.667664  0  0  0.158924  0  3.92946  0  0  0.167981  0  3.941576  0  0.381552  0  0.100501  0.152814  0  3.921381  0
C  C61  1  0.17191763  0.37911115  0.43884174  1  0  0.169205  0  3.667779  0  0  0.158919  0  3.929607  0  0  0.16798  0  3.941717  0  0.381519  0  0.100507  0.152809  0  3.921528  0
C  C62  1  0.32808280  0.12088614  0.93883991  1  0  0.169367  0  3.667474  0  0  0.158969  0  3.92945  0  0  0.168023  0  3.941571  0  0.381539  0  0.100495  0.152855  0  3.921368  0
C  C63  1  0.17191507  0.12088697  0.06115887  1  0  0.169217  0  3.667755  0  0  0.158958  0  3.929546  0  0  0.168031  0  3.941643  0  0.381569  0  0.100464  0.152843  0  3.921463  0
C  C64  1  0.67191550  0.62088844  0.43883930  1  0  0.169124  0  3.667698  0  0  0.158892  0  3.929477  0  0  0.167956  0  3.941582  0  0.381541  0  0.100491  0.152784  0  3.921395  0
C  C65  1  0.82808322  0.62088928  0.56115826  1  0  0.169191  0  3.667794  0  0  0.158901  0  3.92962  0  0  0.167963  0  3.94173  0  0.381501  0  0.100498  0.152791  0  3.921541  0
C  C66  1  0.67191550  0.87911429  0.06115887  1  0  0.169204  0  3.667729  0  0  0.158894  0  3.929593  0  0  0.167964  0  3.941696  0  0.381561  0  0.100457  0.15278  0  3.92151  0
C  C67  1  0.82808194  0.87911346  0.93884052  1  0  0.169276  0  3.667605  0  0  0.158944  0  3.929497  0  0  0.168003  0  3.941611  0  0.381552  0  0.100482  0.15283  0  3.921415  0
C  C68  1  0.32953338  0.49248294  0.56392233  1  0  -0.256506  0  3.647884  0  0  -0.289402  0  3.903072  0  0  -0.300572  0  3.918944  0  0.072414  0  -0.095755  -0.282141  0  3.892528  0
C  C69  1  0.17046705  0.49248210  0.43607889  1  0  -0.25652  0  3.64804  0  0  -0.289384  0  3.903222  0  0  -0.300557  0  3.919095  0  0.072393  0  -0.09574  -0.282126  0  3.892678  0
C  C70  1  0.32953210  0.00751602  0.93607889  1  0  -0.256567  0  3.647877  0  0  -0.289415  0  3.903111  0  0  -0.300586  0  3.918985  0  0.072399  0  -0.095683  -0.282154  0  3.89257  0
C  C71  1  0.17046705  0.00751602  0.06392111  1  0  -0.256624  0  3.647946  0  0  -0.289523  0  3.903128  0  0  -0.300701  0  3.918997  0  0.07239  0  -0.095718  -0.282261  0  3.892586  0
C  C72  1  0.67046620  0.50751749  0.43607828  1  0  -0.256435  0  3.647822  0  0  -0.289334  0  3.902985  0  0  -0.300505  0  3.918855  0  0.072401  0  -0.095703  -0.282078  0  3.892438  0
C  C73  1  0.82953252  0.50751833  0.56392111  1  0  -0.256541  0  3.648  0  0  -0.289412  0  3.903169  0  0  -0.300584  0  3.919041  0  0.072412  0  -0.095748  -0.282156  0  3.892628  0
C  C74  1  0.67046620  0.99248441  0.06392111  1  0  -0.256578  0  3.64792  0  0  -0.289443  0  3.903118  0  0  -0.300618  0  3.918989  0  0.072367  0  -0.095715  -0.282182  0  3.892577  0
C  C75  1  0.82953252  0.99248357  0.93607889  1  0  -0.256578  0  3.647912  0  0  -0.289455  0  3.90312  0  0  -0.300627  0  3.918991  0  0.072384  0  -0.095692  -0.282195  0  3.892579  0
C  C76  1  0.25000021  0.55908566  0.50000000  1  0  0.453384  0  3.88167  0  0  0.441332  0  4.154037  0  0  0.466064  0  4.156736  0  0.861254  0  0.121559  0.425018  0  4.151417  0
C  C77  1  0.25000021  0.94091290  0.00000000  1  0  0.453382  0  3.881689  0  0  0.441375  0  4.153989  0  0  0.466107  0  4.156689  0  0.861234  0  0.121523  0.425059  0  4.151373  0
C  C78  1  0.74999936  0.44091477  0.50000000  1  0  0.453393  0  3.881552  0  0  0.441366  0  4.153862  0  0  0.466096  0  4.156562  0  0.861251  0  0.121525  0.425053  0  4.15124  0
C  C79  1  0.74999936  0.05908669  0.99999939  1  0  0.453363  0  3.8817  0  0  0.441349  0  4.15401  0  0  0.46608  0  4.156709  0  0.861239  0  0.121507  0.425033  0  4.151391  0
C  C80  1  0.09247553  0.07618337  0.71617475  1  0  -0.429343  0  3.559171  0  0  -0.499885  0  3.803514  0  0  -0.503287  0  3.808139  0  -0.265313  0  -0.236927  -0.497295  0  3.800496  0
C  C81  1  0.40752361  0.07618337  0.28382525  1  0  -0.42933  0  3.559192  0  0  -0.499922  0  3.803538  0  0  -0.503323  0  3.808163  0  -0.265271  0  -0.236928  -0.49733  0  3.800519  0
C  C82  1  0.09247681  0.42381726  0.78382647  1  0  -0.429273  0  3.559235  0  0  -0.499844  0  3.803604  0  0  -0.503247  0  3.80823  0  -0.265152  0  -0.236901  -0.497252  0  3.800584  0
C  C83  1  0.40752490  0.42381559  0.21617353  1  0  -0.42928  0  3.559197  0  0  -0.499807  0  3.803564  0  0  -0.503209  0  3.808187  0  -0.265296  0  -0.236868  -0.497216  0  3.800543  0
C  C84  1  0.90752276  0.92381622  0.28382525  1  0  -0.429272  0  3.559205  0  0  -0.499865  0  3.803561  0  0  -0.503266  0  3.808186  0  -0.26526  0  -0.23692  -0.497273  0  3.800543  0
C  C85  1  0.59247596  0.92381622  0.71617475  1  0  -0.429302  0  3.559235  0  0  -0.499894  0  3.803589  0  0  -0.503295  0  3.808215  0  -0.26527  0  -0.236921  -0.497301  0  3.80057  0
C  C86  1  0.90752533  0.57618317  0.21617414  1  0  -0.429251  0  3.559279  0  0  -0.499858  0  3.803613  0  0  -0.503261  0  3.808238  0  -0.265302  0  -0.236887  -0.497263  0  3.80059  0
C  C87  1  0.59247724  0.57618401  0.78382586  1  0  -0.4293  0  3.559222  0  0  -0.499916  0  3.803605  0  0  -0.503318  0  3.808228  0  -0.265169  0  -0.236914  -0.497324  0  3.800587  0
C  C88  1  0.97962089  0.11656812  0.56239101  1  0  -0.42567  0  3.543532  0  0  -0.495594  0  3.78834  0  0  -0.499061  0  3.792336  0  -0.221681  0  -0.227993  -0.492946  0  3.785761  0
C  C89  1  0.52037911  0.11656729  0.43760899  1  0  -0.425653  0  3.543537  0  0  -0.495525  0  3.78829  0  0  -0.498992  0  3.792288  0  -0.221685  0  -0.227982  -0.492876  0  3.785709  0
C  C90  1  0.97961961  0.38343335  0.93761021  1  0  -0.425802  0  3.543633  0  0  -0.495665  0  3.788392  0  0  -0.49913  0  3.792386  0  -0.221624  0  -0.228032  -0.493016  0  3.785813  0
C  C91  1  0.52038168  0.38343418  0.06239040  1  0  -0.425755  0  3.543553  0  0  -0.495618  0  3.788325  0  0  -0.499083  0  3.792316  0  -0.221625  0  -0.228015  -0.492971  0  3.785745  0
C  C92  1  0.02037868  0.88343231  0.43760899  1  0  -0.425767  0  3.543498  0  0  -0.495667  0  3.788278  0  0  -0.499136  0  3.792274  0  -0.221683  0  -0.228017  -0.493017  0  3.785698  0
C  C93  1  0.47961918  0.88343231  0.56239101  1  0  -0.42582  0  3.543598  0  0  -0.495728  0  3.788382  0  0  -0.499198  0  3.792377  0  -0.221674  0  -0.22807  -0.493078  0  3.785802  0
C  C94  1  0.02037996  0.61656792  0.06239040  1  0  -0.425821  0  3.543573  0  0  -0.495714  0  3.788345  0  0  -0.499181  0  3.792339  0  -0.221672  0  -0.228044  -0.493065  0  3.785766  0
C  C95  1  0.47962175  0.61656875  0.93760960  1  0  -0.425771  0  3.543554  0  0  -0.495676  0  3.788319  0  0  -0.499145  0  3.792315  0  -0.221675  0  -0.228044  -0.493026  0  3.78574  0
C  C96  1  0.41021957  0.30242582  0.62303395  1  0  0.594851  0  3.976733  0  0  0.544492  0  4.274775  0  0  0.577195  0  4.26732  0  1.641409  0  0.201352  0.522296  0  4.279092  0
C  C97  1  0.08978086  0.30242498  0.37696910  1  0  0.59496  0  3.976711  0  0  0.544601  0  4.274761  0  0  0.577303  0  4.267303  0  1.64146  0  0.201396  0.522407  0  4.279081  0
C  C98  1  0.41021957  0.19757231  0.87696727  1  0  0.594938  0  3.976839  0  0  0.544642  0  4.274838  0  0  0.577345  0  4.267382  0  1.641393  0  0.201445  0.522448  0  4.279155  0
C  C99  1  0.08977958  0.19757398  0.12303151  1  0  0.594841  0  3.976856  0  0  0.544486  0  4.274892  0  0  0.577183  0  4.267439  0  1.641476  0  0.2014  0.522293  0  4.279209  0
C  C100  1  0.58978001  0.69757545  0.37696727  1  0  0.594957  0  3.976718  0  0  0.544581  0  4.274772  0  0  0.577282  0  4.267317  0  1.641465  0  0.20142  0.522385  0  4.279091  0
C  C101  1  0.91021871  0.69757545  0.62303090  1  0  0.594952  0  3.976685  0  0  0.544608  0  4.274726  0  0  0.57731  0  4.267268  0  1.641452  0  0.20143  0.522414  0  4.279045  0
C  C102  1  0.58978001  0.80242812  0.12303212  1  0  0.595015  0  3.976607  0  0  0.544656  0  4.274677  0  0  0.577354  0  4.267222  0  1.641394  0  0.201469  0.522462  0  4.278995  0
C  C103  1  0.91022000  0.80242729  0.87696788  1  0  0.594886  0  3.976816  0  0  0.544554  0  4.274849  0  0  0.577256  0  4.267394  0  1.641397  0  0.201408  0.522361  0  4.279167  0
S  S104  1  0.96472903  0.17551534  0.66216144  1  0  0.693671  0  3.590382  0  0  0.6639  0  4.0349  0  0  0.679744  0  4.031807  0  1.116555  0  0.288677  0.65251  0  4.037042  0
S  S105  1  0.53527098  0.17551534  0.33783856  1  0  0.693702  0  3.590363  0  0  0.663917  0  4.034887  0  0  0.679761  0  4.031793  0  1.116562  0  0.288689  0.652526  0  4.037027  0
S  S106  1  0.96473031  0.32448446  0.83783979  1  0  0.693764  0  3.590377  0  0  0.663985  0  4.034872  0  0  0.679831  0  4.03178  0  1.116848  0  0.288709  0.652594  0  4.037016  0
S  S107  1  0.53527226  0.32448363  0.16216021  1  0  0.693665  0  3.590329  0  0  0.663888  0  4.034827  0  0  0.679741  0  4.031736  0  1.116905  0  0.288663  0.652498  0  4.03697  0
S  S108  1  0.03527055  0.82448342  0.33783856  1  0  0.693712  0  3.590316  0  0  0.663934  0  4.034825  0  0  0.679779  0  4.031732  0  1.116585  0  0.288712  0.652543  0  4.036965  0
S  S109  1  0.46472860  0.82448342  0.66216083  1  0  0.693751  0  3.590348  0  0  0.663976  0  4.034864  0  0  0.679821  0  4.03177  0  1.116937  0  0.288723  0.652585  0  4.037005  0
S  S110  1  0.03527055  0.67551597  0.16216083  1  0  0.69368  0  3.590308  0  0  0.66391  0  4.034839  0  0  0.679762  0  4.031748  0  1.11695  0  0.288685  0.652518  0  4.036979  0
S  S111  1  0.46473116  0.67551680  0.83783917  1  0  0.693781  0  3.590321  0  0  0.664025  0  4.034834  0  0  0.679875  0  4.03174  0  1.116459  0  0.288741  0.652632  0  4.036977  0
O  O112  1  0.25000021  0.32152365  0.50000122  1  0  -0.187477  0  2.498235  0  0  -0.115376  0  2.717044  0  0  -0.135165  0  2.725586  0  -1.085022  0  -0.09604  -0.102105  0  2.711229  0
O  O113  1  0.24999765  0.17847447  0.99999878  1  0  -0.187528  0  2.498159  0  0  -0.115389  0  2.717  0  0  -0.135182  0  2.725541  0  -1.085006  0  -0.096059  -0.10211  0  2.711179  0
O  O114  1  0.74999936  0.67847594  0.49999878  1  0  -0.187473  0  2.498269  0  0  -0.115378  0  2.717075  0  0  -0.13517  0  2.725613  0  -1.085025  0  -0.096048  -0.102108  0  2.711259  0
O  O115  1  0.74999808  0.82152512  0.99999939  1  0  -0.187483  0  2.4982  0  0  -0.115342  0  2.717032  0  0  -0.135136  0  2.72557  0  -1.085031  0  -0.096022  -0.102062  0  2.711208  0
O  O116  1  0.25000150  0.66367357  0.50000000  1  0  -0.519506  0  1.874064  0  0  -0.484858  0  2.082906  0  0  -0.502435  0  2.076867  0  -1.09526  0  -0.303063  -0.472511  0  2.086555  0
O  O117  1  0.25000021  0.83632582  0.00000061  1  0  -0.519516  0  1.874032  0  0  -0.484883  0  2.082844  0  0  -0.502457  0  2.076804  0  -1.095288  0  -0.3031  -0.472536  0  2.086495  0
O  O118  1  0.74999808  0.33632686  0.50000000  1  0  -0.519549  0  1.873983  0  0  -0.484906  0  2.082806  0  0  -0.502485  0  2.076769  0  -1.095245  0  -0.303071  -0.472558  0  2.086453  0
O  O119  1  0.75000064  0.16367378  0.99999939  1  0  -0.519519  0  1.874072  0  0  -0.484869  0  2.082876  0  0  -0.502447  0  2.076838  0  -1.095287  0  -0.30308  -0.472523  0  2.086526  0
O  O120  1  0.77946758  0.14857909  0.68881976  1  0  -0.672939  0  2.023427  0  0  -0.587964  0  2.315697  0  0  -0.613325  0  2.301202  0  -1.231536  0  -0.356336  -0.570031  0  2.325284  0
O  O121  1  0.72053242  0.14857909  0.31117963  1  0  -0.672956  0  2.023442  0  0  -0.587975  0  2.315712  0  0  -0.613337  0  2.301215  0  -1.231535  0  -0.356337  -0.570042  0  2.325298  0
O  O122  1  0.77946887  0.35141988  0.81118024  1  0  -0.672964  0  2.023485  0  0  -0.587977  0  2.315732  0  0  -0.613341  0  2.301241  0  -1.231547  0  -0.356347  -0.570045  0  2.325321  0
O  O123  1  0.72053370  0.35141988  0.18882037  1  0  -0.672943  0  2.023411  0  0  -0.587975  0  2.315696  0  0  -0.613355  0  2.301212  0  -1.231531  0  -0.35635  -0.570045  0  2.325285  0
O  O124  1  0.22053071  0.85142134  0.31117963  1  0  -0.672939  0  2.023465  0  0  -0.587928  0  2.315679  0  0  -0.613292  0  2.301186  0  -1.231461  0  -0.356324  -0.569997  0  2.325266  0
O  O125  1  0.27946844  0.85142051  0.68882037  1  0  -0.672945  0  2.023438  0  0  -0.587956  0  2.315685  0  0  -0.613317  0  2.301189  0  -1.231525  0  -0.356329  -0.570022  0  2.325272  0
O  O126  1  0.22053327  0.64857972  0.18881976  1  0  -0.672911  0  2.023419  0  0  -0.587948  0  2.315696  0  0  -0.613324  0  2.301213  0  -1.23152  0  -0.356335  -0.570014  0  2.325283  0
O  O127  1  0.27946972  0.64857972  0.81118024  1  0  -0.672997  0  2.023508  0  0  -0.588015  0  2.315748  0  0  -0.613389  0  2.301259  0  -1.231441  0  -0.356381  -0.570083  0  2.325336  0
O  O128  1  0.50314913  0.35403741  0.67637868  1  0  -0.634572  0  2.056384  0  0  -0.561006  0  2.326299  0  0  -0.591258  0  2.312498  0  -1.152197  0  -0.320817  -0.539753  0  2.3351  0
O  O129  1  0.99685344  0.35403491  0.32362315  1  0  -0.634738  0  2.056406  0  0  -0.561185  0  2.32636  0  0  -0.591435  0  2.312549  0  -1.152166  0  -0.320911  -0.539932  0  2.335166  0
O  O130  1  0.50314913  0.14596155  0.82362254  1  0  -0.634665  0  2.05655  0  0  -0.56111  0  2.32645  0  0  -0.591361  0  2.312645  0  -1.152187  0  -0.320863  -0.539857  0  2.335253  0
O  O131  1  0.99685216  0.14596322  0.17637746  1  0  -0.634617  0  2.05649  0  0  -0.56106  0  2.326428  0  0  -0.591311  0  2.312626  0  -1.15223  0  -0.320881  -0.539807  0  2.33523  0
O  O132  1  0.49685173  0.64596385  0.32362132  1  0  -0.634655  0  2.056413  0  0  -0.561093  0  2.326348  0  0  -0.591345  0  2.312545  0  -1.152232  0  -0.320881  -0.539839  0  2.335152  0
O  O133  1  0.00314485  0.64596469  0.67637746  1  0  -0.634729  0  2.056406  0  0  -0.561191  0  2.326352  0  0  -0.591442  0  2.312543  0  -1.152158  0  -0.32092  -0.539938  0  2.335158  0
O  O134  1  0.49685173  0.85403805  0.17637746  1  0  -0.63469  0  2.056487  0  0  -0.561116  0  2.326407  0  0  -0.591367  0  2.312606  0  -1.152197  0  -0.320901  -0.539865  0  2.335211  0
O  O135  1  0.00314742  0.85403721  0.82362254  1  0  -0.634655  0  2.05652  0  0  -0.561104  0  2.326456  0  0  -0.591355  0  2.312653  0  -1.152179  0  -0.320883  -0.539851  0  2.335259  0
O  O136  1  0.38415014  0.19986578  0.61913848  1  0  -0.584728  0  1.945617  0  0  -0.545389  0  2.175892  0  0  -0.56612  0  2.166659  0  -1.169557  0  -0.308585  -0.530834  0  2.181778  0
O  O137  1  0.11584900  0.19986495  0.38086396  1  0  -0.584695  0  1.945662  0  0  -0.545339  0  2.175919  0  0  -0.566071  0  2.166691  0  -1.169595  0  -0.308528  -0.530783  0  2.181802  0
O  O138  1  0.38415143  0.30013234  0.88086091  1  0  -0.584791  0  1.945644  0  0  -0.545455  0  2.175884  0  0  -0.566187  0  2.166654  0  -1.169519  0  -0.308625  -0.5309  0  2.18177  0
O  O139  1  0.11584900  0.30013401  0.11913543  1  0  -0.584696  0  1.945669  0  0  -0.545337  0  2.175917  0  0  -0.566069  0  2.166693  0  -1.169555  0  -0.308547  -0.530781  0  2.181798  0
O  O140  1  0.61584687  0.80013548  0.38086335  1  0  -0.584748  0  1.945613  0  0  -0.545398  0  2.175879  0  0  -0.566129  0  2.16665  0  -1.16957  0  -0.30859  -0.53084  0  2.18176  0
O  O141  1  0.88415185  0.80013548  0.61913543  1  0  -0.58469  0  1.945662  0  0  -0.545335  0  2.175906  0  0  -0.566069  0  2.166681  0  -1.169584  0  -0.308554  -0.530778  0  2.181786  0
O  O142  1  0.61584815  0.69986725  0.11913787  1  0  -0.584784  0  1.94547  0  0  -0.545431  0  2.175738  0  0  -0.566163  0  2.166513  0  -1.169494  0  -0.308608  -0.530876  0  2.181625  0
O  O143  1  0.88415314  0.69986642  0.88086274  1  0  -0.58471  0  1.945652  0  0  -0.545366  0  2.175902  0  0  -0.566097  0  2.166672  0  -1.169516  0  -0.30856  -0.530808  0  2.181782  0
