# generated using pymatgen
data_GdH6C7(NO4)2
_symmetry_space_group_name_H-M   'P 1'
_cell_length_a   6.14007190
_cell_length_b   7.19105769
_cell_length_c   13.21376042
_cell_angle_alpha   79.85437858
_cell_angle_beta   80.08150307
_cell_angle_gamma   58.95788102
_symmetry_Int_Tables_number   1
_chemical_formula_structural   GdH6C7(NO4)2
_chemical_formula_sum   'Gd2 H12 C14 N4 O16'
_cell_volume   489.76619797
_cell_formula_units_Z   2
loop_
 _symmetry_equiv_pos_site_id
 _symmetry_equiv_pos_as_xyz
  1  'x, y, z'
loop_
 _atom_site_type_symbol
 _atom_site_label
 _atom_site_symmetry_multiplicity
 _atom_site_fract_x
 _atom_site_fract_y
 _atom_site_fract_z
 _atom_site_occupancy
 _atom_site_pbe_bader_charge
 _atom_site_pbe_bader_spin_density
 _atom_site_pbe_cm5_charge
 _atom_site_pbe_ddec_charge
 _atom_site_pbe_ddec_spin_density
 _atom_site_pbe_ddec_sum_bond_order
 _atom_site_pbe_magmom
Gd  Gd0  1  0.81718805  0.61568859  0.22551774  1  2.171147  0  1.436576  1.932799  0  2.210192  0
Gd  Gd1  1  0.18281423  0.38431280  0.77447895  1  2.171165  0  1.436562  1.932846  0  2.210127  0
H  H2  1  0.34581558  0.04157791  0.03346662  1  0.152077  0  0.134447  0.10537  0  1.035374  0
H  H3  1  0.76901314  0.17871530  0.61023804  1  0.154124  0  0.130577  0.106505  0  1.014076  0
H  H4  1  0.71752818  0.92331801  0.38580095  1  0.659155  0  0.300348  0.40167  0  0.934354  0
H  H5  1  0.47159365  0.05485311  0.32445384  1  0.677281  0  0.313038  0.408738  0  0.903619  0
H  H6  1  0.50073641  0.41427827  0.22221822  1  0.673933  0  0.315358  0.409172  0  0.906946  0
H  H7  1  0.71704344  0.19394123  0.26691824  1  0.656471  0  0.304506  0.410106  0  0.905022  0
H  H8  1  0.65418157  0.95840996  0.96653200  1  0.151516  0  0.134472  0.10548  0  1.035379  0
H  H9  1  0.23099501  0.82132770  0.38976795  1  0.154515  0  0.130535  0.106478  0  1.014159  0
H  H10  1  0.28246536  0.07669438  0.61419760  1  0.659122  0  0.300326  0.401697  0  0.934336  0
H  H11  1  0.52841137  0.94515697  0.67553578  1  0.67705  0  0.313035  0.408757  0  0.90365  0
H  H12  1  0.49928099  0.58568611  0.77776827  1  0.663065  0  0.315349  0.409179  0  0.906961  0
H  H13  1  0.28298418  0.80605185  0.73308326  1  0.656432  0  0.304472  0.410091  0  0.905034  0
C  C14  1  0.21241316  0.81313474  0.19129325  1  1.62116  0  0.241186  0.604211  0  4.161326  0
C  C15  1  0.09119775  0.91994278  0.09223725  1  0.534727  0  0.141503  0.092021  0  3.914058  0
C  C16  1  0.19289829  0.02266806  0.01605036  1  0.537269  0  0.082593  0.091501  0  3.855  0
C  C17  1  0.03298832  0.26863570  0.43385580  1  1.619901  0  0.21923  0.561528  0  4.23794  0
C  C18  1  0.75162797  0.39153454  0.47002638  1  0.496845  0  0.130336  0.078165  0  3.929414  0
C  C19  1  0.64860243  0.32229343  0.56118896  1  0.557481  0  0.077752  0.097183  0  3.873656  0
C  C20  1  0.14000066  0.44221019  0.01342836  1  1.595282  0  0.203051  0.474076  0  4.283657  0
C  C21  1  0.78758735  0.18685939  0.80871018  1  1.621092  0  0.241229  0.60436  0  4.1612  0
C  C22  1  0.90880716  0.08003568  0.90776392  1  0.535031  0  0.141369  0.091837  0  3.914144  0
C  C23  1  0.80710848  0.97730666  0.98394976  1  0.537484  0  0.082616  0.091442  0  3.855377  0
C  C24  1  0.96700757  0.73137821  0.56614768  1  1.619446  0  0.219153  0.561357  0  4.238083  0
C  C25  1  0.24837466  0.60849327  0.52997189  1  0.497384  0  0.130241  0.07802  0  3.929695  0
C  C26  1  0.35140285  0.67774555  0.43881411  1  0.556938  0  0.077861  0.097371  0  3.873763  0
C  C27  1  0.85999081  0.55776880  0.98657147  1  1.571477  0  0.203186  0.474195  0  4.283657  0
N  N28  1  0.89730231  0.89596971  0.07643563  1  -1.214218  0  -0.314693  -0.280693  0  3.411007  0
N  N29  1  0.60170961  0.56858046  0.40885341  1  -1.21504  0  -0.346981  -0.309249  0  3.495257  0
N  N30  1  0.10270256  0.10400545  0.92356534  1  -1.214248  0  -0.314733  -0.280706  0  3.410782  0
N  N31  1  0.39829967  0.43144721  0.59114591  1  -1.214824  0  -0.347015  -0.309232  0  3.495316  0
O  O32  1  0.15259418  0.67791741  0.24492241  1  -1.173458  0  -0.366338  -0.618262  0  2.340246  0
O  O33  1  0.37439536  0.85507516  0.21316961  1  -1.174975  0  -0.376111  -0.610279  0  2.30473  0
O  O34  1  0.09462161  0.31554665  0.33888105  1  -1.175512  0  -0.377212  -0.617339  0  2.240835  0
O  O35  1  0.18677334  0.12830147  0.49587000  1  -1.184954  0  -0.303754  -0.537521  0  2.203124  0
O  O36  1  0.17506277  0.41459295  0.10789542  1  -1.166827  0  -0.373409  -0.576113  0  2.288386  0
O  O37  1  0.31061182  0.38059280  0.93846770  1  -1.167993  0  -0.361986  -0.58199  0  2.376848  0
O  O38  1  0.65923239  0.96144229  0.31494075  1  -1.305857  0  -0.589848  -0.818889  0  2.087888  0
O  O39  1  0.68274944  0.33919483  0.23284716  1  -1.316086  0  -0.620102  -0.822708  0  2.052002  0
O  O40  1  0.84739451  0.32208368  0.75508459  1  -1.173258  0  -0.366328  -0.618317  0  2.340196  0
O  O41  1  0.62560306  0.14492378  0.78682856  1  -1.175058  0  -0.376108  -0.610336  0  2.30468  0
O  O42  1  0.90536895  0.68444767  0.66112083  1  -1.1755  0  -0.377258  -0.617351  0  2.240708  0
O  O43  1  0.81321367  0.87171656  0.50413883  1  -1.185075  0  -0.303658  -0.537378  0  2.203251  0
O  O44  1  0.82491960  0.58539124  0.89210346  1  -1.167091  0  -0.373364  -0.576031  0  2.288398  0
O  O45  1  0.68938293  0.61938282  0.06153244  1  -1.167755  0  -0.362099  -0.582122  0  2.37685  0
O  O46  1  0.34077286  0.03856670  0.68505517  1  -1.305629  0  -0.589845  -0.818953  0  2.087744  0
O  O47  1  0.31725481  0.66080531  0.76715572  1  -1.305211  0  -0.620068  -0.822688  0  2.052017  0
