# generated using pymatgen
data_ZnH10C15SNO7
_symmetry_space_group_name_H-M   'P 1'
_cell_length_a   11.06836695
_cell_length_b   13.94868611
_cell_length_c   15.26543859
_cell_angle_alpha   89.99954985
_cell_angle_beta   89.92800735
_cell_angle_gamma   90.00135012
_symmetry_Int_Tables_number   1
_chemical_formula_structural   ZnH10C15SNO7
_chemical_formula_sum   'Zn2 H20 C30 S2 N2 O14'
_cell_volume   2356.81662993
_cell_formula_units_Z   2
loop_
 _symmetry_equiv_pos_site_id
 _symmetry_equiv_pos_as_xyz
  1  'x, y, z'
loop_
 _atom_site_type_symbol
 _atom_site_label
 _atom_site_symmetry_multiplicity
 _atom_site_fract_x
 _atom_site_fract_y
 _atom_site_fract_z
 _atom_site_occupancy
 _atom_site_pbe_bader_charge
 _atom_site_pbe_bader_spin_density
 _atom_site_pbe_cm5_charge
 _atom_site_pbe_ddec_charge
 _atom_site_pbe_ddec_spin_density
 _atom_site_pbe_ddec_sum_bond_order
 _atom_site_pbe_magmom
Zn  Zn0  1  0.50000343  0.40076403  0.49999977  1  1.291666  0  0.659316  0.810354  0  2.461597  0
Zn  Zn1  1  0.50000394  0.59636525  0.50000380  1  1.264187  0  0.663264  0.811146  0  2.451946  0
H  H2  1  0.88712325  0.63495097  0.50530405  1  0.112428  0  0.107088  0.106138  0  0.98216  0
H  H3  1  0.48022844  0.35985888  0.77371388  1  0.09882  0  0.10128  0.104454  0  1.00468  0
H  H4  1  0.41929536  0.65684392  0.21812668  1  0.094913  0  0.102821  0.106587  0  1.000051  0
H  H5  1  0.58074469  0.65683847  0.78187663  1  0.095396  0  0.102854  0.106637  0  1.000273  0
H  H6  1  0.43481757  0.65542043  0.05590495  1  0.055613  0  0.101591  0.100086  0  1.005498  0
H  H7  1  0.56524774  0.65541652  0.94409115  1  0.05511  0  0.101674  0.100275  0  1.005467  0
H  H8  1  0.37331259  0.75104057  0.40024311  1  0.190209  0  0.143546  0.130875  0  0.973999  0
H  H9  1  0.62669446  0.75106960  0.59977280  1  0.189989  0  0.143569  0.130961  0  0.973953  0
H  H10  1  0.63819479  0.06750389  0.39971427  1  0.102243  0  0.124829  0.142888  0  0.959307  0
H  H11  1  0.36178425  0.06749687  0.60027602  1  0.102093  0  0.12479  0.142879  0  0.959261  0
H  H12  1  0.26321692  0.07332087  0.42825455  1  0.649644  0  0.347479  0.401984  0  0.847995  0
H  H13  1  0.11290363  0.63493589  0.49468499  1  0.112216  0  0.107082  0.106191  0  0.982024  0
H  H14  1  0.73677309  0.07333977  0.57177238  1  0.65015  0  0.347455  0.401946  0  0.847897  0
H  H15  1  0.63496848  0.24817173  0.40643133  1  0.159713  0  0.135961  0.116512  0  0.963257  0
H  H16  1  0.36503384  0.24816844  0.59355465  1  0.159721  0  0.135946  0.116483  0  0.963311  0
H  H17  1  0.90995372  0.42020506  0.46186215  1  0.088943  0  0.103417  0.118177  0  0.998315  0
H  H18  1  0.09004816  0.42022200  0.53817265  1  0.088807  0  0.103513  0.118273  0  0.998719  0
H  H19  1  0.54418883  0.35886824  0.06445976  1  0.063643  0  0.100549  0.098613  0  1.008309  0
H  H20  1  0.45582425  0.35886770  0.93554000  1  0.049221  0  0.100553  0.098618  0  1.008172  0
H  H21  1  0.51976569  0.35985789  0.22628982  1  0.09878  0  0.101271  0.104357  0  1.00467  0
C  C22  1  0.46650134  0.50983646  0.33022770  1  1.56979  0  0.213955  0.596225  0  4.164786  0
C  C23  1  0.57801741  0.10474304  0.44476836  1  -0.054002  0  -0.077132  -0.178263  0  3.965328  0
C  C24  1  0.42199413  0.10473283  0.55523807  1  -0.054447  0  -0.077184  -0.178375  0  3.965754  0
C  C25  1  0.57562000  0.20445491  0.44717530  1  0.516498  0  0.068482  0.112469  0  3.895892  0
C  C26  1  0.42438760  0.20445696  0.55282468  1  0.516816  0  0.068553  0.112577  0  3.89622  0
C  C27  1  0.49999478  0.05369980  0.50000468  1  0.020056  0  0.001738  0.068544  0  4.048662  0
C  C28  1  0.26585522  0.49020841  0.52499021  1  1.581712  0  0.205607  0.63386  0  4.185997  0
C  C29  1  0.73415104  0.49020818  0.47502650  1  1.58193  0  0.205459  0.633731  0  4.187232  0
C  C30  1  0.93476491  0.56708064  0.49572181  1  -0.079126  0  -0.072676  -0.025878  0  3.987722  0
C  C31  1  0.06526125  0.56708017  0.50430233  1  -0.007193  0  -0.072917  -0.026074  0  3.988077  0
C  C32  1  0.86776323  0.48934221  0.47556993  1  -0.100881  0  -0.09289  -0.225631  0  3.889972  0
C  C33  1  0.53349546  0.50982898  0.66976992  1  1.569474  0  0.213914  0.596168  0  4.16486  0
C  C34  1  0.13221680  0.48934160  0.52447105  1  -0.10106  0  -0.092955  -0.225692  0  3.890275  0
C  C35  1  0.51412849  0.42396991  0.09749897  1  -0.088291  0  -0.093088  -0.136588  0  3.992496  0
C  C36  1  0.48588795  0.42397470  0.90249519  1  -0.075552  0  -0.093075  -0.136359  0  3.992208  0
C  C37  1  0.50183115  0.42427399  0.18809967  1  -0.041709  0  -0.085907  -0.086887  0  3.996691  0
C  C38  1  0.49817265  0.42427139  0.81189253  1  -0.041919  0  -0.086004  -0.087159  0  3.996723  0
C  C39  1  0.46934702  0.50846699  0.23239807  1  0.005183  0  -0.02051  -0.036969  0  3.97368  0
C  C40  1  0.53069312  0.50845770  0.76759625  1  0.006029  0  -0.020524  -0.036939  0  3.97387  0
C  C41  1  0.44587593  0.59165833  0.18377533  1  -0.051076  0  -0.085016  -0.086475  0  3.989237  0
C  C42  1  0.55418426  0.59164762  0.81621720  1  -0.05214  0  -0.084907  -0.086544  0  3.989039  0
C  C43  1  0.45613961  0.59076851  0.09296193  1  -0.02438  0  -0.090407  -0.133991  0  3.984397  0
C  C44  1  0.49240589  0.50737564  0.04806263  1  -0.068603  0  -0.003663  0.073651  0  3.99762  0
C  C45  1  0.54391603  0.59076164  0.90703585  1  -0.023971  0  -0.090661  -0.134122  0  3.984232  0
C  C46  1  0.50763602  0.50737393  0.95194414  1  -0.016562  0  -0.003638  0.073224  0  3.997825  0
C  C47  1  0.42624073  0.89384076  0.44281601  1  -0.179369  0  -0.002131  -0.172899  0  3.890541  0
C  C48  1  0.57372454  0.89384540  0.55720699  1  -0.18077  0  -0.002232  -0.173023  0  3.890775  0
C  C49  1  0.42856272  0.79380699  0.44456624  1  0.607661  0  0.08855  0.121859  0  3.848192  0
C  C50  1  0.57140740  0.79381016  0.55546387  1  0.607982  0  0.088587  0.121783  0  3.848141  0
C  C51  1  0.49998372  0.94699038  0.50001659  1  -0.031672  0  0.035631  0.110123  0  3.930095  0
S  S52  1  0.33029630  0.94877934  0.36245115  1  3.103267  0  0.547729  1.154821  0  6.015676  0
S  S53  1  0.66965763  0.94879604  0.63756762  1  3.102838  0  0.547731  1.154576  0  6.016092  0
N  N54  1  0.49999668  0.74571838  0.50000994  1  -1.175617  0  -0.297725  -0.156149  0  3.464826  0
N  N55  1  0.50000708  0.25277374  0.50001197  1  -1.246764  0  -0.310533  -0.181347  0  3.503923  0
O  O56  1  0.47129067  0.42915846  0.36948299  1  -1.167015  0  -0.322326  -0.556891  0  2.326182  0
O  O57  1  0.26281070  0.87373302  0.32163792  1  -1.270674  0  -0.286  -0.481315  0  2.103199  0
O  O58  1  0.23501330  0.00691290  0.42238263  1  -1.205986  0  -0.355762  -0.527263  0  2.12523  0
O  O59  1  0.59935573  0.01697031  0.68662004  1  -1.284548  0  -0.304734  -0.522377  0  2.117113  0
O  O60  1  0.73715410  0.87376586  0.67838192  1  -1.270642  0  -0.286072  -0.481252  0  2.103481  0
O  O61  1  0.76497242  0.00693738  0.57766891  1  -1.206419  0  -0.355774  -0.527157  0  2.125694  0
O  O62  1  0.52871595  0.42914770  0.63051376  1  -1.167091  0  -0.322267  -0.55678  0  2.326177  0
O  O63  1  0.46247520  0.59154427  0.36786319  1  -1.167625  0  -0.322668  -0.55564  0  2.316741  0
O  O64  1  0.53752625  0.59154588  0.63214314  1  -1.167212  0  -0.322692  -0.555644  0  2.316623  0
O  O65  1  0.31683923  0.40782057  0.52489429  1  -1.165618  0  -0.329242  -0.564932  0  2.281394  0
O  O66  1  0.68317320  0.40782566  0.47511044  1  -1.165999  0  -0.32915  -0.56485  0  2.281785  0
O  O67  1  0.32034616  0.57080084  0.52363611  1  -1.172082  0  -0.32419  -0.558022  0  2.303866  0
O  O68  1  0.67967015  0.57079221  0.47636836  1  -1.172053  0  -0.324193  -0.557991  0  2.304077  0
O  O69  1  0.40054802  0.01696287  0.31338106  1  -1.284671  0  -0.30494  -0.522567  0  2.117421  0
