# generated using pymatgen
data_Zn4H32C54O13
_symmetry_space_group_name_H-M   'P 1'
_cell_length_a   21.65221919
_cell_length_b   21.65222301
_cell_length_c   34.71769646
_cell_angle_alpha   90.00003863
_cell_angle_beta   90.00013664
_cell_angle_gamma   90.00008232
_symmetry_Int_Tables_number   1
_chemical_formula_structural   Zn4H32C54O13
_chemical_formula_sum   'Zn8 H64 C108 O26'
_cell_volume   16276.30458001
_cell_formula_units_Z   2
loop_
 _symmetry_equiv_pos_site_id
 _symmetry_equiv_pos_as_xyz
  1  'x, y, z'
loop_
 _atom_site_type_symbol
 _atom_site_label
 _atom_site_symmetry_multiplicity
 _atom_site_fract_x
 _atom_site_fract_y
 _atom_site_fract_z
 _atom_site_occupancy
 _atom_site_pbe_bader_charge
 _atom_site_pbe_bader_spin_density
 _atom_site_pbe_cm5_charge
 _atom_site_pbe_ddec_charge
 _atom_site_pbe_ddec_spin_density
 _atom_site_pbe_ddec_sum_bond_order
 _atom_site_pbe_magmom
Zn  Zn0  1  0.55252165  0.55252151  0.03240331  1  1.311876  0  0.669063  0.962669  0  2.381399  0
Zn  Zn1  1  0.44747601  0.55252009  0.96759546  1  1.311871  0  0.669147  0.962777  0  2.38126  0
Zn  Zn2  1  0.44747553  0.44747910  0.03240206  1  1.312006  0  0.669126  0.962711  0  2.381256  0
Zn  Zn3  1  0.55252152  0.44748061  0.96759696  1  1.311941  0  0.669026  0.962611  0  2.381503  0
Zn  Zn4  1  0.44747867  0.44747749  0.46759683  1  1.311811  0  0.669116  0.962746  0  2.381177  0
Zn  Zn5  1  0.44747887  0.55252171  0.53240357  1  1.311964  0  0.669104  0.962745  0  2.381315  0
Zn  Zn6  1  0.55252064  0.55252313  0.46759635  1  1.311958  0  0.669031  0.962643  0  2.381478  0
Zn  Zn7  1  0.55252115  0.44747575  0.53240420  1  1.311969  0  0.669132  0.96284  0  2.381263  0
H  H8  1  0.25669417  0.43037496  0.04401328  1  0.102577  0  0.107311  0.112503  0  0.993118  0
H  H9  1  0.14148427  0.43009592  0.04412985  1  0.068518  0  0.101929  0.101772  0  1.000611  0
H  H10  1  0.25669417  0.56962397  0.95598626  1  0.102597  0  0.107317  0.112527  0  0.993097  0
H  H11  1  0.14148473  0.56990376  0.95587038  1  0.068514  0  0.101921  0.101774  0  1.000683  0
H  H12  1  0.05717504  0.50010670  0.93797857  1  0.065443  0  0.102501  0.101809  0  1.000118  0
H  H13  1  0.05717476  0.49989286  0.06202183  1  0.065326  0  0.102505  0.101786  0  1.000103  0
H  H14  1  0.74330352  0.56962521  0.04401310  1  0.102553  0  0.107313  0.112525  0  0.993064  0
H  H15  1  0.85851434  0.56990379  0.04413013  1  0.068345  0  0.101887  0.101712  0  1.000659  0
H  H16  1  0.74330377  0.43037349  0.95598630  1  0.102544  0  0.107324  0.112538  0  0.993  0
H  H17  1  0.85851460  0.43009461  0.95587031  1  0.068299  0  0.101909  0.101735  0  1.000608  0
H  H18  1  0.94282347  0.50010687  0.06202134  1  0.065453  0  0.102508  0.101752  0  1.000135  0
H  H19  1  0.94282329  0.49989258  0.93797807  1  0.065432  0  0.102491  0.101709  0  1.000141  0
H  H20  1  0.42997223  0.42996317  0.15145977  1  0.099419  0  0.107799  0.112798  0  0.992521  0
H  H21  1  0.42938074  0.42937574  0.22229050  1  0.057259  0  0.101385  0.099221  0  1.016844  0
H  H22  1  0.57003549  0.57002752  0.34853951  1  0.099536  0  0.107723  0.11264  0  0.992463  0
H  H23  1  0.57062236  0.57061818  0.27770906  1  0.057316  0  0.101404  0.099231  0  1.016905  0
H  H24  1  0.42996245  0.42997159  0.34853995  1  0.099469  0  0.10779  0.11269  0  0.992475  0
H  H25  1  0.42937623  0.42938085  0.27770922  1  0.068061  0  0.101371  0.099191  0  1.016898  0
H  H26  1  0.57002726  0.57003572  0.15145961  1  0.099573  0  0.107728  0.112551  0  0.992411  0
H  H27  1  0.57061810  0.57062277  0.22229064  1  0.068081  0  0.101397  0.099233  0  1.016793  0
H  H28  1  0.57002757  0.42996319  0.84853982  1  0.099525  0  0.107734  0.112619  0  0.992432  0
H  H29  1  0.57061721  0.42937568  0.77770879  1  0.057311  0  0.101398  0.099247  0  1.016804  0
H  H30  1  0.42996312  0.57002712  0.65145927  1  0.099509  0  0.107761  0.112625  0  0.992425  0
H  H31  1  0.42937579  0.57061740  0.72229087  1  0.068095  0  0.101393  0.099242  0  1.016828  0
H  H32  1  0.57003596  0.42997185  0.65145992  1  0.099505  0  0.107704  0.112592  0  0.992436  0
H  H33  1  0.57062218  0.42938073  0.72229037  1  0.068077  0  0.101394  0.099204  0  1.016958  0
H  H34  1  0.42997228  0.57003554  0.84853974  1  0.099543  0  0.107707  0.112623  0  0.992376  0
H  H35  1  0.42938005  0.57062204  0.77770872  1  0.057327  0  0.101433  0.099279  0  1.01683  0
H  H36  1  0.42965877  0.25670238  0.04356605  1  0.10382  0  0.107328  0.112357  0  0.993679  0
H  H37  1  0.42944439  0.14149158  0.04372646  1  0.063567  0  0.102126  0.101777  0  1.00046  0
H  H38  1  0.57034124  0.25670251  0.95643375  1  0.10383  0  0.10731  0.112273  0  0.993669  0
H  H39  1  0.57055592  0.14149125  0.95627300  1  0.063532  0  0.102137  0.1018  0  1.00053  0
H  H40  1  0.59944628  0.05719140  0.99993085  1  0.065261  0  0.102594  0.102249  0  0.998986  0
H  H41  1  0.40055344  0.05719118  0.00006886  1  0.06521  0  0.102595  0.102249  0  0.998941  0
H  H42  1  0.42965809  0.74329725  0.95643346  1  0.103789  0  0.107338  0.11234  0  0.993626  0
H  H43  1  0.42944434  0.85850944  0.95627276  1  0.063514  0  0.10211  0.101747  0  1.00053  0
H  H44  1  0.57034216  0.74329825  0.04356684  1  0.103791  0  0.107349  0.112389  0  0.993611  0
H  H45  1  0.57055469  0.85850997  0.04372672  1  0.063563  0  0.102127  0.101792  0  1.000433  0
H  H46  1  0.40055322  0.94280933  0.99993147  1  0.065198  0  0.102598  0.102256  0  0.998926  0
H  H47  1  0.59944639  0.94280940  0.00006833  1  0.065269  0  0.102607  0.102293  0  0.998904  0
H  H48  1  0.56962477  0.74330309  0.45598619  1  0.102549  0  0.107319  0.112555  0  0.993041  0
H  H49  1  0.56990473  0.85851389  0.45587014  1  0.068301  0  0.10192  0.101769  0  1.000616  0
H  H50  1  0.43037455  0.74330442  0.54401324  1  0.102553  0  0.107299  0.112495  0  0.993087  0
H  H51  1  0.43009521  0.85851430  0.54413021  1  0.068329  0  0.101879  0.101698  0  1.000635  0
H  H52  1  0.49989231  0.94282348  0.56202115  1  0.06544  0  0.102495  0.101725  0  1.000158  0
H  H53  1  0.50010730  0.94282342  0.43797836  1  0.065424  0  0.102486  0.101708  0  1.000169  0
H  H54  1  0.43037449  0.25669475  0.45598627  1  0.102566  0  0.107318  0.112524  0  0.992996  0
H  H55  1  0.43009453  0.14148441  0.45586988  1  0.068434  0  0.101925  0.10177  0  1.000595  0
H  H56  1  0.56962459  0.25669490  0.54401382  1  0.102591  0  0.107322  0.112538  0  0.99303  0
H  H57  1  0.56990439  0.14148410  0.54413016  1  0.068343  0  0.101925  0.101782  0  1.000637  0
H  H58  1  0.49989282  0.05717440  0.43797846  1  0.065436  0  0.102503  0.101789  0  1.000109  0
H  H59  1  0.50010643  0.05717493  0.56202126  1  0.065463  0  0.102516  0.101819  0  1.000118  0
H  H60  1  0.74329692  0.57034083  0.45643361  1  0.103836  0  0.107315  0.112288  0  0.993648  0
H  H61  1  0.85850866  0.57055521  0.45627297  1  0.063551  0  0.102128  0.101806  0  1.000472  0
H  H62  1  0.74329791  0.42965786  0.54356637  1  0.103788  0  0.107342  0.112383  0  0.99366  0
H  H63  1  0.85850919  0.42944365  0.54372718  1  0.063502  0  0.102102  0.10172  0  1.000522  0
H  H64  1  0.94280899  0.40055243  0.50006824  1  0.065207  0  0.102577  0.102242  0  0.998818  0
H  H65  1  0.94280913  0.59944702  0.49993117  1  0.065223  0  0.102585  0.102249  0  0.998861  0
H  H66  1  0.25670262  0.57034145  0.54356633  1  0.103806  0  0.107322  0.112302  0  0.993661  0
H  H67  1  0.14149133  0.57055613  0.54372697  1  0.063505  0  0.10213  0.1018  0  1.000541  0
H  H68  1  0.25670235  0.42965839  0.45643408  1  0.103814  0  0.107375  0.112443  0  0.993606  0
H  H69  1  0.14149107  0.42944447  0.45627356  1  0.063557  0  0.102111  0.101735  0  1.00045  0
H  H70  1  0.05719137  0.59944730  0.50006877  1  0.065255  0  0.102591  0.102247  0  0.998914  0
H  H71  1  0.05719169  0.40055272  0.49993134  1  0.065201  0  0.102606  0.102239  0  0.998913  0
C  C72  1  0.49999964  0.66749726  0.99999975  1  1.591865  0  0.225761  0.605565  0  4.168676  0
C  C73  1  0.33249468  0.49999832  0.00000064  1  1.592366  0  0.225787  0.605453  0  4.169265  0
C  C74  1  0.49999734  0.49999665  0.10399960  1  1.506393  0  0.225315  0.604434  0  4.170856  0
C  C75  1  0.49999801  0.33250302  0.99999997  1  1.591877  0  0.22577  0.605533  0  4.168455  0
C  C76  1  0.66750383  0.49999910  0.99999955  1  1.592375  0  0.22571  0.605442  0  4.168831  0
C  C77  1  0.49999978  0.50000077  0.89599858  1  1.506359  0  0.22534  0.604673  0  4.170514  0
C  C78  1  0.33250257  0.49999905  0.49999954  1  1.591912  0  0.225729  0.605491  0  4.168739  0
C  C79  1  0.49999822  0.66750391  0.50000028  1  1.592332  0  0.225692  0.605358  0  4.169334  0
C  C80  1  0.49999605  0.49999819  0.39599996  1  1.50634  0  0.225225  0.604193  0  4.170759  0
C  C81  1  0.66749779  0.49999791  0.50000008  1  1.591842  0  0.225833  0.605578  0  4.168609  0
C  C82  1  0.49999890  0.33249490  0.49999992  1  1.592382  0  0.225763  0.605539  0  4.169231  0
C  C83  1  0.49999830  0.50000108  0.60400052  1  1.506437  0  0.225329  0.604669  0  4.170303  0
C  C84  1  0.26361860  0.49999966  0.00000001  1  0.032861  0  -0.022555  -0.050296  0  3.98778  0
C  C85  1  0.23092082  0.46098148  0.02499185  1  -0.062885  0  -0.081759  -0.081457  0  3.984873  0
C  C86  1  0.16670754  0.46125485  0.02508541  1  -0.092301  0  -0.091648  -0.139875  0  3.989966  0
C  C87  1  0.23091992  0.53901879  0.97500852  1  -0.062862  0  -0.081747  -0.081444  0  3.984983  0
C  C88  1  0.16670756  0.53874625  0.97491429  1  -0.092362  0  -0.091647  -0.139899  0  3.990086  0
C  C89  1  0.13352478  0.50000049  0.99999992  1  0.073226  0  -0.001245  0.081576  0  4.003424  0
C  C90  1  0.06539926  0.49999913  0.99999997  1  -0.086008  0  -0.009295  0.061966  0  4.015278  0
C  C91  1  0.03212131  0.50037411  0.96525081  1  -0.12491  0  -0.09142  -0.127776  0  4.001469  0
C  C92  1  0.03212138  0.49962495  0.03474927  1  -0.124752  0  -0.091457  -0.12775  0  4.00141  0
C  C93  1  0.73637938  0.49999954  0.00000008  1  0.03297  0  -0.022496  -0.050166  0  3.987528  0
C  C94  1  0.76908003  0.53901912  0.02499111  1  -0.062923  0  -0.081791  -0.081478  0  3.985033  0
C  C95  1  0.83328869  0.53874529  0.02508506  1  -0.092106  0  -0.091647  -0.139947  0  3.990214  0
C  C96  1  0.76907948  0.46097823  0.97500862  1  -0.062962  0  -0.081809  -0.081592  0  3.984872  0
C  C97  1  0.83328907  0.46125261  0.97491505  1  -0.092119  0  -0.091622  -0.139847  0  3.990012  0
C  C98  1  0.86647413  0.49999871  0.00000017  1  0.073285  0  -0.001166  0.081757  0  4.003115  0
C  C99  1  0.93459925  0.49999922  0.00000022  1  -0.085431  0  -0.009276  0.061887  0  4.015297  0
C  C100  1  0.96787720  0.50037474  0.03474881  1  0.052831  0  -0.091387  -0.127595  0  4.001408  0
C  C101  1  0.96787713  0.49962428  0.96525150  1  0.05333  0  -0.091413  -0.127568  0  4.001462  0
C  C102  1  0.50000066  0.50000037  0.14692555  1  0.07493  0  -0.019629  -0.041888  0  3.98414  0
C  C103  1  0.49999828  0.50000048  0.35307402  1  0.074432  0  -0.019676  -0.041819  0  3.984078  0
C  C104  1  0.46059270  0.46058916  0.16743926  1  -0.101244  0  -0.081951  -0.08487  0  3.986806  0
C  C105  1  0.46070085  0.46069817  0.20744652  1  0.016835  0  -0.089407  -0.132076  0  3.979446  0
C  C106  1  0.53940763  0.53940523  0.33255916  1  -0.100664  0  -0.081808  -0.084612  0  3.986807  0
C  C107  1  0.53930086  0.53929944  0.29255449  1  0.016833  0  -0.089417  -0.132104  0  3.97954  0
C  C108  1  0.46059117  0.46059386  0.33255851  1  -0.100716  0  -0.081774  -0.084518  0  3.987006  0
C  C109  1  0.46069685  0.46069914  0.29255470  1  0.016776  0  -0.089468  -0.132195  0  3.979542  0
C  C110  1  0.53940269  0.53940606  0.16744135  1  -0.100683  0  -0.081709  -0.084248  0  3.986893  0
C  C111  1  0.53929747  0.53930124  0.20744515  1  0.016884  0  -0.089443  -0.132201  0  3.979537  0
C  C112  1  0.49999897  0.49999903  0.22863834  1  0.032896  0  -0.000517  0.075166  0  3.977302  0
C  C113  1  0.49999905  0.49999951  0.27136065  1  -0.116932  0  -0.000471  0.075229  0  3.977033  0
C  C114  1  0.50000016  0.49999890  0.85307493  1  0.07441  0  -0.019752  -0.042  0  3.984  0
C  C115  1  0.49999977  0.49999879  0.64692502  1  0.074377  0  -0.019653  -0.041925  0  3.983925  0
C  C116  1  0.53940437  0.46059142  0.83255804  1  -0.100717  0  -0.081794  -0.084568  0  3.986962  0
C  C117  1  0.53929853  0.46069808  0.79255539  1  0.016785  0  -0.089473  -0.132167  0  3.979572  0
C  C118  1  0.46059094  0.53940350  0.66744134  1  -0.100643  0  -0.081794  -0.084467  0  3.986847  0
C  C119  1  0.46069724  0.53929869  0.70744543  1  0.016773  0  -0.089479  -0.132231  0  3.979605  0
C  C120  1  0.53940636  0.46059318  0.66744081  1  -0.100687  0  -0.081756  -0.0845  0  3.98683  0
C  C121  1  0.53930114  0.46069942  0.70744519  1  0.016822  0  -0.089454  -0.132143  0  3.979706  0
C  C122  1  0.46059403  0.53940683  0.83255771  1  -0.100678  0  -0.081701  -0.08448  0  3.98675  0
C  C123  1  0.46070018  0.53929966  0.79255506  1  0.016804  0  -0.089515  -0.132272  0  3.979661  0
C  C124  1  0.49999908  0.49999978  0.77136127  1  -0.117001  0  -0.000449  0.075282  0  3.977065  0
C  C125  1  0.49999946  0.49999976  0.72863811  1  0.033002  0  -0.000475  0.075201  0  3.977117  0
C  C126  1  0.50000073  0.26362833  0.99999909  1  -0.003216  0  -0.022858  -0.051413  0  3.987972  0
C  C127  1  0.46004728  0.23093183  0.02440840  1  -0.046622  0  -0.081698  -0.08094  0  3.985396  0
C  C128  1  0.45989067  0.16671764  0.02423758  1  -0.084376  0  -0.091593  -0.139315  0  3.991059  0
C  C129  1  0.53995223  0.23093194  0.97559196  1  -0.046435  0  -0.081598  -0.080628  0  3.9854  0
C  C130  1  0.54011059  0.16671728  0.97576103  1  -0.08439  0  -0.091584  -0.139388  0  3.991036  0
C  C131  1  0.50000064  0.13352714  0.99999993  1  0.068763  0  -0.001377  0.080511  0  4.004351  0
C  C132  1  0.50000013  0.06538679  0.99999962  1  -0.103062  0  -0.008765  0.06337  0  4.014408  0
C  C133  1  0.55572834  0.03212328  0.99976808  1  0.0614  0  -0.091795  -0.128725  0  4.00069  0
C  C134  1  0.44427181  0.03212312  0.00023019  1  0.061477  0  -0.091744  -0.128667  0  4.000626  0
C  C135  1  0.50000015  0.73637240  0.00000005  1  -0.003396  0  -0.022855  -0.05144  0  3.987832  0
C  C136  1  0.46004672  0.76906877  0.97559144  1  -0.046389  0  -0.081658  -0.080759  0  3.985233  0
C  C137  1  0.45988973  0.83328296  0.97576053  1  -0.084397  0  -0.091622  -0.139452  0  3.990999  0
C  C138  1  0.53995357  0.76906878  0.02440829  1  -0.046358  0  -0.081677  -0.080897  0  3.985336  0
C  C139  1  0.54010972  0.83328389  0.02423750  1  -0.084408  0  -0.091647  -0.13947  0  3.99105  0
C  C140  1  0.50000070  0.86647313  0.99999922  1  0.068724  0  -0.001233  0.080874  0  4.004159  0
C  C141  1  0.49999937  0.93461209  0.99999923  1  -0.101847  0  -0.008804  0.063311  0  4.0143  0
C  C142  1  0.44427162  0.96787700  0.99976934  1  -0.116278  0  -0.091738  -0.128664  0  4.000602  0
C  C143  1  0.55572803  0.96787746  0.00023076  1  -0.116264  0  -0.091768  -0.128742  0  4.000502  0
C  C144  1  0.50000012  0.73637952  0.49999943  1  0.032939  0  -0.022487  -0.050157  0  3.987504  0
C  C145  1  0.53902057  0.76907918  0.47500904  1  -0.062965  0  -0.081812  -0.081613  0  3.985005  0
C  C146  1  0.53874767  0.83328875  0.47491457  1  -0.092115  0  -0.091594  -0.13981  0  3.989953  0
C  C147  1  0.46098063  0.76908008  0.52499242  1  -0.062926  0  -0.081818  -0.08149  0  3.984941  0
C  C148  1  0.46125548  0.83328873  0.52508547  1  -0.092105  0  -0.091634  -0.139909  0  3.990144  0
C  C149  1  0.50000113  0.86647425  0.50000032  1  0.073301  0  -0.001174  0.081723  0  4.003084  0
C  C150  1  0.50000026  0.93459935  0.49999976  1  -0.08494  0  -0.0093  0.061852  0  4.015281  0
C  C151  1  0.49962487  0.96787679  0.53474948  1  0.052848  0  -0.091401  -0.12758  0  4.001326  0
C  C152  1  0.50037524  0.96787629  0.46525063  1  0.05284  0  -0.091401  -0.127568  0  4.001375  0
C  C153  1  0.49999978  0.26361836  0.49999990  1  0.032592  0  -0.02256  -0.050377  0  3.987867  0
C  C154  1  0.46098015  0.23091960  0.47500858  1  -0.062749  0  -0.081767  -0.081433  0  3.984823  0
C  C155  1  0.46125352  0.16670864  0.47491495  1  -0.092277  0  -0.091649  -0.139933  0  3.989953  0
C  C156  1  0.53901890  0.23091968  0.52499121  1  -0.062733  0  -0.081758  -0.081391  0  3.984926  0
C  C157  1  0.53874498  0.16670873  0.52508539  1  -0.092129  0  -0.091688  -0.14005  0  3.990078  0
C  C158  1  0.49999922  0.13352456  0.49999988  1  0.073245  0  -0.001173  0.081774  0  4.003123  0
C  C159  1  0.49999871  0.06539899  0.50000015  1  -0.086043  0  -0.009321  0.061877  0  4.015296  0
C  C160  1  0.49962545  0.03212202  0.46525072  1  -0.124839  0  -0.091412  -0.12772  0  4.001378  0
C  C161  1  0.50037377  0.03212206  0.53474870  1  -0.124919  0  -0.091433  -0.127739  0  4.001414  0
C  C162  1  0.73637156  0.49999934  0.49999926  1  -0.003453  0  -0.022823  -0.051341  0  3.988023  0
C  C163  1  0.76906750  0.53995137  0.47559215  1  -0.046413  0  -0.081647  -0.080676  0  3.985388  0
C  C164  1  0.83328263  0.54011029  0.47576243  1  -0.084322  0  -0.091628  -0.139536  0  3.991009  0
C  C165  1  0.76906800  0.46004552  0.52440845  1  -0.04639  0  -0.081718  -0.081019  0  3.985462  0
C  C166  1  0.83328312  0.45988853  0.52423797  1  -0.084351  0  -0.091576  -0.139261  0  3.990971  0
C  C167  1  0.86647370  0.49999944  0.50000080  1  0.068737  0  -0.001302  0.080719  0  4.004207  0
C  C168  1  0.93461314  0.49999902  0.49999999  1  -0.10269  0  -0.008767  0.06331  0  4.014227  0
C  C169  1  0.96787851  0.44427221  0.50023043  1  -0.116423  0  -0.091733  -0.12865  0  4.000528  0
C  C170  1  0.96787951  0.55572820  0.49976931  1  -0.116416  0  -0.091772  -0.128687  0  4.000482  0
C  C171  1  0.26362741  0.50000039  0.50000064  1  -0.003424  0  -0.022882  -0.051396  0  3.987875  0
C  C172  1  0.23093153  0.53995378  0.52440777  1  -0.046426  0  -0.081592  -0.08061  0  3.985422  0
C  C173  1  0.16671779  0.54011169  0.52423894  1  -0.084377  0  -0.091627  -0.139543  0  3.991106  0
C  C174  1  0.23093092  0.46004649  0.47559144  1  -0.046397  0  -0.081755  -0.08112  0  3.985421  0
C  C175  1  0.16671718  0.45988988  0.47576278  1  -0.084376  0  -0.091579  -0.139246  0  3.99095  0
C  C176  1  0.13352666  0.49999937  0.50000141  1  0.068739  0  -0.001294  0.080762  0  4.004157  0
C  C177  1  0.06538815  0.50000025  0.50000136  1  -0.101848  0  -0.00882  0.063227  0  4.01427  0
C  C178  1  0.03212185  0.55572799  0.50023149  1  0.061359  0  -0.09174  -0.128654  0  4.000573  0
C  C179  1  0.03212269  0.44427200  0.49976974  1  0.061475  0  -0.091742  -0.128626  0  4.00054  0
O  O180  1  0.49999998  0.49999944  0.00000000  1  -1.223671  0  -0.572725  -1.02611  0  2.535177  0
O  O181  1  0.53714637  0.64072214  0.02324200  1  -1.186013  0  -0.317897  -0.551229  0  2.337406  0
O  O182  1  0.35927074  0.53707266  0.97671207  1  -1.186169  0  -0.317945  -0.551316  0  2.337346  0
O  O183  1  0.46276461  0.46278427  0.08736165  1  -1.185168  0  -0.317377  -0.550787  0  2.338805  0
O  O184  1  0.46285558  0.64072214  0.97675854  1  -1.186059  0  -0.317859  -0.551265  0  2.33757  0
O  O185  1  0.53723555  0.53721594  0.08735913  1  -1.184848  0  -0.317263  -0.55061  0  2.338366  0
O  O186  1  0.35926932  0.46293010  0.02328734  1  -1.186207  0  -0.317875  -0.551155  0  2.33775  0
O  O187  1  0.46285263  0.35927939  0.02323900  1  -1.186136  0  -0.317917  -0.551242  0  2.337496  0
O  O188  1  0.64072775  0.46292620  0.97671111  1  -1.186256  0  -0.317886  -0.551251  0  2.337333  0
O  O189  1  0.53714753  0.35927719  0.97675825  1  -1.186079  0  -0.317872  -0.551221  0  2.337256  0
O  O190  1  0.64072736  0.53707189  0.02328727  1  -1.186177  0  -0.317868  -0.55122  0  2.337371  0
O  O191  1  0.46276624  0.53721495  0.91263877  1  -1.184937  0  -0.317302  -0.550725  0  2.338594  0
O  O192  1  0.53723384  0.46278246  0.91263939  1  -1.18504  0  -0.317261  -0.550715  0  2.338341  0
O  O193  1  0.49999995  0.50000148  0.50000053  1  -1.223625  0  -0.57276  -1.026214  0  2.535196  0
O  O194  1  0.35927712  0.46285599  0.47675838  1  -1.186088  0  -0.317852  -0.551237  0  2.337603  0
O  O195  1  0.46292999  0.64072974  0.52328779  1  -1.186223  0  -0.317867  -0.551186  0  2.337667  0
O  O196  1  0.53721678  0.53723921  0.41264108  1  -1.184943  0  -0.31723  -0.550546  0  2.338095  0
O  O197  1  0.35927818  0.53714585  0.52324074  1  -1.186061  0  -0.317847  -0.551193  0  2.33747  0
O  O198  1  0.46278602  0.46276782  0.41263871  1  -1.18499  0  -0.317285  -0.550579  0  2.33891  0
O  O199  1  0.53707103  0.64073023  0.47671102  1  -1.186171  0  -0.317894  -0.551263  0  2.337463  0
O  O200  1  0.64072176  0.53714372  0.47675889  1  -1.186015  0  -0.317866  -0.551246  0  2.337566  0
O  O201  1  0.53707138  0.35927140  0.52328779  1  -1.1862  0  -0.317918  -0.551328  0  2.337482  0
O  O202  1  0.64072180  0.46285345  0.52324151  1  -1.186136  0  -0.317959  -0.551292  0  2.337393  0
O  O203  1  0.46292970  0.35927040  0.47671235  1  -1.186195  0  -0.317864  -0.551226  0  2.337588  0
O  O204  1  0.46278179  0.53723186  0.58736028  1  -1.185098  0  -0.317298  -0.550749  0  2.338458  0
O  O205  1  0.53721752  0.46276473  0.58736032  1  -1.185042  0  -0.317315  -0.5508  0  2.338257  0
