# generated using pymatgen
data_Cu4H18C16(IN)5
_symmetry_space_group_name_H-M   'P 1'
_cell_length_a   10.17995777
_cell_length_b   10.97283128
_cell_length_c   12.10315490
_cell_angle_alpha   97.90676050
_cell_angle_beta   104.62708199
_cell_angle_gamma   103.85568194
_symmetry_Int_Tables_number   1
_chemical_formula_structural   Cu4H18C16(IN)5
_chemical_formula_sum   'Cu8 H36 C32 I10 N10'
_cell_volume   1241.53638198
_cell_formula_units_Z   2
loop_
 _symmetry_equiv_pos_site_id
 _symmetry_equiv_pos_as_xyz
  1  'x, y, z'
loop_
 _atom_site_type_symbol
 _atom_site_label
 _atom_site_symmetry_multiplicity
 _atom_site_fract_x
 _atom_site_fract_y
 _atom_site_fract_z
 _atom_site_occupancy
 _atom_site_pbe_bader_spin_density
 _atom_site_pbe_cm5_charge
 _atom_site_pbe_ddec_charge
 _atom_site_pbe_ddec_spin_density
 _atom_site_pbe_ddec_sum_bond_order
 _atom_site_pbe_magmom
Cu  Cu0  1  0.92201062  0.71658784  0.84398581  1  0  0.119869  0.103741  0  2.803668  0
Cu  Cu1  1  0.07799226  0.28340807  0.15601692  1  0  0.119867  0.10374  0  2.80374  0
Cu  Cu2  1  0.06654940  0.49345004  0.10335121  1  0  0.124978  0.126074  0  2.722843  0
Cu  Cu3  1  0.93344656  0.50654014  0.89665019  1  0  0.12497  0.126071  0  2.722822  0
Cu  Cu4  1  0.10302988  0.80610552  0.74358363  1  0  0.27529  0.185415  0  2.613478  0
Cu  Cu5  1  0.89696865  0.19388941  0.25641556  1  0  0.27529  0.18536  0  2.613607  0
Cu  Cu6  1  0.10391169  0.00618588  0.58036345  1  0  0.276576  0.169271  0  2.666383  0
Cu  Cu7  1  0.89608634  0.99381389  0.41963782  1  0  0.276566  0.169252  0  2.666428  0
H  H8  1  0.72125240  0.57006281  0.39827470  1  0  0.077888  0.136319  0  1.033799  0
H  H9  1  0.27875284  0.42993398  0.60172369  1  0  0.077874  0.136323  0  1.033858  0
H  H10  1  0.56503317  0.52957524  0.44189401  1  0  0.074495  0.111714  0  1.056722  0
H  H11  1  0.43497197  0.47042443  0.55810468  1  0  0.074542  0.111789  0  1.056644  0
H  H12  1  0.73363992  0.53578332  0.53849244  1  0  0.075017  0.119679  0  1.054011  0
H  H13  1  0.26636532  0.46421347  0.46150594  1  0  0.075019  0.119709  0  1.053934  0
H  H14  1  0.56895691  0.34206584  0.30544210  1  0  0.100052  0.08526  0  1.007443  0
H  H15  1  0.43104183  0.65793292  0.69455673  1  0  0.100072  0.085303  0  1.007438  0
H  H16  1  0.74284229  0.35019184  0.39010687  1  0  0.093979  0.082207  0  1.037145  0
H  H17  1  0.25715595  0.64980208  0.60988883  1  0  0.093988  0.082243  0  1.037112  0
H  H18  1  0.78375777  0.31210718  0.57782022  1  0  0.112709  0.107041  0  1.033173  0
H  H19  1  0.21624127  0.68789257  0.42218044  1  0  0.112705  0.107039  0  1.033231  0
H  H20  1  0.69377384  0.16936789  0.70293519  1  0  0.1054  0.130902  0  1.027647  0
H  H21  1  0.30622186  0.83063090  0.29706380  1  0  0.105383  0.13087  0  1.027663  0
H  H22  1  0.26907660  0.10632441  0.47283852  1  0  0.093972  0.110581  0  1.068194  0
H  H23  1  0.73092144  0.89367531  0.52715944  1  0  0.093958  0.110589  0  1.068194  0
H  H24  1  0.37569873  0.24814747  0.35612569  1  0  0.118091  0.103357  0  1.023993  0
H  H25  1  0.62430103  0.75185129  0.64387337  1  0  0.118066  0.103322  0  1.023979  0
H  H26  1  0.69949558  0.94436695  0.89603588  1  0  0.104042  0.13201  0  1.028715  0
H  H27  1  0.30050388  0.05563081  0.10396052  1  0  0.104043  0.132028  0  1.028711  0
H  H28  1  0.79533972  0.84617398  0.06203713  1  0  0.116512  0.106915  0  1.026215  0
H  H29  1  0.20466128  0.15382861  0.93796179  1  0  0.116485  0.106901  0  1.026228  0
H  H30  1  0.38997061  0.68393389  0.08321807  1  0  0.116269  0.101553  0  1.031203  0
H  H31  1  0.61003159  0.31607258  0.91678486  1  0  0.116301  0.101581  0  1.03117  0
H  H32  1  0.27813155  0.77386360  0.91851306  1  0  0.090792  0.105614  0  1.081812  0
H  H33  1  0.72186871  0.22614001  0.08148995  1  0  0.090804  0.105615  0  1.081826  0
H  H34  1  0.58612157  0.69658718  0.22882557  1  0  0.101197  0.084677  0  1.004345  0
H  H35  1  0.41388113  0.30341448  0.77117611  1  0  0.101194  0.084631  0  1.004369  0
H  H36  1  0.75888618  0.77642607  0.22581451  1  0  0.091621  0.078098  0  1.05166  0
H  H37  1  0.24111673  0.22357942  0.77418682  1  0  0.09164  0.078142  0  1.051609  0
H  H38  1  0.73005481  0.54333102  0.20595273  1  0  0.075616  0.132041  0  1.043088  0
H  H39  1  0.26994984  0.45667345  0.79404556  1  0  0.075621  0.13207  0  1.043122  0
H  H40  1  0.57615222  0.50732953  0.08435054  1  0  0.073968  0.109613  0  1.06164  0
H  H41  1  0.42385172  0.49267593  0.91564936  1  0  0.074001  0.109667  0  1.061583  0
H  H42  1  0.74672665  0.58661373  0.07357278  1  0  0.072421  0.118595  0  1.061302  0
H  H43  1  0.25327557  0.41339269  0.92642684  1  0  0.072393  0.118586  0  1.06126  0
C  C44  1  0.66656076  0.50942213  0.44725412  1  0  -0.259945  -0.393512  0  3.925378  0
C  C45  1  0.33344479  0.49057561  0.55274361  1  0  -0.259937  -0.393563  0  3.925404  0
C  C46  1  0.64300183  0.36959052  0.39412404  1  0  -0.063784  -0.031276  0  3.863966  0
C  C47  1  0.35699732  0.63040631  0.60587384  1  0  -0.063856  -0.031417  0  3.864175  0
C  C48  1  0.67148958  0.26361986  0.55930372  1  0  0.05944  0.051201  0  3.8506  0
C  C49  1  0.32850714  0.73637890  0.44069468  1  0  0.059445  0.051166  0  3.850586  0
C  C50  1  0.62023899  0.18500466  0.62735818  1  0  -0.070288  -0.140235  0  3.927959  0
C  C51  1  0.37976006  0.81499508  0.37264166  1  0  -0.070258  -0.140121  0  3.927842  0
C  C52  1  0.47360147  0.12623790  0.59923561  1  0  0.020521  0.074447  0  3.973324  0
C  C53  1  0.52639587  0.87376278  0.40076230  1  0  0.020469  0.07433  0  3.973355  0
C  C54  1  0.38352330  0.14984028  0.50054484  1  0  -0.072124  -0.135403  0  3.901587  0
C  C55  1  0.61647677  0.85015944  0.49945439  1  0  -0.072139  -0.135481  0  3.901566  0
C  C56  1  0.44057565  0.22801929  0.43419601  1  0  0.067292  0.063937  0  3.81976  0
C  C57  1  0.55942045  0.77197756  0.56580204  1  0  0.067324  0.064023  0  3.819801  0
C  C58  1  0.42390561  0.04237350  0.67188904  1  0  0.200648  0.241726  0  4.050676  0
C  C59  1  0.57609171  0.95762721  0.32811135  1  0  0.200687  0.241842  0  4.050569  0
C  C60  1  0.42665250  0.92650981  0.79806444  1  0  0.200134  0.238871  0  4.046322  0
C  C61  1  0.57334483  0.07349089  0.20193513  1  0  0.200111  0.23884  0  4.046299  0
C  C62  1  0.48047255  0.86684589  0.89255635  1  0  0.023369  0.07701  0  3.97166  0
C  C63  1  0.51952681  0.13315479  0.10744283  1  0  0.02336  0.077065  0  3.971703  0
C  C64  1  0.62778867  0.88692473  0.93486141  1  0  -0.072282  -0.143387  0  3.922053  0
C  C65  1  0.37221109  0.11307403  0.06513765  1  0  -0.07232  -0.14345  0  3.921973  0
C  C66  1  0.68219982  0.83337624  0.02596032  1  0  0.06065  0.055678  0  3.850953  0
C  C67  1  0.31780016  0.16662633  0.97403756  1  0  0.060717  0.05577  0  3.850835  0
C  C68  1  0.45282372  0.74184675  0.03803479  1  0  0.065524  0.065919  0  3.822717  0
C  C69  1  0.54717616  0.25815875  0.96196587  1  0  0.065509  0.065951  0  3.822673  0
C  C70  1  0.39286762  0.79211829  0.94615324  1  0  -0.075411  -0.138009  0  3.912767  0
C  C71  1  0.60713264  0.20788532  0.05384977  1  0  -0.075397  -0.138003  0  3.912686  0
C  C72  1  0.65770926  0.70648432  0.17425668  1  0  -0.066602  -0.028625  0  3.872947  0
C  C73  1  0.34229305  0.29351924  0.82574347  1  0  -0.066576  -0.028453  0  3.872837  0
C  C74  1  0.67833184  0.57826456  0.13081213  1  0  -0.26445  -0.391775  0  3.929844  0
C  C75  1  0.32167179  0.42173994  0.86918759  1  0  -0.26449  -0.391928  0  3.929923  0
I  I76  1  0.06798222  0.71926407  0.06954493  1  0  -0.167327  -0.234469  0  2.198145  0
I  I77  1  0.93201403  0.28072712  0.93045995  1  0  -0.167328  -0.234442  0  2.198117  0
I  I78  1  0.67671621  0.54427881  0.80287441  1  0  -0.22088  -0.361991  0  1.822267  0
I  I79  1  0.32328658  0.45571996  0.19712697  1  0  -0.220873  -0.361967  0  1.822218  0
I  I80  1  0.03559066  0.56171345  0.71210191  1  0  -0.160697  -0.254757  0  2.155312  0
I  I81  1  0.96440923  0.43827968  0.28790647  1  0  -0.160696  -0.254756  0  2.155281  0
I  I82  1  0.93813092  0.93723052  0.79232683  1  0  -0.192462  -0.295631  0  2.059086  0
I  I83  1  0.06187155  0.06276733  0.20767685  1  0  -0.192456  -0.295602  0  2.059142  0
I  I84  1  0.97139746  0.78873894  0.43603757  1  0  -0.181374  -0.303725  0  2.032298  0
I  I85  1  0.02859517  0.21125993  0.56396572  1  0  -0.18137  -0.30374  0  2.032303  0
N  N86  1  0.51349951  0.00451638  0.75327175  1  0  -0.331323  -0.406875  0  3.230427  0
N  N87  1  0.48649548  0.99548335  0.24672638  1  0  -0.331353  -0.406982  0  3.23029  0
N  N88  1  0.28729254  0.91508487  0.74621650  1  0  -0.281803  -0.172659  0  3.537231  0
N  N89  1  0.71270650  0.08491488  0.25378416  1  0  -0.281766  -0.172547  0  3.537294  0
N  N90  1  0.28599107  0.99132962  0.66686149  1  0  -0.285285  -0.166467  0  3.56032  0
N  N91  1  0.71400797  0.00867013  0.33313917  1  0  -0.285268  -0.166485  0  3.560406  0
N  N92  1  0.58233777  0.28325530  0.46366135  1  0  -0.210695  0.097248  0  3.700395  0
N  N93  1  0.41765935  0.71674154  0.53633691  1  0  -0.210697  0.097247  0  3.700514  0
N  N94  1  0.59513272  0.76301233  0.07694627  1  0  -0.211588  0.09209  0  3.704665  0
N  N95  1  0.40486755  0.23699124  0.92305426  1  0  -0.211637  0.091861  0  3.70477  0
