# generated using pymatgen
data_CuH8C12BrN2
_symmetry_space_group_name_H-M   'P 1'
_cell_length_a   3.95880092
_cell_length_b   9.89779182
_cell_length_c   12.82812302
_cell_angle_alpha   89.97031587
_cell_angle_beta   89.81393515
_cell_angle_gamma   78.46804878
_symmetry_Int_Tables_number   1
_chemical_formula_structural   CuH8C12BrN2
_chemical_formula_sum   'Cu2 H16 C24 Br2 N4'
_cell_volume   492.49991832
_cell_formula_units_Z   2
loop_
 _symmetry_equiv_pos_site_id
 _symmetry_equiv_pos_as_xyz
  1  'x, y, z'
loop_
 _atom_site_type_symbol
 _atom_site_label
 _atom_site_symmetry_multiplicity
 _atom_site_fract_x
 _atom_site_fract_y
 _atom_site_fract_z
 _atom_site_occupancy
 _atom_site_hle17_bader_spin_density
 _atom_site_hle17_ddec_charge
 _atom_site_hle17_ddec_spin_density
 _atom_site_hle17_ddec_sum_bond_order
 _atom_site_hle17_magmom
 _atom_site_hse06_10hf_bader_spin_density
 _atom_site_hse06_10hf_ddec_charge
 _atom_site_hse06_10hf_ddec_spin_density
 _atom_site_hse06_10hf_ddec_sum_bond_order
 _atom_site_hse06_10hf_magmom
 _atom_site_hse06_bader_spin_density
 _atom_site_hse06_ddec_charge
 _atom_site_hse06_ddec_spin_density
 _atom_site_hse06_ddec_sum_bond_order
 _atom_site_hse06_magmom
 _atom_site_pbe_bader_spin_density
 _atom_site_pbe_cm5_charge
 _atom_site_pbe_ddec_charge
 _atom_site_pbe_ddec_spin_density
 _atom_site_pbe_ddec_sum_bond_order
 _atom_site_pbe_magmom
Cu  Cu0  1  0.53755310  0.34373482  0.18326641  1  0  0.406936  0  1.933023  0  0  0.304033  0  2.409957  0  0  0.300205  0  2.369613  0  0  0.404744  0.310972  0  2.434058  0
Cu  Cu1  1  0.88413707  0.65659802  0.68350820  1  0  0.406994  0  1.931526  0  0  0.303665  0  2.408321  0  0  0.299865  0  2.36807  0  0  0.404663  0.311789  0  2.431664  0
H  H2  1  0.88534350  0.00297733  0.56088321  1  0  0.096112  0  0.971894  0  0  0.103451  0  1.042155  0  0  0.107059  0  1.038368  0  0  0.096258  0.101116  0  1.043905  0
H  H3  1  0.89061464  0.99673974  0.06159432  1  0  0.095902  0  0.972702  0  0  0.10415  0  1.041773  0  0  0.107709  0  1.038099  0  0  0.09622  0.101206  0  1.044762  0
H  H4  1  0.14916009  0.93070587  0.39159028  1  0  0.100323  0  0.974174  0  0  0.109247  0  1.03855  0  0  0.112083  0  1.039214  0  0  0.097847  0.107212  0  1.03837  0
H  H5  1  0.08209991  0.06933400  0.89244578  1  0  0.101157  0  0.973975  0  0  0.109408  0  1.039198  0  0  0.11212  0  1.039946  0  0  0.09766  0.107522  0  1.038717  0
H  H6  1  0.00315628  0.08692458  0.23559808  1  0  0.069746  0  0.971343  0  0  0.076481  0  1.042731  0  0  0.08002  0  1.038471  0  0  0.100291  0.07405  0  1.045304  0
H  H7  1  0.09245630  0.91344998  0.73621691  1  0  0.070234  0  0.970546  0  0  0.076702  0  1.042177  0  0  0.080224  0  1.038015  0  0  0.10014  0.074097  0  1.045081  0
H  H8  1  0.11582801  0.43162253  0.33172254  1  0  0.096955  0  0.978798  0  0  0.099338  0  1.061246  0  0  0.105937  0  1.053201  0  0  0.098872  0.094313  0  1.067408  0
H  H9  1  0.54889385  0.56871007  0.83185633  1  0  0.09726  0  0.978189  0  0  0.099091  0  1.06129  0  0  0.105694  0  1.053277  0  0  0.098817  0.094111  0  1.067313  0
H  H10  1  0.87660837  0.53936959  0.50105103  1  0  0.105179  0  0.987884  0  0  0.112067  0  1.056964  0  0  0.117141  0  1.052746  0  0  0.090213  0.108193  0  1.060126  0
H  H11  1  0.41556423  0.46111180  0.00100761  1  0  0.105117  0  0.987457  0  0  0.111563  0  1.056919  0  0  0.116409  0  1.053044  0  0  0.090128  0.10787  0  1.059959  0
H  H12  1  0.07400272  0.44456514  0.84758223  1  0  0.070478  0  0.978743  0  0  0.082148  0  1.041759  0  0  0.083869  0  1.040826  0  0  0.108156  0.080718  0  1.042604  0
H  H13  1  0.51688694  0.55535879  0.34769328  1  0  0.071175  0  0.978971  0  0  0.082497  0  1.042197  0  0  0.084231  0  1.041314  0  0  0.108779  0.081236  0  1.042843  0
H  H14  1  0.45459261  0.21600767  0.86187522  1  0  0.106961  0  0.965814  0  0  0.114296  0  1.031236  0  0  0.117962  0  1.030325  0  0  0.100064  0.111495  0  1.032418  0
H  H15  1  0.67139170  0.78346618  0.36232934  1  0  0.106917  0  0.966114  0  0  0.11411  0  1.031771  0  0  0.117763  0  1.03096  0  0  0.099601  0.111335  0  1.032897  0
H  H16  1  0.69074135  0.09129860  0.69890752  1  0  0.088167  0  0.980531  0  0  0.10026  0  1.044178  0  0  0.102994  0  1.041542  0  0  0.103187  0.098594  0  1.045154  0
H  H17  1  0.78456385  0.90813876  0.19954639  1  0  0.087808  0  0.982249  0  0  0.099676  0  1.046029  0  0  0.102282  0  1.043553  0  0  0.102583  0.097965  0  1.047311  0
C  C18  1  0.80895673  0.06792213  0.49301739  1  0  -0.039149  0  3.691115  0  0  -0.069472  0  3.947076  0  0  -0.063494  0  3.962038  0  0  -0.070729  -0.073411  0  3.936131  0
C  C19  1  0.87903396  0.93193364  0.99362480  1  0  -0.039931  0  3.692745  0  0  -0.070675  0  3.948369  0  0  -0.064814  0  3.963423  0  0  -0.071539  -0.074424  0  3.938312  0
C  C20  1  0.95796248  0.02619238  0.39758905  1  0  -0.11965  0  3.748166  0  0  -0.131241  0  4.0012  0  0  -0.139087  0  4.02208  0  0  -0.092051  -0.12619  0  3.987489  0
C  C21  1  0.98623832  0.97386351  0.89826212  1  0  -0.12019  0  3.746408  0  0  -0.131051  0  3.999664  0  0  -0.138673  0  4.020472  0  0  -0.091679  -0.126913  0  3.986385  0
C  C22  1  0.87008373  0.11009085  0.31015354  1  0  0.128148  0  3.701947  0  0  0.095971  0  3.955892  0  0  0.10476  0  3.969309  0  0  0.037129  0.090588  0  3.946796  0
C  C23  1  0.98240871  0.89012103  0.81069904  1  0  0.130234  0  3.70062  0  0  0.098383  0  3.953991  0  0  0.107014  0  3.967416  0  0  0.038144  0.092518  0  3.946074  0
C  C24  1  0.20615809  0.38728408  0.40701606  1  0  -0.125711  0  3.737666  0  0  -0.145794  0  3.9946  0  0  -0.148389  0  4.010973  0  0  -0.089464  -0.145173  0  3.984971  0
C  C25  1  0.59513092  0.61287245  0.90720522  1  0  -0.125149  0  3.734689  0  0  -0.145352  0  3.992183  0  0  -0.147808  0  4.008257  0  0  -0.08856  -0.143895  0  3.981923  0
C  C26  1  0.07426000  0.44509763  0.49878062  1  0  -0.112206  0  3.717557  0  0  -0.137522  0  3.972823  0  0  -0.138487  0  3.989199  0  0  -0.087712  -0.136592  0  3.96204  0
C  C27  1  0.52013212  0.55512181  0.99888183  1  0  -0.111288  0  3.716581  0  0  -0.135658  0  3.970981  0  0  -0.136471  0  3.987297  0  0  -0.087341  -0.135627  0  3.960706  0
C  C28  1  0.17262819  0.38923909  0.77691393  1  0  0.130372  0  3.69956  0  0  0.10025  0  3.950395  0  0  0.108708  0  3.964342  0  0  0.04093  0.095193  0  3.941443  0
C  C29  1  0.56134559  0.61062168  0.27712204  1  0  0.128599  0  3.698195  0  0  0.098591  0  3.949285  0  0  0.107024  0  3.963171  0  0  0.039972  0.093263  0  3.939978  0
C  C30  1  0.38821987  0.25920380  0.78464778  1  0  -0.122381  0  3.749608  0  0  -0.133839  0  4.002068  0  0  -0.140527  0  4.0214  0  0  -0.091322  -0.130393  0  3.989972  0
C  C31  1  0.64835288  0.74039699  0.28503694  1  0  -0.12117  0  3.747338  0  0  -0.132729  0  3.999856  0  0  -0.139415  0  4.019131  0  0  -0.090505  -0.128806  0  3.987583  0
C  C32  1  0.51746498  0.19130055  0.69445289  1  0  -0.046421  0  3.703208  0  0  -0.073126  0  3.95119  0  0  -0.068726  0  3.968208  0  0  -0.072403  -0.075212  0  3.938527  0
C  C33  1  0.71050041  0.80830130  0.19493358  1  0  -0.047217  0  3.702402  0  0  -0.073688  0  3.950168  0  0  -0.069211  0  3.967166  0  0  -0.072095  -0.076334  0  3.93822  0
C  C34  1  0.42534100  0.25329644  0.59708439  1  0  -0.011422  0  3.731924  0  0  0.002831  0  3.956992  0  0  -0.001289  0  3.982073  0  0  -0.000532  0.005528  0  3.940278  0
C  C35  1  0.68029688  0.74651276  0.09746605  1  0  -0.007636  0  3.728325  0  0  0.006964  0  3.953118  0  0  0.00293  0  3.978065  0  0  0.000963  0.009295  0  3.93656  0
C  C36  1  0.56843764  0.19332847  0.49959311  1  0  -0.016569  0  3.746397  0  0  -0.000202  0  3.969772  0  0  -0.005138  0  3.995557  0  0  -0.001167  0.002183  0  3.953239  0
C  C37  1  0.76386772  0.80655835  0.00003926  1  0  -0.016677  0  3.746494  0  0  -0.001378  0  3.971292  0  0  -0.006309  0  3.997072  0  0  -0.00052  0.002219  0  3.953668  0
C  C38  1  0.47123482  0.26645582  0.40528104  1  0  0.194488  0  3.766712  0  0  0.193172  0  3.998752  0  0  0.19819  0  4.021389  0  0  0.107056  0.189555  0  3.984402  0
C  C39  1  0.73989099  0.73357677  0.90561490  1  0  0.192697  0  3.765303  0  0  0.191288  0  3.997964  0  0  0.196288  0  4.020581  0  0  0.105849  0.188165  0  3.982823  0
C  C40  1  0.19294189  0.38343827  0.59590338  1  0  0.203659  0  3.730602  0  0  0.201192  0  3.968087  0  0  0.206899  0  3.988  0  0  0.10842  0.196873  0  3.954997  0
C  C41  1  0.57706665  0.61656971  0.09611504  1  0  0.200584  0  3.731358  0  0  0.198041  0  3.968481  0  0  0.203765  0  3.988265  0  0  0.107587  0.194095  0  3.955672  0
Br  Br42  1  0.10393802  0.25783102  0.07713738  1  0  -0.553343  0  1.217412  0  0  -0.487245  0  1.588446  0  0  -0.505884  0  1.559219  0  0  -0.277317  -0.473121  0  1.606902  0
Br  Br43  1  0.36464363  0.74250613  0.57731749  1  0  -0.552349  0  1.216171  0  0  -0.485733  0  1.587299  0  0  -0.504635  0  1.558035  0  0  -0.277702  -0.473596  0  1.604617  0
N  N44  1  0.62835356  0.22603800  0.31188779  1  0  -0.326467  0  3.333126  0  0  -0.25726  0  3.623183  0  0  -0.267124  0  3.629789  0  0  -0.356452  -0.251078  0  3.618429  0
N  N45  1  0.85677276  0.77412317  0.81227324  1  0  -0.327677  0  3.33213  0  0  -0.257949  0  3.622078  0  0  -0.267738  0  3.628563  0  0  -0.357766  -0.253021  0  3.618105  0
N  N46  1  0.07703883  0.45244403  0.68618309  1  0  -0.325055  0  3.307977  0  0  -0.259704  0  3.604178  0  0  -0.268217  0  3.608813  0  0  -0.35337  -0.255114  0  3.600819  0
N  N47  1  0.52869124  0.54764375  0.18629030  1  0  -0.324546  0  3.308611  0  0  -0.259244  0  3.604801  0  0  -0.267706  0  3.609352  0  0  -0.354045  -0.254367  0  3.60123  0
