# generated using pymatgen
data_HgH14C10Se(N2Cl)2
_symmetry_space_group_name_H-M   'P 1'
_cell_length_a   8.59305950
_cell_length_b   10.04988091
_cell_length_c   18.82141273
_cell_angle_alpha   89.99702983
_cell_angle_beta   90.00363766
_cell_angle_gamma   89.99597019
_symmetry_Int_Tables_number   1
_chemical_formula_structural   HgH14C10Se(N2Cl)2
_chemical_formula_sum   'Hg4 H56 C40 Se4 N16 Cl8'
_cell_volume   1625.40260114
_cell_formula_units_Z   4
loop_
 _symmetry_equiv_pos_site_id
 _symmetry_equiv_pos_as_xyz
  1  'x, y, z'
loop_
 _atom_site_type_symbol
 _atom_site_label
 _atom_site_symmetry_multiplicity
 _atom_site_fract_x
 _atom_site_fract_y
 _atom_site_fract_z
 _atom_site_occupancy
 _atom_site_pbe_bader_charge
 _atom_site_pbe_bader_spin_density
 _atom_site_pbe_cm5_charge
 _atom_site_pbe_ddec_charge
 _atom_site_pbe_ddec_spin_density
 _atom_site_pbe_ddec_sum_bond_order
 _atom_site_pbe_magmom
Hg  Hg0  1  0.71891435  0.75004907  0.31005489  1  0.842019  0  0.538923  0.564059  0  2.504292  0
Hg  Hg1  1  0.21894680  0.25005853  0.18992746  1  0.842593  0  0.539015  0.564149  0  2.50425  0
Hg  Hg2  1  0.78106001  0.74993037  0.81006368  1  0.842239  0  0.53911  0.564219  0  2.504164  0
Hg  Hg3  1  0.28106220  0.24997167  0.68993678  1  0.842183  0  0.538959  0.564083  0  2.504501  0
H  H4  1  0.04269617  0.61102119  0.31816574  1  0.505831  0  0.30507  0.260593  0  0.982457  0
H  H5  1  0.54280737  0.38897469  0.18179993  1  0.505056  0  0.305087  0.260481  0  0.982677  0
H  H6  1  0.45727859  0.88898268  0.81815997  1  0.505598  0  0.305048  0.260617  0  0.982273  0
H  H7  1  0.95725242  0.11102113  0.68183432  1  0.505123  0  0.305001  0.260395  0  0.982568  0
H  H8  1  0.95726176  0.38898164  0.68181583  1  0.505455  0  0.305028  0.260378  0  0.982725  0
H  H9  1  0.45721922  0.61099530  0.81819652  1  0.505122  0  0.30512  0.260413  0  0.982755  0
H  H10  1  0.54271658  0.11102114  0.18184658  1  0.505567  0  0.305127  0.26066  0  0.982382  0
H  H11  1  0.04272995  0.88899463  0.31818179  1  0.505591  0  0.305129  0.260662  0  0.982409  0
H  H12  1  0.26643186  0.36916574  0.35497376  1  0.088371  0  0.082515  0.134076  0  1.049437  0
H  H13  1  0.76646415  0.63084565  0.14504405  1  0.091853  0  0.082477  0.134004  0  1.04956  0
H  H14  1  0.23355960  0.13084490  0.85496506  1  0.08844  0  0.082537  0.134069  0  1.049465  0
H  H15  1  0.73357780  0.86914837  0.64505678  1  0.091642  0  0.082512  0.134035  0  1.049471  0
H  H16  1  0.73354352  0.63088186  0.64502428  1  0.084254  0  0.082404  0.133942  0  1.049556  0
H  H17  1  0.23356710  0.36914922  0.85496409  1  0.084362  0  0.082561  0.134154  0  1.049337  0
H  H18  1  0.76643906  0.86914996  0.14504945  1  0.087737  0  0.082503  0.134008  0  1.049569  0
H  H19  1  0.26640108  0.13086938  0.35494711  1  0.084281  0  0.082542  0.134038  0  1.049537  0
H  H20  1  0.25477918  0.37951242  0.44898645  1  0.076774  0  0.093708  0.138731  0  1.010863  0
H  H21  1  0.75476891  0.62050114  0.05102621  1  0.076065  0  0.093699  0.138745  0  1.010899  0
H  H22  1  0.24529592  0.12048767  0.94897493  1  0.076332  0  0.093752  0.138739  0  1.01093  0
H  H23  1  0.74523245  0.87949148  0.55103985  1  0.076208  0  0.093627  0.138704  0  1.010717  0
H  H24  1  0.74520318  0.62053617  0.55101744  1  0.074231  0  0.093675  0.138581  0  1.010754  0
H  H25  1  0.24526583  0.37948079  0.94898671  1  0.073824  0  0.093681  0.138711  0  1.010912  0
H  H26  1  0.75471671  0.87949326  0.05103640  1  0.073826  0  0.093642  0.138659  0  1.010779  0
H  H27  1  0.25474875  0.12053025  0.44896298  1  0.073421  0  0.093678  0.138715  0  1.010809  0
H  H28  1  0.28978650  0.52532847  0.39671654  1  0.103899  0  0.089213  0.138622  0  1.023253  0
H  H29  1  0.78986584  0.47468454  0.10330520  1  0.103632  0  0.089335  0.138719  0  1.023383  0
H  H30  1  0.21021303  0.97467685  0.89670524  1  0.103902  0  0.089241  0.13865  0  1.023228  0
H  H31  1  0.71015755  0.02531280  0.60330790  1  0.104022  0  0.089292  0.138615  0  1.023219  0
H  H32  1  0.71017608  0.47470520  0.60328469  1  0.104105  0  0.089328  0.138638  0  1.023221  0
H  H33  1  0.21017123  0.52530138  0.89670826  1  0.104041  0  0.0893  0.138691  0  1.023282  0
H  H34  1  0.78981356  0.02532199  0.10330396  1  0.103959  0  0.089259  0.138617  0  1.023147  0
H  H35  1  0.28981434  0.97470793  0.39669493  1  0.104338  0  0.08933  0.13859  0  1.023436  0
H  H36  1  0.57115082  0.37765284  0.38712810  1  0.108031  0  0.089505  0.148842  0  1.010678  0
H  H37  1  0.07118696  0.62234401  0.11284090  1  0.108766  0  0.089397  0.148802  0  1.010921  0
H  H38  1  0.92887041  0.12234335  0.88711614  1  0.107766  0  0.089514  0.148853  0  1.010857  0
H  H39  1  0.42883800  0.87765152  0.61285835  1  0.105429  0  0.089418  0.148728  0  1.010911  0
H  H40  1  0.42883155  0.62232212  0.61287154  1  0.108257  0  0.089463  0.148807  0  1.01083  0
H  H41  1  0.92885011  0.37762797  0.88715237  1  0.105383  0  0.089393  0.148773  0  1.010842  0
H  H42  1  0.07115385  0.87764554  0.11286968  1  0.105005  0  0.089527  0.148856  0  1.010707  0
H  H43  1  0.57112109  0.12235628  0.38713810  1  0.10393  0  0.089445  0.148757  0  1.01088  0
H  H44  1  0.56517570  0.53191467  0.43253234  1  0.040859  0  0.090177  0.132755  0  1.019078  0
H  H45  1  0.06526294  0.46808476  0.06744206  1  0.04207  0  0.09025  0.132738  0  1.019383  0
H  H46  1  0.93485138  0.96808345  0.93252428  1  0.041113  0  0.090144  0.132696  0  1.019188  0
H  H47  1  0.43475384  0.03191184  0.56745386  1  0.041728  0  0.090272  0.132796  0  1.019238  0
H  H48  1  0.43476827  0.46806726  0.56747102  1  0.041997  0  0.09026  0.132843  0  1.019111  0
H  H49  1  0.93478460  0.53188026  0.93255068  1  0.041621  0  0.090206  0.132797  0  1.019357  0
H  H50  1  0.06515659  0.03188654  0.06746368  1  0.040856  0  0.090154  0.132724  0  1.019219  0
H  H51  1  0.56522736  0.96809298  0.43253622  1  0.041504  0  0.090244  0.132816  0  1.019209  0
H  H52  1  0.62274812  0.38393426  0.47860547  1  0.050678  0  0.088735  0.123556  0  1.036198  0
H  H53  1  0.12271591  0.61607214  0.02136706  1  0.050867  0  0.088763  0.123627  0  1.036384  0
H  H54  1  0.87730700  0.11606085  0.97858944  1  0.051294  0  0.088668  0.123492  0  1.036044  0
H  H55  1  0.37723210  0.88393543  0.52138099  1  0.048796  0  0.088763  0.123601  0  1.036341  0
H  H56  1  0.37724240  0.61604568  0.52138780  1  0.051032  0  0.088724  0.123594  0  1.036208  0
H  H57  1  0.87731999  0.38390283  0.97862780  1  0.048621  0  0.088732  0.123591  0  1.036397  0
H  H58  1  0.12273472  0.88392208  0.02139904  1  0.048623  0  0.088729  0.123492  0  1.036238  0
H  H59  1  0.62271303  0.11607437  0.47861652  1  0.048719  0  0.088804  0.123743  0  1.036239  0
C  C60  1  0.05549723  0.45447378  0.39627663  1  0.430921  0  0.104414  0.247567  0  3.992351  0
C  C61  1  0.55553972  0.54553094  0.10372765  1  0.431071  0  0.104405  0.247375  0  3.992672  0
C  C62  1  0.44452943  0.04551082  0.89625642  1  0.432301  0  0.104108  0.247246  0  3.992549  0
C  C63  1  0.94446935  0.95448513  0.60374601  1  0.431532  0  0.104493  0.247411  0  3.992075  0
C  C64  1  0.94446303  0.54555591  0.60372142  1  0.430205  0  0.104602  0.247585  0  3.991813  0
C  C65  1  0.44446942  0.45445099  0.89628155  1  0.430798  0  0.104514  0.247669  0  3.99202  0
C  C66  1  0.55551462  0.95447808  0.10375278  1  0.431324  0  0.104323  0.247304  0  3.992176  0
C  C67  1  0.05550021  0.04554356  0.39626053  1  0.43167  0  0.104497  0.247568  0  3.992473  0
C  C68  1  0.22559157  0.43098656  0.39938785  1  -0.130091  0  -0.240652  -0.434514  0  3.950733  0
C  C69  1  0.72564668  0.56901802  0.10062894  1  -0.132579  0  -0.240796  -0.434516  0  3.950259  0
C  C70  1  0.27442336  0.06900838  0.89937641  1  -0.129891  0  -0.240772  -0.434593  0  3.950286  0
C  C71  1  0.77439042  0.93097976  0.60063743  1  -0.132796  0  -0.240731  -0.434459  0  3.950251  0
C  C72  1  0.77438498  0.56904314  0.60061392  1  -0.130048  0  -0.240732  -0.434325  0  3.950597  0
C  C73  1  0.27439737  0.43096789  0.89938398  1  -0.129728  0  -0.240806  -0.43469  0  3.950819  0
C  C74  1  0.72559508  0.93098848  0.10063439  1  -0.132855  0  -0.240675  -0.434288  0  3.950236  0
C  C75  1  0.22558962  0.06904097  0.39936699  1  -0.129748  0  -0.240824  -0.434402  0  3.950522  0
C  C76  1  0.93013324  0.39405218  0.43133323  1  -0.164065  0  -0.074476  -0.240325  0  3.94907  0
C  C77  1  0.43017816  0.60597355  0.06868230  1  -0.165233  0  -0.074525  -0.24049  0  3.949299  0
C  C78  1  0.56990208  0.10593433  0.93130395  1  -0.164161  0  -0.074525  -0.2407  0  3.94901  0
C  C79  1  0.06984668  0.89405755  0.56868990  1  -0.16447  0  -0.074539  -0.240466  0  3.949023  0
C  C80  1  0.06984680  0.60597851  0.56867544  1  -0.164657  0  -0.07473  -0.240665  0  3.949562  0
C  C81  1  0.56985425  0.39402032  0.93133381  1  -0.165148  0  -0.074647  -0.240615  0  3.949225  0
C  C82  1  0.43013848  0.89405059  0.06869781  1  -0.164577  0  -0.074665  -0.240713  0  3.948885  0
C  C83  1  0.93013103  0.10597115  0.43130868  1  -0.165028  0  -0.074643  -0.240641  0  3.949798  0
C  C84  1  0.79434466  0.46189230  0.40858990  1  0.529271  0  0.0994  0.242389  0  4.023341  0
C  C85  1  0.29442084  0.53812302  0.09139405  1  0.530643  0  0.099349  0.242239  0  4.022767  0
C  C86  1  0.70565604  0.03808574  0.90856239  1  0.526796  0  0.099611  0.242874  0  4.023044  0
C  C87  1  0.20561650  0.96188868  0.59141734  1  0.529581  0  0.099353  0.242331  0  4.023355  0
C  C88  1  0.20561676  0.53812047  0.59141028  1  0.529696  0  0.09946  0.242349  0  4.023726  0
C  C89  1  0.70561040  0.46186389  0.90860718  1  0.530036  0  0.099421  0.242293  0  4.022696  0
C  C90  1  0.29436124  0.96190216  0.09142875  1  0.529578  0  0.099496  0.242482  0  4.023417  0
C  C91  1  0.79436820  0.03813007  0.40858549  1  0.529678  0  0.099426  0.242459  0  4.023345  0
C  C92  1  0.62927838  0.43790826  0.42805663  1  -0.071552  0  -0.240928  -0.429313  0  3.94701  0
C  C93  1  0.12931951  0.56209959  0.07191368  1  -0.073751  0  -0.240786  -0.429245  0  3.947355  0
C  C94  1  0.87075698  0.06208784  0.92804597  1  -0.072724  0  -0.240901  -0.429352  0  3.946536  0
C  C95  1  0.37068667  0.93790201  0.57192880  1  -0.073393  0  -0.240892  -0.429262  0  3.947271  0
C  C96  1  0.37069468  0.56208462  0.57193982  1  -0.073787  0  -0.240912  -0.429377  0  3.947105  0
C  C97  1  0.87071174  0.43787339  0.92808118  1  -0.072867  0  -0.240772  -0.429325  0  3.947194  0
C  C98  1  0.12928242  0.93789608  0.07194357  1  -0.071668  0  -0.240881  -0.429205  0  3.946899  0
C  C99  1  0.62927591  0.06211176  0.42806871  1  -0.071456  0  -0.240983  -0.429521  0  3.947091  0
Se  Se100  1  0.94328320  0.24998473  0.49733238  1  0.279783  0  0.100312  0.09156  0  2.70636  0
Se  Se101  1  0.44327497  0.75003494  0.00267446  1  0.280588  0  0.100398  0.091738  0  2.70583  0
Se  Se102  1  0.55675977  0.24994400  0.99733474  1  0.279867  0  0.100364  0.09174  0  2.705906  0
Se  Se103  1  0.05671197  0.75003103  0.50267204  1  0.280419  0  0.100387  0.091735  0  2.706123  0
N  N104  1  0.83513630  0.55697903  0.36198634  1  -0.717275  0  -0.242647  -0.218792  0  3.409045  0
N  N105  1  0.33520202  0.44300230  0.13798322  1  -0.717497  0  -0.242838  -0.218641  0  3.408673  0
N  N106  1  0.66488273  0.94302899  0.86196503  1  -0.715483  0  -0.242525  -0.218662  0  3.409002  0
N  N107  1  0.16483794  0.05698638  0.63801315  1  -0.717401  0  -0.242625  -0.218477  0  3.409252  0
N  N108  1  0.16483210  0.44302379  0.63800373  1  -0.716845  0  -0.242688  -0.218607  0  3.409044  0
N  N109  1  0.66482458  0.55696770  0.86200632  1  -0.716743  0  -0.242748  -0.218441  0  3.408446  0
N  N110  1  0.33513920  0.05696985  0.13803036  1  -0.717794  0  -0.242638  -0.218557  0  3.40919  0
N  N111  1  0.83513977  0.94303933  0.36199340  1  -0.717453  0  -0.242475  -0.218372  0  3.408982  0
N  N112  1  0.99210455  0.55066265  0.35553462  1  -0.862998  0  -0.291612  -0.151337  0  3.72955  0
N  N113  1  0.49217202  0.44932260  0.14444339  1  -0.862754  0  -0.291309  -0.150897  0  3.729363  0
N  N114  1  0.50789946  0.94933869  0.85552187  1  -0.862719  0  -0.291481  -0.151216  0  3.729428  0
N  N115  1  0.00787715  0.05067077  0.64447125  1  -0.862483  0  -0.291421  -0.150977  0  3.729499  0
N  N116  1  0.00786269  0.44933819  0.64446077  1  -0.86231  0  -0.291537  -0.151095  0  3.728773  0
N  N117  1  0.50785807  0.55065834  0.85554563  1  -0.862391  0  -0.29151  -0.151177  0  3.728982  0
N  N118  1  0.49211549  0.05066513  0.14448681  1  -0.863004  0  -0.291501  -0.151287  0  3.729194  0
N  N119  1  0.99210987  0.94935295  0.35553317  1  -0.862548  0  -0.291657  -0.151473  0  3.729713  0
Cl  Cl120  1  0.44145484  0.75000271  0.31939353  1  -0.507283  0  -0.304114  -0.408331  0  1.111731  0
Cl  Cl121  1  0.94147481  0.25004370  0.18057402  1  -0.507824  0  -0.304147  -0.408435  0  1.111708  0
Cl  Cl122  1  0.05852967  0.74994320  0.81941393  1  -0.50747  0  -0.304179  -0.408431  0  1.111736  0
Cl  Cl123  1  0.55851938  0.24999216  0.68058167  1  -0.507592  0  -0.304142  -0.408404  0  1.111804  0
Cl  Cl124  1  0.96186424  0.75000458  0.23097358  1  -0.580077  0  -0.240066  -0.433048  0  1.221833  0
Cl  Cl125  1  0.46189023  0.25002135  0.26904204  1  -0.580148  0  -0.240169  -0.433172  0  1.221548  0
Cl  Cl126  1  0.53810262  0.74997550  0.73096132  1  -0.580173  0  -0.240156  -0.433088  0  1.221512  0
Cl  Cl127  1  0.03813209  0.25001417  0.76902818  1  -0.58007  0  -0.240068  -0.433037  0  1.221824  0
