# generated using pymatgen
data_CuMo2H7C11(N3O4)2
_symmetry_space_group_name_H-M   'P 1'
_cell_length_a   7.25928264
_cell_length_b   11.42328533
_cell_length_c   11.64858328
_cell_angle_alpha   119.36237518
_cell_angle_beta   97.27276654
_cell_angle_gamma   90.00004296
_symmetry_Int_Tables_number   1
_chemical_formula_structural   CuMo2H7C11(N3O4)2
_chemical_formula_sum   'Cu2 Mo4 H14 C22 N12 O16'
_cell_volume   832.93796109
_cell_formula_units_Z   2
loop_
 _symmetry_equiv_pos_site_id
 _symmetry_equiv_pos_as_xyz
  1  'x, y, z'
loop_
 _atom_site_type_symbol
 _atom_site_label
 _atom_site_symmetry_multiplicity
 _atom_site_fract_x
 _atom_site_fract_y
 _atom_site_fract_z
 _atom_site_occupancy
 _atom_site_hle17_bader_spin_density
 _atom_site_hle17_ddec_charge
 _atom_site_hle17_ddec_spin_density
 _atom_site_hle17_ddec_sum_bond_order
 _atom_site_hle17_magmom
 _atom_site_hse06_10hf_bader_spin_density
 _atom_site_hse06_10hf_ddec_charge
 _atom_site_hse06_10hf_ddec_spin_density
 _atom_site_hse06_10hf_ddec_sum_bond_order
 _atom_site_hse06_10hf_magmom
 _atom_site_hse06_bader_spin_density
 _atom_site_hse06_ddec_charge
 _atom_site_hse06_ddec_spin_density
 _atom_site_hse06_ddec_sum_bond_order
 _atom_site_hse06_magmom
 _atom_site_pbe_bader_spin_density
 _atom_site_pbe_cm5_charge
 _atom_site_pbe_ddec_charge
 _atom_site_pbe_ddec_spin_density
 _atom_site_pbe_ddec_sum_bond_order
 _atom_site_pbe_magmom
Cu  Cu0  1  0.50000084  0.00000077  0.49999982  1  0  0.527328  0  1.507956  0  0  0.398428  0  1.907901  0  0  0.41451  0  1.865184  0  0  0.532897  0.38965  0  1.937716  0
Cu  Cu1  1  0.00000041  0.50000031  0.50000049  1  0  0.527309  0  1.507961  0  0  0.398378  0  1.907822  0  0  0.414492  0  1.865185  0  0  0.532914  0.389634  0  1.937712  0
Mo  Mo2  1  0.59385585  0.44593270  0.84992044  1  0  2.231388  0  4.041299  0  0  2.23111  0  4.580106  0  0  2.328523  0  4.547433  0  0  1.529403  2.158526  0  4.609701  0
Mo  Mo3  1  0.90614399  0.59601286  0.15007960  1  0  2.231345  0  4.041359  0  0  2.231071  0  4.580163  0  0  2.328481  0  4.547494  0  0  1.529374  2.158482  0  4.609752  0
Mo  Mo4  1  0.40614453  0.55406659  0.15007948  1  0  2.231362  0  4.041379  0  0  2.231093  0  4.580178  0  0  2.328509  0  4.547506  0  0  1.529378  2.158501  0  4.609746  0
Mo  Mo5  1  0.09385501  0.40398644  0.84992020  1  0  2.231428  0  4.041278  0  0  2.231147  0  4.580082  0  0  2.328562  0  4.547414  0  0  1.529408  2.158559  0  4.609659  0
H  H6  1  0.74999901  0.80660366  0.99999996  1  0  0.153907  0  0.927702  0  0  0.16312  0  0.987117  0  0  0.166833  0  0.984457  0  0  0.12165  0.159997  0  0.990128  0
H  H7  1  0.25000157  0.19339765  0.00000095  1  0  0.153908  0  0.927684  0  0  0.163123  0  0.987102  0  0  0.166836  0  0.984441  0  0  0.121642  0.159991  0  0.990112  0
H  H8  1  0.76458592  0.24131392  0.21358501  1  0  0.126137  0  0.939975  0  0  0.132556  0  1.008166  0  0  0.1372  0  1.00353  0  0  0.117035  0.128661  0  1.012396  0
H  H9  1  0.73540923  0.02772740  0.78641447  1  0  0.126204  0  0.93987  0  0  0.132571  0  1.008147  0  0  0.137216  0  1.003508  0  0  0.117056  0.128691  0  1.012339  0
H  H10  1  0.23541317  0.75868639  0.78641358  1  0  0.126131  0  0.939982  0  0  0.132554  0  1.008167  0  0  0.137198  0  1.003531  0  0  0.117045  0.128663  0  1.012402  0
H  H11  1  0.26458967  0.97227089  0.21358398  1  0  0.126165  0  0.939937  0  0  0.13257  0  1.00817  0  0  0.137215  0  1.003532  0  0  0.117053  0.128693  0  1.01237  0
H  H12  1  0.56374160  0.87136491  0.20408391  1  0  0.124362  0  0.96308  0  0  0.130429  0  1.028086  0  0  0.133774  0  1.023095  0  0  0.143235  0.127524  0  1.031634  0
H  H13  1  0.93625762  0.66728078  0.79591583  1  0  0.12437  0  0.963047  0  0  0.130436  0  1.028051  0  0  0.13378  0  1.023059  0  0  0.143237  0.127533  0  1.031596  0
H  H14  1  0.43626166  0.12863539  0.79591672  1  0  0.124438  0  0.963153  0  0  0.130475  0  1.028174  0  0  0.133821  0  1.023186  0  0  0.143267  0.12757  0  1.031715  0
H  H15  1  0.06374277  0.33271851  0.20408494  1  0  0.124383  0  0.96306  0  0  0.130449  0  1.028064  0  0  0.133795  0  1.02307  0  0  0.143244  0.127541  0  1.031607  0
H  H16  1  0.86110332  0.19113933  0.55674351  1  0  0.110714  0  0.945865  0  0  0.122026  0  1.002185  0  0  0.12391  0  1.0  0  0  0.138106  0.120393  0  1.004148  0
H  H17  1  0.63890080  0.63439394  0.44325590  1  0  0.110764  0  0.945796  0  0  0.122031  0  1.002158  0  0  0.123914  0  0.999975  0  0  0.138107  0.120396  0  1.00412  0
H  H18  1  0.13889866  0.80886198  0.44325664  1  0  0.110723  0  0.945839  0  0  0.122006  0  1.002185  0  0  0.12389  0  1.000003  0  0  0.138114  0.120374  0  1.004151  0
H  H19  1  0.36110098  0.36560536  0.55674498  1  0  0.110765  0  0.945808  0  0  0.122056  0  1.002146  0  0  0.123939  0  0.999962  0  0  0.138131  0.120426  0  1.004112  0
C  C20  1  0.74999703  0.90199145  0.99999966  1  0  -0.187649  0  3.622028  0  0  -0.218797  0  3.883705  0  0  -0.221706  0  3.895345  0  0  -0.073334  -0.217173  0  3.872431  0
C  C21  1  0.25000346  0.09800885  0.00000075  1  0  -0.187632  0  3.621976  0  0  -0.218793  0  3.883648  0  0  -0.221698  0  3.895289  0  0  -0.073312  -0.217163  0  3.872362  0
C  C22  1  0.76236514  0.02499463  0.11838923  1  0  0.186361  0  3.769935  0  0  0.166366  0  4.024047  0  0  0.181919  0  4.047632  0  0  0.105249  0.163784  0  4.008745  0
C  C23  1  0.73762794  0.90660360  0.88160988  1  0  0.186343  0  3.770023  0  0  0.166343  0  4.024128  0  0  0.181932  0  4.04771  0  0  0.105236  0.163762  0  4.008825  0
C  C24  1  0.23763405  0.97500668  0.88161156  1  0  0.186378  0  3.769948  0  0  0.166399  0  4.024041  0  0  0.181945  0  4.047627  0  0  0.105259  0.163821  0  4.008729  0
C  C25  1  0.26237106  0.09339570  0.11838993  1  0  0.186345  0  3.769994  0  0  0.16635  0  4.024091  0  0  0.181933  0  4.047674  0  0  0.105238  0.163775  0  4.00878  0
C  C26  1  0.76159210  0.14783946  0.11988159  1  0  -0.143156  0  3.694979  0  0  -0.183089  0  3.956906  0  0  -0.184224  0  3.97242  0  0  -0.077394  -0.182076  0  3.945193  0
C  C27  1  0.73840505  0.02795677  0.88011840  1  0  -0.143223  0  3.694924  0  0  -0.183137  0  3.956855  0  0  -0.18427  0  3.972356  0  0  -0.077429  -0.182118  0  3.945148  0
C  C28  1  0.23840848  0.85216186  0.88011760  1  0  -0.143232  0  3.695032  0  0  -0.183166  0  3.95697  0  0  -0.184302  0  3.972485  0  0  -0.077458  -0.182146  0  3.945256  0
C  C29  1  0.26159534  0.97204253  0.11988066  1  0  -0.143313  0  3.694988  0  0  -0.183249  0  3.956932  0  0  -0.184386  0  3.972436  0  0  -0.077475  -0.182231  0  3.945228  0
C  C30  1  0.75000019  0.27943086  0.99999977  1  0  0.705889  0  3.831452  0  0  0.661162  0  4.116202  0  0  0.699747  0  4.101968  0  0  0.227132  0.634787  0  4.125287  0
C  C31  1  0.24999913  0.72056727  0.99999865  1  0  0.705862  0  3.831606  0  0  0.66107  0  4.116471  0  0  0.699651  0  4.102243  0  0  0.22708  0.634701  0  4.125569  0
C  C32  1  0.74999983  0.14868809  0.99999997  1  0  -0.030033  0  3.766825  0  0  -0.003054  0  3.993393  0  0  -0.011258  0  4.01764  0  0  -0.010352  0.001747  0  3.978428  0
C  C33  1  0.24999959  0.85131105  0.99999894  1  0  -0.029872  0  3.766655  0  0  -0.002898  0  3.993261  0  0  -0.011096  0  4.017505  0  0  -0.010294  0.001874  0  3.978364  0
C  C34  1  0.65746353  0.95856452  0.27477908  1  0  0.197329  0  3.586487  0  0  0.120551  0  3.847241  0  0  0.148003  0  3.859568  0  0  0.172738  0.110295  0  3.841443  0
C  C35  1  0.84253389  0.68378564  0.72522129  1  0  0.197264  0  3.586483  0  0  0.120484  0  3.84724  0  0  0.147974  0  3.859583  0  0  0.172711  0.110227  0  3.841441  0
C  C36  1  0.34253706  0.04143679  0.72522182  1  0  0.197274  0  3.586496  0  0  0.120531  0  3.847246  0  0  0.147975  0  3.859578  0  0  0.17274  0.110272  0  3.841443  0
C  C37  1  0.15746650  0.31621365  0.27477862  1  0  0.197278  0  3.58655  0  0  0.120499  0  3.847292  0  0  0.147981  0  3.859632  0  0  0.172722  0.110246  0  3.841484  0
C  C38  1  0.80929717  0.12290424  0.45269535  1  0  0.21925  0  3.659728  0  0  0.172004  0  3.930034  0  0  0.184678  0  3.938048  0  0  0.156921  0.164112  0  3.922143  0
C  C39  1  0.69070451  0.67021029  0.54730450  1  0  0.219132  0  3.659718  0  0  0.17192  0  3.930036  0  0  0.1846  0  3.938033  0  0  0.15689  0.164032  0  3.922137  0
C  C40  1  0.19070480  0.87709707  0.54730567  1  0  0.219263  0  3.659738  0  0  0.172051  0  3.930038  0  0  0.184725  0  3.938053  0  0  0.156924  0.164155  0  3.922149  0
C  C41  1  0.30929607  0.32979103  0.45269554  1  0  0.21916  0  3.65973  0  0  0.171928  0  3.930041  0  0  0.184608  0  3.938042  0  0  0.156894  0.164034  0  3.922154  0
N  N42  1  0.67950362  0.01620032  0.40770482  1  0  -0.388715  0  3.412124  0  0  -0.3075  0  3.740198  0  0  -0.325645  0  3.739183  0  0  -0.402355  -0.295289  0  3.7376  0
N  N43  1  0.82049881  0.60849628  0.59229535  1  0  -0.388619  0  3.412084  0  0  -0.307392  0  3.740094  0  0  -0.325556  0  3.739126  0  0  -0.40234  -0.295199  0  3.737548  0
N  N44  1  0.32049835  0.98380099  0.59229619  1  0  -0.388717  0  3.412114  0  0  -0.307513  0  3.740179  0  0  -0.325657  0  3.739165  0  0  -0.40238  -0.295303  0  3.737581  0
N  N45  1  0.17950316  0.39150503  0.40770566  1  0  -0.388659  0  3.412128  0  0  -0.307432  0  3.74014  0  0  -0.325595  0  3.739171  0  0  -0.402346  -0.295237  0  3.737592  0
N  N46  1  0.76673307  0.03024971  0.24293360  1  0  0.01243  0  3.575871  0  0  0.132608  0  3.746936  0  0  0.086318  0  3.815281  0  0  -0.116146  0.139465  0  3.73227  0
N  N47  1  0.73326325  0.78731474  0.75706658  1  0  0.012411  0  3.575888  0  0  0.132601  0  3.746947  0  0  0.086197  0  3.815417  0  0  -0.116158  0.13945  0  3.732283  0
N  N48  1  0.23326891  0.96975160  0.75706742  1  0  0.012425  0  3.575704  0  0  0.132587  0  3.746776  0  0  0.086313  0  3.815109  0  0  -0.116156  0.139441  0  3.732104  0
N  N49  1  0.26673574  0.21268456  0.24293408  1  0  0.012438  0  3.575879  0  0  0.132639  0  3.746913  0  0  0.086255  0  3.815365  0  0  -0.116155  0.139483  0  3.732253  0
N  N50  1  0.86499176  0.13497718  0.35522530  1  0  -0.256616  0  2.839547  0  0  -0.2571  0  3.104313  0  0  -0.255108  0  3.124336  0  0  -0.212609  -0.25062  0  3.095107  0
N  N51  1  0.63500833  0.77975072  0.64477401  1  0  -0.256556  0  2.839568  0  0  -0.257043  0  3.104328  0  0  -0.25501  0  3.124358  0  0  -0.21259  -0.250562  0  3.09511  0
N  N52  1  0.13501012  0.86502313  0.64477436  1  0  -0.256643  0  2.839592  0  0  -0.257127  0  3.104351  0  0  -0.255143  0  3.124371  0  0  -0.212627  -0.250651  0  3.095144  0
N  N53  1  0.36499206  0.22024857  0.35522677  1  0  -0.256585  0  2.839542  0  0  -0.257081  0  3.104313  0  0  -0.255055  0  3.124341  0  0  -0.212614  -0.250599  0  3.095102  0
O  O54  1  0.57103007  0.31945940  0.68777972  1  0  -0.681905  0  1.42224  0  0  -0.682727  0  1.676377  0  0  -0.707995  0  1.66501  0  0  -0.505495  -0.665184  0  1.685902  0
O  O55  1  0.92896885  0.63168022  0.31222060  1  0  -0.681899  0  1.422241  0  0  -0.682712  0  1.676369  0  0  -0.707984  0  1.665009  0  0  -0.505494  -0.665176  0  1.685898  0
O  O56  1  0.42896902  0.68054091  0.31221972  1  0  -0.681926  0  1.422279  0  0  -0.682742  0  1.676403  0  0  -0.708016  0  1.665044  0  0  -0.505508  -0.665206  0  1.685923  0
O  O57  1  0.07102856  0.36831706  0.68777896  1  0  -0.681911  0  1.422202  0  0  -0.682729  0  1.676329  0  0  -0.708004  0  1.664974  0  0  -0.505507  -0.665197  0  1.68586  0
O  O58  1  0.36088131  0.42799460  0.90950417  1  0  -1.009741  0  1.921103  0  0  -1.006303  0  2.234936  0  0  -1.050916  0  2.23065  0  0  -0.611229  -0.97136  0  2.236462  0
O  O59  1  0.13911791  0.51849090  0.09049493  1  0  -1.009712  0  1.921121  0  0  -1.006268  0  2.234942  0  0  -1.050879  0  2.230656  0  0  -0.611208  -0.971327  0  2.236466  0
O  O60  1  0.63911898  0.57200369  0.09049611  1  0  -1.009729  0  1.921148  0  0  -1.006283  0  2.234967  0  0  -1.0509  0  2.230693  0  0  -0.611236  -0.971336  0  2.236482  0
O  O61  1  0.86088099  0.48150739  0.90950352  1  0  -1.009724  0  1.921092  0  0  -1.00629  0  2.234934  0  0  -1.050898  0  2.230638  0  0  -0.611228  -0.971349  0  2.236463  0
O  O62  1  0.55395069  0.58839913  0.83853204  1  0  -0.671063  0  1.395934  0  0  -0.673637  0  1.634708  0  0  -0.698635  0  1.626741  0  0  -0.518686  -0.655632  0  1.641269  0
O  O63  1  0.94605118  0.74986567  0.16146740  1  0  -0.671032  0  1.395946  0  0  -0.673616  0  1.63473  0  0  -0.698614  0  1.626769  0  0  -0.518672  -0.655615  0  1.641286  0
O  O64  1  0.44604969  0.41160017  0.16146702  1  0  -0.671062  0  1.395965  0  0  -0.673658  0  1.634747  0  0  -0.698654  0  1.626779  0  0  -0.518692  -0.655646  0  1.64128  0
O  O65  1  0.05395040  0.25013161  0.83853250  1  0  -0.671079  0  1.395971  0  0  -0.67365  0  1.634741  0  0  -0.698653  0  1.626779  0  0  -0.518691  -0.65564  0  1.641285  0
O  O66  1  0.64859064  0.28099178  0.90367285  1  0  -0.641513  0  2.106497  0  0  -0.597715  0  2.353814  0  0  -0.625853  0  2.344845  0  0  -0.317748  -0.577098  0  2.359437  0
O  O67  1  0.85141035  0.37731842  0.09632753  1  0  -0.641477  0  2.106458  0  0  -0.597688  0  2.353781  0  0  -0.625831  0  2.344816  0  0  -0.317724  -0.577065  0  2.359398  0
O  O68  1  0.35141113  0.71900752  0.09632546  1  0  -0.641501  0  2.106517  0  0  -0.597678  0  2.353858  0  0  -0.625819  0  2.344897  0  0  -0.317699  -0.577046  0  2.359487  0
O  O69  1  0.14858855  0.62267987  0.90367178  1  0  -0.64147  0  2.106577  0  0  -0.597655  0  2.353924  0  0  -0.625789  0  2.344955  0  0  -0.317689  -0.577025  0  2.359552  0
