# generated using pymatgen
data_Zn3H22C22S2(NO)12
_symmetry_space_group_name_H-M   'P 1'
_cell_length_a   8.90952052
_cell_length_b   11.05655722
_cell_length_c   16.78100000
_cell_angle_alpha   90.00000000
_cell_angle_beta   90.00000000
_cell_angle_gamma   113.75975085
_symmetry_Int_Tables_number   1
_chemical_formula_structural   Zn3H22C22S2(NO)12
_chemical_formula_sum   'Zn6 H44 C44 S4 N24 O24'
_cell_volume   1512.96355967
_cell_formula_units_Z   2
loop_
 _symmetry_equiv_pos_site_id
 _symmetry_equiv_pos_as_xyz
  1  'x, y, z'
loop_
 _atom_site_type_symbol
 _atom_site_label
 _atom_site_symmetry_multiplicity
 _atom_site_fract_x
 _atom_site_fract_y
 _atom_site_fract_z
 _atom_site_occupancy
 _atom_site_hle17_bader_spin_density
 _atom_site_hle17_ddec_charge
 _atom_site_hle17_ddec_spin_density
 _atom_site_hle17_ddec_sum_bond_order
 _atom_site_hle17_magmom
 _atom_site_hse06_10hf_bader_spin_density
 _atom_site_hse06_10hf_ddec_charge
 _atom_site_hse06_10hf_ddec_spin_density
 _atom_site_hse06_10hf_ddec_sum_bond_order
 _atom_site_hse06_10hf_magmom
 _atom_site_hse06_bader_spin_density
 _atom_site_hse06_ddec_charge
 _atom_site_hse06_ddec_spin_density
 _atom_site_hse06_ddec_sum_bond_order
 _atom_site_hse06_magmom
 _atom_site_pbe_bader_charge
 _atom_site_pbe_bader_spin_density
 _atom_site_pbe_cm5_charge
 _atom_site_pbe_ddec_charge
 _atom_site_pbe_ddec_spin_density
 _atom_site_pbe_ddec_sum_bond_order
 _atom_site_pbe_magmom
Zn  Zn0  1  0.53631550  0.44486670  0.06771229  1  0  1.048177  0  1.842357  0  0  0.860678  0  2.311225  0  0  0.907312  0  2.256039  0  1.301344  0  0.703099  0.82791  0  2.349238  0
Zn  Zn1  1  0.09144298  0.55510704  0.93231035  1  0  1.048533  0  1.843249  0  0  0.860812  0  2.312288  0  0  0.907423  0  2.257103  0  1.297709  0  0.703202  0.828056  0  2.350433  0
Zn  Zn2  1  0.59144991  0.55511198  0.56768727  1  0  1.048516  0  1.843248  0  0  0.860857  0  2.312227  0  0  0.907457  0  2.257042  0  1.297816  0  0.703216  0.828101  0  2.350373  0
Zn  Zn3  1  0.03631638  0.44487065  0.43228949  1  0  1.048248  0  1.842299  0  0  0.860736  0  2.311148  0  0  0.907369  0  2.255962  0  1.301136  0  0.703102  0.827968  0  2.349163  0
Zn  Zn4  1  0.63353633  0.99991939  0.00006972  1  0  1.070563  0  1.738379  0  0  0.899293  0  2.165867  0  0  0.943748  0  2.117634  0  1.318053  0  0.690845  0.868082  0  2.198607  0
Zn  Zn5  1  0.13353537  0.99991741  0.49993028  1  0  1.070545  0  1.738468  0  0  0.899266  0  2.165971  0  0  0.943724  0  2.117736  0  1.318084  0  0.690833  0.868053  0  2.198713  0
H  H6  1  0.90550478  0.68361815  0.04118467  1  0  0.10523  0  0.978637  0  0  0.10988  0  1.043723  0  0  0.114008  0  1.040401  0  0.181449  0  0.119352  0.10689  0  1.046216  0
H  H7  1  0.22168963  0.31629827  0.95897444  1  0  0.105698  0  0.978827  0  0  0.11012  0  1.044174  0  0  0.114261  0  1.040872  0  0.179768  0  0.119469  0.10712  0  1.046531  0
H  H8  1  0.72169010  0.31629926  0.54102259  1  0  0.105726  0  0.978868  0  0  0.110154  0  1.044217  0  0  0.114291  0  1.040915  0  0.179751  0  0.119482  0.107157  0  1.046568  0
H  H9  1  0.40551141  0.68362013  0.45881414  1  0  0.105278  0  0.978605  0  0  0.109914  0  1.043712  0  0  0.114042  0  1.040391  0  0.181477  0  0.119353  0.106926  0  1.046197  0
H  H10  1  0.12901625  0.82452720  0.13430904  1  0  0.083988  0  0.928764  0  0  0.094152  0  0.986525  0  0  0.097718  0  0.983551  0  0.095648  0  0.117378  0.091517  0  0.988919  0
H  H11  1  0.30464403  0.17549101  0.86593052  1  0  0.08445  0  0.927938  0  0  0.094785  0  0.985296  0  0  0.098283  0  0.982419  0  0.093209  0  0.117285  0.091627  0  0.98893  0
H  H12  1  0.80465581  0.17549892  0.63406710  1  0  0.084518  0  0.927898  0  0  0.094828  0  0.985269  0  0  0.098325  0  0.982394  0  0.093027  0  0.117277  0.091671  0  0.988902  0
H  H13  1  0.62901483  0.82453115  0.36568679  1  0  0.083903  0  0.928731  0  0  0.094123  0  0.986436  0  0  0.097702  0  0.983451  0  0.095679  0  0.117324  0.091486  0  0.988835  0
H  H14  1  0.83504992  0.65299688  0.32972946  1  0  0.097274  0  0.94216  0  0  0.102529  0  1.009525  0  0  0.106427  0  1.006401  0  0.100035  0  0.118396  0.099643  0  1.011955  0
H  H15  1  0.18264710  0.34708358  0.67039032  1  0  0.097178  0  0.941995  0  0  0.102423  0  1.009232  0  0  0.106206  0  1.00624  0  0.102456  0  0.118298  0.099648  0  1.01157  0
H  H16  1  0.68264469  0.34708556  0.82960610  1  0  0.097239  0  0.94204  0  0  0.102438  0  1.009298  0  0  0.106221  0  1.006304  0  0.102554  0  0.118295  0.099661  0  1.011641  0
H  H17  1  0.33504335  0.65299491  0.17026876  1  0  0.097322  0  0.942152  0  0  0.102593  0  1.009489  0  0  0.106488  0  1.006367  0  0.099972  0  0.118404  0.099705  0  1.011918  0
H  H18  1  0.99736754  0.16599641  0.02395030  1  0  0.085144  0  0.948348  0  0  0.089772  0  1.021571  0  0  0.09268  0  1.018488  0  0.131219  0  0.115888  0.087712  0  1.023741  0
H  H19  1  0.83152703  0.83390025  0.97611108  1  0  0.085119  0  0.948302  0  0  0.089628  0  1.021508  0  0  0.092547  0  1.018405  0  0.126686  0  0.115871  0.087647  0  1.023428  0
H  H20  1  0.33153115  0.83390618  0.52388833  1  0  0.085165  0  0.948294  0  0  0.089686  0  1.021469  0  0  0.092611  0  1.018359  0  0.126286  0  0.115913  0.087704  0  1.023391  0
H  H21  1  0.49736496  0.16599344  0.47605208  1  0  0.085182  0  0.948263  0  0  0.089836  0  1.021452  0  0  0.092746  0  1.018365  0  0.13118  0  0.115908  0.087774  0  1.023624  0
H  H22  1  0.63277218  0.89790876  0.16586497  1  0  0.088072  0  0.982654  0  0  0.090414  0  1.055396  0  0  0.093752  0  1.051704  0  0.192375  0  0.113105  0.087912  0  1.05814  0
H  H23  1  0.73483606  0.10201260  0.83431083  1  0  0.088254  0  0.981419  0  0  0.090463  0  1.054381  0  0  0.093892  0  1.050573  0  0.143209  0  0.113162  0.088033  0  1.056953  0
H  H24  1  0.23482774  0.10201162  0.66568917  1  0  0.088313  0  0.981311  0  0  0.090453  0  1.054329  0  0  0.093881  0  1.050526  0  0.143189  0  0.113178  0.088022  0  1.056901  0
H  H25  1  0.13277383  0.89790975  0.33413444  1  0  0.088099  0  0.982587  0  0  0.090445  0  1.055329  0  0  0.093784  0  1.051636  0  0.192393  0  0.113112  0.087943  0  1.058074  0
H  H26  1  0.81955402  0.95090578  0.28378643  1  0  0.102671  0  0.964658  0  0  0.110913  0  1.028763  0  0  0.113895  0  1.027777  0  0.114126  0  0.104956  0.108799  0  1.029589  0
H  H27  1  0.86853578  0.04908673  0.71635004  1  0  0.102189  0  0.964913  0  0  0.110116  0  1.029688  0  0  0.113096  0  1.028643  0  0.093288  0  0.104702  0.108329  0  1.029967  0
H  H28  1  0.36852795  0.04908673  0.78364996  1  0  0.102133  0  0.964856  0  0  0.110074  0  1.029634  0  0  0.11305  0  1.02859  0  0.093288  0  0.104669  0.108288  0  1.029911  0
H  H29  1  0.31956128  0.95090677  0.21621357  1  0  0.102709  0  0.964629  0  0  0.110936  0  1.028731  0  0  0.113916  0  1.027747  0  0.114159  0  0.10497  0.108821  0  1.029557  0
H  H30  1  0.10767270  0.12234279  0.26909004  1  0  0.10692  0  0.954752  0  0  0.115807  0  1.018895  0  0  0.118939  0  1.016172  0  0.119829  0  0.110685  0.113484  0  1.020894  0
H  H31  1  0.98530036  0.87765763  0.73094631  1  0  0.106354  0  0.955171  0  0  0.115869  0  1.018781  0  0  0.118936  0  1.016129  0  0.123871  0  0.110718  0.113635  0  1.020698  0
H  H32  1  0.48530708  0.87766652  0.76905369  1  0  0.106372  0  0.955215  0  0  0.115854  0  1.018853  0  0  0.118941  0  1.016179  0  0.123913  0  0.110745  0.113609  0  1.020781  0
H  H33  1  0.60767927  0.12234477  0.23091353  1  0  0.106886  0  0.954803  0  0  0.1158  0  1.018909  0  0  0.118936  0  1.016187  0  0.119826  0  0.110666  0.113476  0  1.020909  0
H  H34  1  0.41568686  0.38374867  0.33442048  1  0  0.354575  0  0.888687  0  0  0.329766  0  0.963162  0  0  0.338101  0  0.95575  0  0.534022  0  0.305038  0.32387  0  0.968362  0
H  H35  1  0.03250181  0.61635057  0.66560634  1  0  0.354319  0  0.889619  0  0  0.329358  0  0.964311  0  0  0.337701  0  0.956884  0  0.545441  0  0.305093  0.323471  0  0.969428  0
H  H36  1  0.53250003  0.61635156  0.83439187  1  0  0.354354  0  0.889596  0  0  0.329387  0  0.964273  0  0  0.33773  0  0.956844  0  0.545449  0  0.305118  0.3235  0  0.969389  0
H  H37  1  0.91568472  0.38374669  0.16558072  1  0  0.354677  0  0.888517  0  0  0.329771  0  0.963114  0  0  0.338147  0  0.955647  0  0.53401  0  0.305036  0.323874  0  0.968317  0
H  H38  1  0.60807553  0.49880449  0.36303736  1  0  0.340057  0  0.885385  0  0  0.32442  0  0.946328  0  0  0.330432  0  0.94236  0  0.493797  0  0.310609  0.320184  0  0.949102  0
H  H39  1  0.10969903  0.50119395  0.63701210  1  0  0.34041  0  0.885221  0  0  0.324139  0  0.946846  0  0  0.330146  0  0.94289  0  0.504668  0  0.310557  0.319924  0  0.949561  0
H  H40  1  0.60969774  0.50119593  0.86298492  1  0  0.340426  0  0.885284  0  0  0.324133  0  0.946936  0  0  0.33014  0  0.94298  0  0.504708  0  0.310556  0.319919  0  0.949648  0
H  H41  1  0.10807618  0.49880350  0.13696383  1  0  0.34011  0  0.885324  0  0  0.324463  0  0.946288  0  0  0.330475  0  0.942319  0  0.493783  0  0.310614  0.320228  0  0.949061  0
H  H42  1  0.39492041  0.07984833  0.05688755  1  0  0.420359  0  0.822317  0  0  0.401235  0  0.879685  0  0  0.409996  0  0.870073  0  0.612917  0  0.314829  0.394871  0  0.886771  0
H  H43  1  0.31495640  0.92000979  0.94313331  1  0  0.420617  0  0.823031  0  0  0.401326  0  0.880519  0  0  0.410089  0  0.870916  0  0.616279  0  0.314488  0.394956  0  0.887628  0
H  H44  1  0.81495139  0.92000880  0.55686967  1  0  0.420603  0  0.8231  0  0  0.401338  0  0.880538  0  0  0.410102  0  0.870933  0  0.616237  0  0.314486  0.394967  0  0.887647  0
H  H45  1  0.89492078  0.07984240  0.44311900  1  0  0.420406  0  0.822183  0  0  0.40123  0  0.879649  0  0  0.409993  0  0.870036  0  0.612205  0  0.314815  0.394865  0  0.886737  0
H  H46  1  0.56523810  0.14618009  0.09650200  1  0  0.420345  0  0.890665  0  0  0.3881  0  0.957101  0  0  0.398821  0  0.94169  0  0.643879  0  0.291973  0.380553  0  0.967924  0
H  H47  1  0.41915735  0.85397647  0.90346046  1  0  0.420463  0  0.889946  0  0  0.388826  0  0.956003  0  0  0.399525  0  0.940601  0  0.646442  0  0.29205  0.381266  0  0.966843  0
H  H48  1  0.91915543  0.85397943  0.59654192  1  0  0.420487  0  0.889915  0  0  0.388872  0  0.95594  0  0  0.39957  0  0.940539  0  0.64644  0  0.292065  0.381312  0  0.966781  0
H  H49  1  0.06523701  0.14618009  0.40350218  1  0  0.420311  0  0.890805  0  0  0.388085  0  0.957146  0  0  0.39881  0  0.941729  0  0.643945  0  0.291935  0.380537  0  0.967971  0
C  C50  1  0.88865410  0.67573629  0.10574400  1  0  0.104812  0  3.656201  0  0  0.074304  0  3.910568  0  0  0.078366  0  3.924578  0  0.454223  0  0.060292  0.07139  0  3.901434  0
C  C51  1  0.21281829  0.32417321  0.89441332  1  0  0.1045  0  3.657048  0  0  0.073802  0  3.91156  0  0  0.077825  0  3.925604  0  0.473268  0  0.060406  0.070974  0  3.901854  0
C  C52  1  0.71281925  0.32417519  0.60558429  1  0  0.104485  0  3.657058  0  0  0.073803  0  3.911541  0  0  0.077828  0  3.925586  0  0.47334  0  0.060427  0.070975  0  3.901839  0
C  C53  1  0.38865736  0.67573827  0.39425541  1  0  0.104686  0  3.656098  0  0  0.074151  0  3.910501  0  0  0.07822  0  3.924498  0  0.454147  0  0.060279  0.071238  0  3.90137  0
C  C54  1  0.01206236  0.75411122  0.15770872  1  0  0.064275  0  3.697821  0  0  0.038168  0  3.963397  0  0  0.041293  0  3.97755  0  0.572835  0  0.050756  0.035845  0  3.95423  0
C  C55  1  0.25808783  0.24587636  0.84248376  1  0  0.064497  0  3.697314  0  0  0.038568  0  3.962493  0  0  0.041637  0  3.976782  0  0.548304  0  0.051014  0.03591  0  3.954768  0
C  C56  1  0.75809041  0.24587932  0.65751505  1  0  0.064286  0  3.697395  0  0  0.03837  0  3.962579  0  0  0.041453  0  3.976842  0  0.548494  0  0.050945  0.035712  0  3.954853  0
C  C57  1  0.51206071  0.75411023  0.34228830  1  0  0.064513  0  3.69759  0  0  0.038392  0  3.963078  0  0  0.041472  0  3.977305  0  0.572938  0  0.050887  0.036067  0  3.953914  0
C  C58  1  0.84962428  0.65734297  0.26498361  1  0  0.057599  0  3.641597  0  0  0.02476  0  3.903082  0  0  0.02711  0  3.917246  0  0.553801  0  0.055937  0.023178  0  3.893692  0
C  C59  1  0.19265631  0.34265843  0.73514272  1  0  0.05749  0  3.641426  0  0  0.025455  0  3.902371  0  0  0.02778  0  3.916626  0  0.548343  0  0.055773  0.022969  0  3.893754  0
C  C60  1  0.69265565  0.34265942  0.76485370  1  0  0.057522  0  3.641494  0  0  0.025535  0  3.902359  0  0  0.027865  0  3.916608  0  0.548552  0  0.055897  0.02305  0  3.893741  0
C  C61  1  0.34961883  0.65734100  0.23501520  1  0  0.057579  0  3.641915  0  0  0.024718  0  3.903374  0  0  0.027064  0  3.917556  0  0.553773  0  0.055965  0.023137  0  3.893971  0
C  C62  1  0.72589818  0.57526132  0.21397712  1  0  0.10669  0  3.730415  0  0  0.107825  0  3.974972  0  0  0.110351  0  3.99258  0  0.494581  0  0.132453  0.105611  0  3.963359  0
C  C63  1  0.15088690  0.42471637  0.78610154  1  0  0.10823  0  3.731221  0  0  0.108628  0  3.976133  0  0  0.111209  0  3.993613  0  0.495215  0  0.132997  0.105939  0  3.965419  0
C  C64  1  0.65088400  0.42471736  0.71389488  1  0  0.108079  0  3.731397  0  0  0.108556  0  3.976212  0  0  0.111137  0  3.993687  0  0.49496  0  0.132909  0.105866  0  3.965497  0
C  C65  1  0.22589807  0.57526330  0.28602348  1  0  0.106662  0  3.730566  0  0  0.107773  0  3.975091  0  0  0.110299  0  3.992702  0  0.494553  0  0.132451  0.105582  0  3.96346  0
C  C66  1  0.56737329  0.47393255  0.24106370  1  0  0.401638  0  3.856159  0  0  0.359565  0  4.130533  0  0  0.380192  0  4.142082  0  1.180021  0  0.241839  0.346056  0  4.122149  0
C  C67  1  0.09382067  0.52610048  0.75897622  1  0  0.400755  0  3.858597  0  0  0.357942  0  4.134025  0  0  0.378513  0  4.145643  0  1.168191  0  0.241026  0.344501  0  4.125787  0
C  C68  1  0.59381876  0.52610344  0.74102080  1  0  0.400638  0  3.85858  0  0  0.357806  0  4.134026  0  0  0.378384  0  4.145631  0  1.168756  0  0.240915  0.344366  0  4.125787  0
C  C69  1  0.06737256  0.47393551  0.25893689  1  0  0.401698  0  3.856065  0  0  0.359698  0  4.130316  0  0  0.380309  0  4.141902  0  1.180406  0  0.241893  0.346166  0  4.12196  0
C  C70  1  0.24569109  0.25280856  0.13419462  1  0  0.442229  0  3.900735  0  0  0.40913  0  4.183253  0  0  0.433104  0  4.191239  0  1.278896  0  0.199113  0.393161  0  4.176837  0
C  C71  1  0.99300648  0.74716616  0.86580657  1  0  0.442596  0  3.902687  0  0  0.409704  0  4.185008  0  0  0.433685  0  4.192986  0  1.284568  0  0.199602  0.393597  0  4.178627  0
C  C72  1  0.49302029  0.74717802  0.63419105  1  0  0.442325  0  3.90285  0  0  0.409541  0  4.184981  0  0  0.433522  0  4.192957  0  1.284564  0  0.199522  0.393436  0  4.178597  0
C  C73  1  0.74569017  0.25281350  0.36580776  1  0  0.442295  0  3.900878  0  0  0.409172  0  4.183391  0  0  0.433146  0  4.19138  0  1.278892  0  0.199152  0.393202  0  4.176976  0
C  C74  1  0.07576235  0.15401353  0.14512306  1  0  -0.070012  0  3.762724  0  0  -0.04591  0  3.9951  0  0  -0.054798  0  4.017542  0  -0.072833  0  -0.00642  -0.040588  0  3.980294  0
C  C75  1  0.92176605  0.84589795  0.85491747  1  0  -0.070028  0  3.762899  0  0  -0.046091  0  3.995339  0  0  -0.055015  0  4.017792  0  -0.003812  0  -0.007055  -0.041382  0  3.981862  0
C  C76  1  0.42177564  0.84590586  0.64508194  1  0  -0.07006  0  3.762554  0  0  -0.046168  0  3.994968  0  0  -0.055092  0  4.017424  0  -0.004128  0  -0.007064  -0.041462  0  3.98149  0
C  C77  1  0.57576331  0.15401550  0.35488052  1  0  -0.070034  0  3.762924  0  0  -0.045847  0  3.995173  0  0  -0.054737  0  4.017619  0  -0.072708  0  -0.006425  -0.040526  0  3.980365  0
C  C78  1  0.96316946  0.11991973  0.08232167  1  0  0.112175  0  3.65892  0  0  0.069477  0  3.910935  0  0  0.077868  0  3.927481  0  0.487032  0  0.047378  0.063434  0  3.900997  0
C  C79  1  0.84333333  0.88000163  0.91775043  1  0  0.111755  0  3.660213  0  0  0.069103  0  3.912193  0  0  0.077494  0  3.92877  0  0.466612  0  0.047418  0.063841  0  3.901986  0
C  C80  1  0.34333583  0.88000657  0.58224838  1  0  0.111828  0  3.659928  0  0  0.069196  0  3.911867  0  0  0.077573  0  3.928465  0  0.46737  0  0.0474  0.063936  0  3.901662  0
C  C81  1  0.46316949  0.11991973  0.41768071  1  0  0.112194  0  3.658972  0  0  0.069432  0  3.910974  0  0  0.077831  0  3.927508  0  0.486978  0  0.047371  0.06339  0  3.901037  0
C  C82  1  0.75791233  0.97185260  0.16182587  1  0  0.132266  0  3.67569  0  0  0.099458  0  3.927365  0  0  0.107361  0  3.944767  0  0.438957  0  0.044223  0.094451  0  3.915514  0
C  C83  1  0.78605365  0.02808062  0.83831416  1  0  0.131206  0  3.675877  0  0  0.098172  0  3.928005  0  0  0.106018  0  3.945283  0  0.466955  0  0.043875  0.093503  0  3.915571  0
C  C84  1  0.28604919  0.02808062  0.66168703  1  0  0.131144  0  3.67587  0  0  0.0982  0  3.928001  0  0  0.106045  0  3.945271  0  0.466794  0  0.04385  0.093529  0  3.91557  0
C  C85  1  0.25791398  0.97185359  0.33817472  1  0  0.132226  0  3.675756  0  0  0.09938  0  3.927448  0  0  0.107285  0  3.944847  0  0.439015  0  0.044217  0.094372  0  3.915599  0
C  C86  1  0.86261737  0.00092199  0.22727311  1  0  -0.115773  0  3.74053  0  0  -0.130687  0  3.999687  0  0  -0.139148  0  4.022074  0  -0.046342  0  -0.085019  -0.125395  0  3.984667  0
C  C87  1  0.86167836  0.99904977  0.77284131  1  0  -0.115153  0  3.740253  0  0  -0.129868  0  3.999585  0  0  -0.138211  0  4.021888  0  -0.045921  0  -0.084738  -0.124504  0  3.984487  0
C  C88  1  0.36167552  0.99905076  0.72715631  1  0  -0.115122  0  3.740324  0  0  -0.129876  0  3.999656  0  0  -0.138214  0  4.021961  0  -0.045733  0  -0.084747  -0.124512  0  3.984552  0
C  C89  1  0.36262126  0.00092298  0.27272630  1  0  -0.115772  0  3.74062  0  0  -0.130644  0  3.99975  0  0  -0.139103  0  4.022137  0  -0.046369  0  -0.085002  -0.125353  0  3.98473  0
C  C90  1  0.02213186  0.09447167  0.21940468  1  0  -0.003811  0  3.666111  0  0  -0.033476  0  3.912526  0  0  -0.027458  0  3.928499  0  0.004538  0  -0.056406  -0.036941  0  3.901684  0
C  C91  1  0.92762010  0.90548131  0.78064895  1  0  -0.002996  0  3.665069  0  0  -0.032971  0  3.911105  0  0  -0.026951  0  3.92718  0  -0.025345  0  -0.056239  -0.036801  0  3.901523  0
C  C92  1  0.42762422  0.90548724  0.71935165  1  0  -0.002961  0  3.665008  0  0  -0.032903  0  3.911055  0  0  -0.026897  0  3.927114  0  -0.025529  0  -0.056241  -0.036726  0  3.901483  0
C  C93  1  0.52213358  0.09447068  0.28059710  1  0  -0.003814  0  3.666266  0  0  -0.033517  0  3.912602  0  0  -0.027505  0  3.928578  0  0.004486  0  -0.056391  -0.036983  0  3.901767  0
S  S94  1  0.76223200  0.32691250  0.00992253  1  0  1.559067  0  5.82418  0  0  1.433429  0  6.356782  0  0  1.488651  0  6.322989  0  3.807939  0  0.566409  1.395215  0  6.378973  0
S  S95  1  0.43535384  0.67317093  0.99009475  1  0  1.559421  0  5.822695  0  0  1.433723  0  6.355204  0  0  1.488989  0  6.321489  0  3.819464  0  0.566689  1.395442  0  6.377473  0
S  S96  1  0.93536140  0.67317488  0.50990704  1  0  1.559679  0  5.822295  0  0  1.434066  0  6.35473  0  0  1.489324  0  6.321011  0  3.819286  0  0.566808  1.395791  0  6.377003  0
S  S97  1  0.26223114  0.32691744  0.49007866  1  0  1.559089  0  5.824019  0  0  1.433461  0  6.356628  0  0  1.488685  0  6.322828  0  3.807925  0  0.566423  1.395246  0  6.378816  0
N  N98  1  0.74812541  0.58692403  0.13424051  1  0  -0.302352  0  3.249049  0  0  -0.239822  0  3.513299  0  0  -0.252447  0  3.527474  0  -1.209962  0  -0.296318  -0.231039  0  3.503962  0
N  N99  1  0.16116645  0.41297955  0.86585305  1  0  -0.303569  0  3.249216  0  0  -0.240149  0  3.512732  0  0  -0.252785  0  3.526938  0  -1.20428  0  -0.296542  -0.230391  0  3.503095  0
N  N100  1  0.66116193  0.41297955  0.63414397  1  0  -0.303473  0  3.24935  0  0  -0.240108  0  3.512853  0  0  -0.252747  0  3.527062  0  -1.204579  0  -0.296495  -0.230351  0  3.503218  0
N  N101  1  0.24812805  0.58692699  0.36575949  1  0  -0.302326  0  3.248989  0  0  -0.239767  0  3.513209  0  0  -0.252387  0  3.527379  0  -1.209908  0  -0.296365  -0.230991  0  3.503868  0
N  N102  1  0.99245555  0.74544472  0.23678565  1  0  -0.245866  0  3.096283  0  0  -0.209651  0  3.366957  0  0  -0.217112  0  3.382987  0  -1.207417  0  -0.292236  -0.204259  0  3.355978  0
N  N103  1  0.24734943  0.25456064  0.76339431  1  0  -0.245858  0  3.095053  0  0  -0.209744  0  3.365364  0  0  -0.217198  0  3.381368  0  -1.192115  0  -0.292493  -0.204473  0  3.355339  0
N  N104  1  0.74735187  0.25456558  0.73660271  1  0  -0.245781  0  3.095055  0  0  -0.209688  0  3.365351  0  0  -0.217146  0  3.381358  0  -1.192042  0  -0.292524  -0.204416  0  3.355323  0
N  N105  1  0.49245109  0.74544472  0.26321197  1  0  -0.245986  0  3.096411  0  0  -0.209759  0  3.367094  0  0  -0.217212  0  3.383117  0  -1.207451  0  -0.292291  -0.204365  0  3.356113  0
N  N106  1  0.52853020  0.45298771  0.31846136  1  0  -0.640776  0  3.131277  0  0  -0.603161  0  3.373049  0  0  -0.625278  0  3.373921  0  -1.312251  0  -0.561935  -0.587709  0  3.372121  0
N  N107  1  0.07601528  0.54706311  0.68157261  1  0  -0.640622  0  3.132306  0  0  -0.601689  0  3.374473  0  0  -0.623801  0  3.375409  0  -1.333743  0  -0.561443  -0.586262  0  3.373258  0
N  N108  1  0.57601238  0.54706410  0.81842560  1  0  -0.640651  0  3.132378  0  0  -0.601708  0  3.374605  0  0  -0.623821  0  3.375531  0  -1.334122  0  -0.561451  -0.586282  0  3.373393  0
N  N109  1  0.02852637  0.45298672  0.18154103  1  0  -0.640905  0  3.131168  0  0  -0.603198  0  3.372958  0  0  -0.625354  0  3.373763  0  -1.312557  0  -0.561904  -0.587739  0  3.372041  0
N  N110  1  0.46918917  0.40998827  0.18263155  1  0  -0.362496  0  3.417493  0  0  -0.291546  0  3.718695  0  0  -0.313314  0  3.736859  0  -0.855687  0  -0.273071  -0.27696  0  3.706147  0
N  N111  1  0.05955674  0.59009219  0.81738037  1  0  -0.363249  0  3.419459  0  0  -0.292077  0  3.72124  0  0  -0.313797  0  3.739348  0  -0.852391  0  -0.273302  -0.277459  0  3.708677  0
N  N112  1  0.55956030  0.59009713  0.68261725  1  0  -0.363116  0  3.419304  0  0  -0.292018  0  3.721177  0  0  -0.313741  0  3.739285  0  -0.852569  0  -0.273226  -0.277401  0  3.708613  0
N  N113  1  0.96918501  0.40999124  0.31737143  1  0  -0.3626  0  3.417566  0  0  -0.291688  0  3.718784  0  0  -0.313452  0  3.73695  0  -0.855701  0  -0.27321  -0.277096  0  3.706243  0
N  N114  1  0.31872074  0.31568559  0.20046183  1  0  -0.333083  0  2.994634  0  0  -0.31633  0  3.279934  0  0  -0.334556  0  3.30091  0  -0.727299  0  -0.257678  -0.303666  0  3.265241  0
N  N115  1  0.00342051  0.68440871  0.79952565  1  0  -0.332412  0  2.99396  0  0  -0.315858  0  3.279382  0  0  -0.33398  0  3.300262  0  -0.72514  0  -0.257109  -0.30268  0  3.264317  0
N  N116  1  0.50342407  0.68441365  0.70047196  1  0  -0.332339  0  2.993826  0  0  -0.3158  0  3.279223  0  0  -0.333922  0  3.300106  0  -0.725012  0  -0.257154  -0.302623  0  3.264156  0
N  N117  1  0.81872157  0.31568954  0.29953996  1  0  -0.333082  0  2.994839  0  0  -0.316319  0  3.280129  0  0  -0.334546  0  3.301112  0  -0.727329  0  -0.257631  -0.303654  0  3.265434  0
N  N118  1  0.80678820  0.03258482  0.09108814  1  0  -0.34297  0  3.313742  0  0  -0.258708  0  3.580179  0  0  -0.279733  0  3.598905  0  -1.263133  0  -0.330929  -0.244482  0  3.567138  0
N  N119  1  0.77426174  0.96733951  0.90903522  1  0  -0.342712  0  3.315824  0  0  -0.258221  0  3.5821  0  0  -0.279196  0  3.600791  0  -1.254321  0  -0.330386  -0.244046  0  3.56844  0
N  N120  1  0.27425953  0.96733951  0.59096419  1  0  -0.342753  0  3.315843  0  0  -0.258293  0  3.582115  0  0  -0.279265  0  3.600801  0  -1.254305  0  -0.330385  -0.244119  0  3.568457  0
N  N121  1  0.30678612  0.03258284  0.40891246  1  0  -0.343  0  3.313771  0  0  -0.258732  0  3.580237  0  0  -0.27976  0  3.598968  0  -1.263156  0  -0.33096  -0.244506  0  3.567197  0
O  O122  1  0.30998835  0.27248160  0.06333711  1  0  -0.646449  0  2.009949  0  0  -0.576516  0  2.256964  0  0  -0.605328  0  2.247457  0  -1.172625  0  -0.331257  -0.555933  0  2.262587  0
O  O123  1  0.03747009  0.72744076  0.93669388  1  0  -0.646799  0  2.010732  0  0  -0.57685  0  2.257303  0  0  -0.605644  0  2.247759  0  -1.166822  0  -0.331564  -0.556338  0  2.262994  0
O  O124  1  0.53749368  0.72745657  0.56330433  1  0  -0.646737  0  2.011002  0  0  -0.576786  0  2.257461  0  0  -0.605578  0  2.247918  0  -1.166936  0  -0.33144  -0.556272  0  2.263146  0
O  O125  1  0.80998491  0.27249049  0.43666587  1  0  -0.646488  0  2.010012  0  0  -0.576556  0  2.257025  0  0  -0.605367  0  2.247515  0  -1.172711  0  -0.331289  -0.555971  0  2.262649  0
O  O126  1  0.65503968  0.39265134  0.97849830  1  0  -0.724354  0  1.979815  0  0  -0.652211  0  2.258815  0  0  -0.674603  0  2.235818  0  -1.328061  0  -0.361072  -0.636218  0  2.273914  0
O  O127  1  0.26241745  0.60715539  0.02145105  1  0  -0.725499  0  1.980014  0  0  -0.652739  0  2.25852  0  0  -0.675146  0  2.235566  0  -1.326207  0  -0.361389  -0.636857  0  2.273766  0
O  O128  1  0.76242891  0.60715144  0.47854657  1  0  -0.725532  0  1.979942  0  0  -0.652784  0  2.258379  0  0  -0.6752  0  2.235459  0  -1.326195  0  -0.361381  -0.636891  0  2.273591  0
O  O129  1  0.15502579  0.39264146  0.52150527  1  0  -0.724539  0  1.979879  0  0  -0.65235  0  2.258829  0  0  -0.674744  0  2.235832  0  -1.3282  0  -0.361175  -0.636387  0  2.273995  0
O  O130  1  0.73721174  0.20957196  0.96025505  1  0  -0.727918  0  2.013069  0  0  -0.666326  0  2.288383  0  0  -0.689432  0  2.269676  0  -1.341727  0  -0.350326  -0.649827  0  2.300417  0
O  O131  1  0.52724063  0.79062116  0.03978488  1  0  -0.727639  0  2.013744  0  0  -0.666448  0  2.289447  0  0  -0.689633  0  2.270828  0  -1.34588  0  -0.350475  -0.649925  0  2.301586  0
O  O132  1  0.02724362  0.79062709  0.46021751  1  0  -0.727748  0  2.013769  0  0  -0.666555  0  2.28943  0  0  -0.689741  0  2.270815  0  -1.345543  0  -0.350492  -0.650035  0  2.301569  0
O  O133  1  0.23723306  0.20958086  0.53974555  1  0  -0.727913  0  2.013084  0  0  -0.666281  0  2.288349  0  0  -0.689403  0  2.26965  0  -1.341623  0  -0.350277  -0.649761  0  2.300347  0
O  O134  1  0.93727200  0.42256901  0.00765568  1  0  -0.717834  0  2.07787  0  0  -0.640783  0  2.373723  0  0  -0.665039  0  2.351273  0  -1.34369  0  -0.356391  -0.623832  0  2.388819  0
O  O135  1  0.51513041  0.57779803  0.99250223  1  0  -0.718346  0  2.077609  0  0  -0.641074  0  2.373217  0  0  -0.665164  0  2.350535  0  -1.349623  0  -0.356594  -0.623988  0  2.388237  0
O  O136  1  0.01514773  0.57780791  0.50750074  1  0  -0.718516  0  2.07746  0  0  -0.641244  0  2.373049  0  0  -0.665329  0  2.350362  0  -1.349528  0  -0.356669  -0.624145  0  2.388037  0
O  O137  1  0.43726683  0.42258779  0.49234074  1  0  -0.717768  0  2.077803  0  0  -0.640749  0  2.373651  0  0  -0.664983  0  2.351177  0  -1.343739  0  -0.356355  -0.623806  0  2.388753  0
O  O138  1  0.71947900  0.29010906  0.09506525  1  0  -0.730679  0  1.979444  0  0  -0.672195  0  2.22828  0  0  -0.693059  0  2.210967  0  -1.339034  0  -0.344332  -0.657443  0  2.239922  0
O  O139  1  0.42953609  0.70989531  0.90493832  1  0  -0.729794  0  1.977893  0  0  -0.671774  0  2.22716  0  0  -0.692776  0  2.209933  0  -1.338989  0  -0.34446  -0.657159  0  2.238894  0
O  O140  1  0.92953431  0.70989630  0.59506287  1  0  -0.729672  0  1.977671  0  0  -0.67179  0  2.227027  0  0  -0.692776  0  2.209788  0  -1.339063  0  -0.344463  -0.657178  0  2.238763  0
O  O141  1  0.21947292  0.29010807  0.40493594  1  0  -0.73061  0  1.97926  0  0  -0.672219  0  2.228161  0  0  -0.69308  0  2.210836  0  -1.338963  0  -0.344365  -0.657464  0  2.239798  0
O  O142  1  0.47906990  0.05655651  0.08153209  1  0  -0.804237  0  1.86736  0  0  -0.746109  0  2.062516  0  0  -0.766952  0  2.034871  0  -1.232837  0  -0.565719  -0.731418  0  2.081742  0
O  O143  1  0.42246944  0.94350616  0.91851082  1  0  -0.804887  0  1.868188  0  0  -0.747048  0  2.062996  0  0  -0.76782  0  2.035334  0  -1.23793  0  -0.565355  -0.732181  0  2.082103  0
O  O144  1  0.92246640  0.94350913  0.58149157  1  0  -0.804914  0  1.868205  0  0  -0.747104  0  2.062953  0  0  -0.767876  0  2.035292  0  -1.237928  0  -0.565363  -0.732238  0  2.082064  0
O  O145  1  0.97907113  0.05655454  0.41847208  1  0  -0.804238  0  1.867438  0  0  -0.746072  0  2.062551  0  0  -0.766918  0  2.034903  0  -1.232163  0  -0.565645  -0.731378  0  2.081779  0
