# generated using pymatgen
data_Cd3H98C94(N5O12)2
_symmetry_space_group_name_H-M   'P 1'
_cell_length_a   9.98630184
_cell_length_b   15.63678266
_cell_length_c   16.23454633
_cell_angle_alpha   109.92134890
_cell_angle_beta   105.32432727
_cell_angle_gamma   86.98656680
_symmetry_Int_Tables_number   1
_chemical_formula_structural   Cd3H98C94(N5O12)2
_chemical_formula_sum   'Cd3 H98 C94 N10 O24'
_cell_volume   2296.68202247
_cell_formula_units_Z   1
loop_
 _symmetry_equiv_pos_site_id
 _symmetry_equiv_pos_as_xyz
  1  'x, y, z'
loop_
 _atom_site_type_symbol
 _atom_site_label
 _atom_site_symmetry_multiplicity
 _atom_site_fract_x
 _atom_site_fract_y
 _atom_site_fract_z
 _atom_site_occupancy
 _atom_site_pbe_bader_charge
 _atom_site_pbe_bader_spin_density
 _atom_site_pbe_cm5_charge
 _atom_site_pbe_ddec_charge
 _atom_site_pbe_ddec_spin_density
 _atom_site_pbe_ddec_sum_bond_order
 _atom_site_pbe_magmom
Cd  Cd0  1  0.49999879  0.50000009  0.99999802  1  1.253951  0  0.786677  0.77678  0  2.358703  0
Cd  Cd1  1  0.94233733  0.77467897  0.55769068  1  1.230456  0  0.765191  0.790143  0  2.212955  0
Cd  Cd2  1  0.05765836  0.22531671  0.44230295  1  1.230168  0  0.765177  0.790046  0  2.212961  0
H  H3  1  0.06458792  0.15344951  0.65162537  1  0.62271  0  0.302119  0.358721  0  0.938702  0
H  H4  1  0.93542608  0.84654869  0.34837907  1  0.622438  0  0.30215  0.358812  0  0.93871  0
H  H5  1  0.04788206  0.09710445  0.80808383  1  0.585875  0  0.310356  0.341004  0  0.943202  0
H  H6  1  0.95213157  0.90288763  0.19192162  1  0.586026  0  0.31034  0.341049  0  0.943113  0
H  H7  1  0.11389411  0.88168652  0.93824270  1  0.607146  0  0.324059  0.356144  0  0.888988  0
H  H8  1  0.88609711  0.11831672  0.06175340  1  0.607081  0  0.32407  0.356198  0  0.888976  0
H  H9  1  0.90375159  0.57036441  0.88579556  1  0.641624  0  0.295795  0.357557  0  0.972665  0
H  H10  1  0.09625401  0.42963593  0.11420348  1  0.641605  0  0.295843  0.357661  0  0.972532  0
H  H11  1  0.27347185  0.57814854  0.44862608  1  0.628847  0  0.28993  0.346964  0  0.976438  0
H  H12  1  0.72652408  0.42185600  0.55137851  1  0.628929  0  0.289971  0.347124  0  0.976255  0
H  H13  1  0.80924189  0.41903576  0.70679803  1  0.124483  0  0.106087  0.108626  0  1.027232  0
H  H14  1  0.19075051  0.58096337  0.29320551  1  0.124456  0  0.106142  0.108743  0  1.027287  0
H  H15  1  0.81552224  0.12597760  0.59924909  1  0.111081  0  0.116872  0.127855  0  0.980531  0
H  H16  1  0.18448220  0.87402344  0.40074693  1  0.111132  0  0.116884  0.127808  0  0.98049  0
H  H17  1  0.64849661  0.25694287  0.82819187  1  0.058116  0  0.09695  0.093287  0  1.047271  0
H  H18  1  0.35150390  0.74304663  0.17180348  1  0.058377  0  0.096976  0.093335  0  1.047287  0
H  H19  1  0.80587535  0.05591763  0.73098100  1  0.0159  0  0.095571  0.060476  0  0.993493  0
H  H20  1  0.19413421  0.94407858  0.26902031  1  0.015595  0  0.095614  0.060544  0  0.99342  0
H  H21  1  0.65827276  0.09404388  0.77418950  1  0.028284  0  0.085225  0.036945  0  1.02013  0
H  H22  1  0.34174086  0.90595296  0.22581013  1  0.028205  0  0.085177  0.036906  0  1.02017  0
H  H23  1  0.58071113  0.93990057  0.68992775  1  0.029593  0  0.08994  0.028348  0  1.037428  0
H  H24  1  0.41928191  0.06010605  0.31007774  1  0.029724  0  0.089919  0.028298  0  1.037211  0
H  H25  1  0.39063613  0.92453214  0.54943856  1  0.065211  0  0.091308  0.131562  0  0.999621  0
H  H26  1  0.60936276  0.07548464  0.45056680  1  0.065102  0  0.091306  0.131484  0  0.999695  0
H  H27  1  0.48038512  0.82092060  0.53687214  1  0.019978  0  0.086753  0.123641  0  1.016701  0
H  H28  1  0.51958828  0.17908488  0.46313328  1  0.020003  0  0.086734  0.123656  0  1.016638  0
H  H29  1  0.51297601  0.89746839  0.48349175  1  0.07287  0  0.096732  0.146495  0  1.002633  0
H  H30  1  0.48702306  0.10253476  0.51651530  1  0.072907  0  0.096711  0.146483  0  1.002779  0
H  H31  1  0.17477419  0.50033271  0.96819024  1  0.110691  0  0.114879  0.084258  0  1.031432  0
H  H32  1  0.82522441  0.49966362  0.03179970  1  0.110157  0  0.114839  0.084289  0  1.031506  0
H  H33  1  0.96482134  0.39586968  0.89798401  1  0.105601  0  0.107584  0.114319  0  1.017403  0
H  H34  1  0.03518047  0.60412730  0.10200721  1  0.105565  0  0.107573  0.114292  0  1.017377  0
H  H35  1  0.98690277  0.23680018  0.79798015  1  0.110719  0  0.103077  0.0924  0  1.067688  0
H  H36  1  0.01310154  0.76319609  0.20201920  1  0.110627  0  0.103049  0.092356  0  1.067629  0
H  H37  1  0.42246536  0.30275949  0.84938045  1  0.083214  0  0.113026  0.086036  0  1.034005  0
H  H38  1  0.57753928  0.69723882  0.15062209  1  0.083221  0  0.113029  0.086066  0  1.034017  0
H  H39  1  0.34210122  0.07236901  0.66991195  1  0.066632  0  0.0965  0.147588  0  1.005417  0
H  H40  1  0.65791455  0.92763939  0.33009303  1  0.06644  0  0.096529  0.147672  0  1.005337  0
H  H41  1  0.43776304  0.16981208  0.75445736  1  -0.00073  0  0.086161  0.121687  0  1.047032  0
H  H42  1  0.56224402  0.83019097  0.24554586  1  -0.00096  0  0.086161  0.121703  0  1.047076  0
H  H43  1  0.30962323  0.18121191  0.66038554  1  0.05216  0  0.096884  0.146244  0  1.002731  0
H  H44  1  0.69038718  0.81879178  0.33962144  1  0.052085  0  0.096825  0.146204  0  1.002774  0
H  H45  1  0.35022433  0.20103367  0.94883961  1  0.063002  0  0.094215  0.138613  0  1.015982  0
H  H46  1  0.64979496  0.79895697  0.05115877  1  0.062881  0  0.094221  0.138543  0  1.016016  0
H  H47  1  0.46752555  0.13871311  0.88741306  1  0.007161  0  0.08891  0.122849  0  1.021172  0
H  H48  1  0.53248933  0.86127623  0.11258180  1  0.007055  0  0.088887  0.122821  0  1.021164  0
H  H49  1  0.38888314  0.08855819  0.94747796  1  0.011051  0  0.092864  0.136233  0  0.986467  0
H  H50  1  0.61113522  0.91143314  0.05252114  1  0.010646  0  0.092804  0.136229  0  0.986373  0
H  H51  1  0.48456559  0.98985400  0.82387901  1  0.069388  0  0.106257  0.101795  0  1.003512  0
H  H52  1  0.51543817  0.01013546  0.17611925  1  0.06928  0  0.106348  0.101924  0  1.003519  0
H  H53  1  0.49273378  0.82687307  0.73089011  1  0.086966  0  0.112104  0.117407  0  0.995387  0
H  H54  1  0.50726462  0.17311646  0.26910434  1  0.086986  0  0.112073  0.117372  0  0.995474  0
H  H55  1  0.26936641  0.74332154  0.62566823  1  0.110225  0  0.113829  0.083576  0  1.042136  0
H  H56  1  0.73062617  0.25667214  0.37432737  1  0.110424  0  0.113771  0.083488  0  1.042096  0
H  H57  1  0.04281184  0.97171678  0.69755511  1  0.123959  0  0.117168  0.088432  0  1.036434  0
H  H58  1  0.95719422  0.02828083  0.30243754  1  0.12394  0  0.117144  0.088408  0  1.03642  0
H  H59  1  0.57337359  0.60341984  0.87368758  1  0.146798  0  0.112581  0.090108  0  1.046228  0
H  H60  1  0.42664170  0.39659470  0.12631936  1  0.146678  0  0.112531  0.090005  0  1.046239  0
H  H61  1  0.47168093  0.71688822  0.79735941  1  0.059899  0  0.104897  0.107981  0  1.01708  0
H  H62  1  0.52832812  0.28312503  0.20264807  1  0.059454  0  0.104817  0.107869  0  1.016997  0
H  H63  1  0.24683906  0.78695194  0.82198474  1  0.08708  0  0.102045  0.099448  0  1.043859  0
H  H64  1  0.75316271  0.21305322  0.17801349  1  0.087193  0  0.101997  0.099357  0  1.044019  0
H  H65  1  0.25522204  0.63414818  0.99901825  1  0.093672  0  0.113245  0.084765  0  1.05127  0
H  H66  1  0.74478636  0.36585895  0.00098526  1  0.093896  0  0.113238  0.084754  0  1.051319  0
H  H67  1  0.18081863  0.83619733  0.06673696  1  0.02269  0  0.081889  0.112577  0  1.021488  0
H  H68  1  0.81917385  0.16380589  0.93326301  1  0.022647  0  0.081914  0.112602  0  1.021532  0
H  H69  1  0.10999039  0.72918286  0.05417624  1  0.059359  0  0.092681  0.140273  0  1.035261  0
H  H70  1  0.89000390  0.27081829  0.94582208  1  0.059224  0  0.092675  0.140258  0  1.035176  0
H  H71  1  0.99708165  0.81696179  0.03806424  1  0.077471  0  0.093263  0.150435  0  1.028957  0
H  H72  1  0.00291554  0.18303865  0.96193179  1  0.077518  0  0.093251  0.150428  0  1.028944  0
H  H73  1  0.74770033  0.66338153  0.82467464  1  0.063022  0  0.091942  0.137856  0  1.012869  0
H  H74  1  0.25230644  0.33660994  0.17531978  1  0.062477  0  0.092004  0.137918  0  1.012909  0
H  H75  1  0.81154786  0.77485017  0.84319030  1  0.072136  0  0.09351  0.14428  0  1.010762  0
H  H76  1  0.18844275  0.22514422  0.15680588  1  0.072158  0  0.093514  0.144307  0  1.010765  0
H  H77  1  0.81401908  0.73982537  0.93743295  1  0.021275  0  0.092625  0.142882  0  1.001161  0
H  H78  1  0.18597200  0.26016560  0.06255785  1  0.021236  0  0.092611  0.142888  0  1.001136  0
H  H79  1  0.06163409  0.51019969  0.77749602  1  0.096989  0  0.1044  0.103761  0  1.015954  0
H  H80  1  0.93836887  0.48980545  0.22250484  1  0.096911  0  0.104476  0.103872  0  1.015766  0
H  H81  1  0.10821578  0.46183410  0.62326540  1  0.093356  0  0.10152  0.103074  0  1.050987  0
H  H82  1  0.89178465  0.53816562  0.37673393  1  0.093391  0  0.101515  0.103092  0  1.050946  0
H  H83  1  0.07122509  0.57321338  0.53928308  1  0.113092  0  0.113673  0.087923  0  1.032146  0
H  H84  1  0.92876711  0.42678508  0.46071775  1  0.113075  0  0.113677  0.087939  0  1.032058  0
H  H85  1  0.91717033  0.76110597  0.73693408  1  0.147496  0  0.11495  0.101005  0  1.042523  0
H  H86  1  0.08282911  0.23889512  0.26306433  1  0.147451  0  0.114932  0.100957  0  1.042594  0
H  H87  1  0.78411157  0.68229493  0.34167182  1  0.078033  0  0.109789  0.077038  0  1.028175  0
H  H88  1  0.21587082  0.31771317  0.65832587  1  0.077355  0  0.109797  0.077007  0  1.028111  0
H  H89  1  0.57822635  0.57865238  0.24025501  1  0.056762  0  0.102843  0.111193  0  1.036728  0
H  H90  1  0.42175513  0.42135710  0.75974301  1  0.056911  0  0.102915  0.111255  0  1.036743  0
H  H91  1  0.43034360  0.51628893  0.31192713  1  0.089269  0  0.108452  0.110672  0  1.017104  0
H  H92  1  0.56964595  0.48371637  0.68807311  1  0.089339  0  0.108331  0.110531  0  1.016936  0
H  H93  1  0.70784641  0.66074828  0.57156069  1  0.093327  0  0.115973  0.093872  0  1.027015  0
H  H94  1  0.29214780  0.33925288  0.42843638  1  0.093537  0  0.116031  0.093998  0  1.026885  0
H  H95  1  0.44428498  0.68330409  0.57895481  1  0.024559  0  0.090087  0.127973  0  1.029607  0
H  H96  1  0.55571694  0.31670311  0.42104350  1  0.024681  0  0.090116  0.128034  0  1.029624  0
H  H97  1  0.56919189  0.62333758  0.63651561  1  0.03098  0  0.09616  0.146375  0  1.002475  0
H  H98  1  0.43081697  0.37666477  0.36348393  1  0.030963  0  0.096098  0.146273  0  1.002599  0
H  H99  1  0.38845773  0.59652248  0.61251032  1  0.051224  0  0.089567  0.130835  0  1.021888  0
H  H100  1  0.61154546  0.40348402  0.38749287  1  0.051231  0  0.089607  0.130918  0  1.021734  0
C  C101  1  0.69286561  0.43129478  0.84426610  1  1.57943  0  0.202045  0.567309  0  4.247407  0
C  C102  1  0.30713695  0.56869946  0.15574096  1  1.579753  0  0.202037  0.567238  0  4.247227  0
C  C103  1  0.89231332  0.27756822  0.57775943  1  1.543518  0  0.20291  0.572953  0  4.210102  0
C  C104  1  0.10767271  0.72243575  0.42223495  1  1.543093  0  0.202844  0.573024  0  4.209872  0
C  C105  1  0.72495425  0.34631945  0.77418877  1  -0.008211  0  -0.024989  -0.044062  0  4.002175  0
C  C106  1  0.27504574  0.65367414  0.22581032  1  -0.008122  0  -0.02502  -0.044105  0  4.002041  0
C  C107  1  0.78528216  0.35228819  0.70781797  1  -0.086719  0  -0.078703  -0.117455  0  3.952951  0
C  C108  1  0.21470977  0.64770686  0.29218231  1  -0.08699  0  -0.07874  -0.117569  0  3.952822  0
C  C109  1  0.81756862  0.27300493  0.64482313  1  -0.078391  0  -0.018473  -0.033108  0  3.996208  0
C  C110  1  0.18243086  0.72699617  0.35517590  1  -0.078125  0  -0.018502  -0.033232  0  3.996424  0
C  C111  1  0.78858340  0.18768544  0.64766848  1  0.011881  0  -0.072125  -0.124849  0  3.907993  0
C  C112  1  0.21142090  0.81231151  0.35232986  1  0.01193  0  -0.072071  -0.124628  0  3.907864  0
C  C113  1  0.72745799  0.18083394  0.71340881  1  -0.048764  0  -0.013685  0.082767  0  3.985254  0
C  C114  1  0.27254845  0.81916299  0.28659106  1  -0.049074  0  -0.013805  0.082591  0  3.985165  0
C  C115  1  0.69534648  0.26034416  0.77582411  1  -0.003146  0  -0.08558  -0.148774  0  3.952454  0
C  C116  1  0.30466176  0.73965002  0.22417449  1  -0.003171  0  -0.085541  -0.148702  0  3.952195  0
C  C117  1  0.70461226  0.08838570  0.71758854  1  0.452177  0  -0.065386  -0.011071  0  3.977491  0
C  C118  1  0.29539906  0.91160776  0.28241088  1  0.452317  0  -0.065324  -0.011072  0  3.9775  0
C  C119  1  0.60578126  0.94127628  0.62820917  1  0.468199  0  -0.008212  0.089473  0  3.919845  0
C  C120  1  0.39421241  0.05872420  0.37179685  1  0.468022  0  -0.008142  0.089733  0  3.919443  0
C  C121  1  0.73953176  0.88893961  0.62227034  1  1.555465  0  0.178102  0.528682  0  4.229813  0
C  C122  1  0.26045105  0.11105146  0.37773720  1  1.55594  0  0.177949  0.52819  0  4.229681  0
C  C123  1  0.49026117  0.89295495  0.54437233  1  -0.076605  0  -0.246908  -0.413968  0  3.926884  0
C  C124  1  0.50972971  0.10705033  0.45563303  1  -0.076566  0  -0.246849  -0.413887  0  3.926871  0
C  C125  1  0.18052370  0.43066248  0.92456916  1  0.482575  0  0.04483  0.094009  0  3.953953  0
C  C126  1  0.81946894  0.56933597  0.07542186  1  0.48279  0  0.044884  0.094025  0  3.954093  0
C  C127  1  0.06406057  0.37201926  0.88542715  1  -0.010706  0  -0.082308  -0.107945  0  3.966898  0
C  C128  1  0.93593831  0.62797640  0.11456815  1  -0.010763  0  -0.082299  -0.107966  0  3.9668  0
C  C129  1  0.07722813  0.28350474  0.83047506  1  -0.07673  0  -0.068532  -0.066701  0  3.944129  0
C  C130  1  0.92277917  0.71648809  0.16952666  1  -0.076676  0  -0.068566  -0.066664  0  3.943904  0
C  C131  1  0.20662655  0.25459688  0.81543274  1  0.023043  0  -0.010793  -0.019851  0  3.905041  0
C  C132  1  0.79338225  0.74540479  0.18456657  1  0.023134  0  -0.010757  -0.019757  0  3.904883  0
C  C133  1  0.31796370  0.31859427  0.85728697  1  0.456754  0  0.041035  0.046594  0  3.918142  0
C  C134  1  0.68204688  0.68140874  0.14272351  1  0.456856  0  0.041106  0.046574  0  3.917941  0
C  C135  1  0.22219751  0.15583020  0.75895900  1  0.466946  0  0.073277  0.252666  0  3.821529  0
C  C136  1  0.77780630  0.84416880  0.24104611  1  0.466908  0  0.073328  0.252844  0  3.82121  0
C  C137  1  0.33506280  0.14428856  0.70877885  1  -0.044577  0  -0.248919  -0.462027  0  3.905323  0
C  C138  1  0.66494157  0.85571588  0.29122937  1  -0.044101  0  -0.248886  -0.462119  0  3.905144  0
C  C139  1  0.24808646  0.09601338  0.82367738  1  0.502335  0  0.076573  0.266283  0  3.77324  0
C  C140  1  0.75192436  0.90398486  0.17632539  1  0.50238  0  0.076575  0.266261  0  3.773416  0
C  C141  1  0.37153410  0.13325234  0.90644553  1  -0.038024  0  -0.24563  -0.446694  0  3.920539  0
C  C142  1  0.62848314  0.86673901  0.09355218  1  -0.037312  0  -0.245514  -0.446508  0  3.920424  0
C  C143  1  0.26294145  0.99616565  0.76964621  1  -0.026878  0  -0.005176  -0.00602  0  3.883766  0
C  C144  1  0.73706244  0.00382926  0.23034770  1  -0.026775  0  -0.005175  -0.006007  0  3.883561  0
C  C145  1  0.38912762  0.95267110  0.77802752  1  -0.044522  0  -0.069823  -0.080923  0  3.947833  0
C  C146  1  0.61086992  0.04731912  0.22196888  1  -0.044914  0  -0.069999  -0.081185  0  3.947931  0
C  C147  1  0.39433247  0.86099579  0.72669266  1  0.008376  0  -0.083127  -0.12581  0  3.997163  0
C  C148  1  0.60566301  0.13899581  0.27330205  1  0.008561  0  -0.083019  -0.125768  0  3.997258  0
C  C149  1  0.27228445  0.81456829  0.66805329  1  0.426547  0  0.041967  0.077235  0  3.958252  0
C  C150  1  0.72771188  0.18542330  0.33193846  1  0.426632  0  0.041939  0.077287  0  3.958322  0
C  C151  1  0.14520450  0.94330105  0.70885667  1  0.539206  0  0.055006  0.074061  0  3.887751  0
C  C152  1  0.85479984  0.05669931  0.29113849  1  0.539201  0  0.054973  0.074016  0  3.887599  0
C  C153  1  0.47691840  0.63719953  0.88291389  1  0.446364  0  0.040418  0.080193  0  3.942658  0
C  C154  1  0.52309245  0.36281302  0.11708991  1  0.446255  0  0.040423  0.080289  0  3.942507  0
C  C155  1  0.41956602  0.69986236  0.84113713  1  -0.024786  0  -0.088332  -0.123514  0  3.989169  0
C  C156  1  0.58043977  0.30014956  0.15886883  1  -0.024032  0  -0.088163  -0.123206  0  3.988945  0
C  C157  1  0.29521800  0.73908178  0.85526798  1  -0.065683  0  -0.074802  -0.084251  0  3.965907  0
C  C158  1  0.70478218  0.26092544  0.14473564  1  -0.065737  0  -0.074796  -0.084336  0  3.966155  0
C  C159  1  0.23087166  0.71598193  0.91208247  1  -0.035455  0  -0.011542  -0.018145  0  3.914247  0
C  C160  1  0.76912856  0.28402665  0.08792037  1  -0.036053  0  -0.011478  -0.01803  0  3.914099  0
C  C161  1  0.29727859  0.65392832  0.95256147  1  0.546943  0  0.043977  0.057882  0  3.907348  0
C  C162  1  0.70272804  0.34608223  0.04744293  1  0.547189  0  0.043935  0.058012  0  3.90724  0
C  C163  1  0.09164244  0.75355397  0.92718565  1  0.494726  0  0.078243  0.268647  0  3.780169  0
C  C164  1  0.90835715  0.24644917  0.07281283  1  0.494903  0  0.078208  0.268438  0  3.780222  0
C  C165  1  0.09460053  0.78549933  0.02753844  1  -0.106102  0  -0.254338  -0.473318  0  3.920232  0
C  C166  1  0.90539465  0.21450181  0.97245754  1  -0.106228  0  -0.254343  -0.473294  0  3.920151  0
C  C167  1  0.97068364  0.67781707  0.86759696  1  0.546797  0  0.082771  0.282572  0  3.775736  0
C  C168  1  0.02931960  0.32217853  0.13240264  1  0.546968  0  0.082737  0.282739  0  3.77538  0
C  C169  1  0.82694679  0.71731323  0.86825174  1  -0.09366  0  -0.249311  -0.467171  0  3.89507  0
C  C170  1  0.17305398  0.28268035  0.13174315  1  -0.092971  0  -0.24935  -0.467294  0  3.895099  0
C  C171  1  0.98890924  0.64060598  0.77124262  1  -0.02552  0  -0.008803  -0.012108  0  3.888784  0
C  C172  1  0.01109312  0.35939304  0.22875552  1  -0.025796  0  -0.008827  -0.012154  0  3.888575  0
C  C173  1  0.04109470  0.55479700  0.73690524  1  -0.001107  0  -0.069058  -0.062435  0  3.922392  0
C  C174  1  0.95891204  0.44520537  0.26309340  1  -0.000858  0  -0.069085  -0.062495  0  3.922239  0
C  C175  1  0.06849897  0.52831705  0.65200089  1  -0.057858  0  -0.086908  -0.114574  0  3.980676  0
C  C176  1  0.93150339  0.47168265  0.34799624  1  -0.0581  0  -0.086961  -0.114718  0  3.980795  0
C  C177  1  0.04608389  0.58868147  0.60408440  1  0.467096  0  0.03814  0.073341  0  3.958702  0
C  C178  1  0.95391024  0.41131833  0.39591282  1  0.467185  0  0.038132  0.073326  0  3.958648  0
C  C179  1  0.96257644  0.69497296  0.71636399  1  0.453424  0  0.042957  0.05339  0  3.889874  0
C  C180  1  0.03742180  0.30502474  0.28363559  1  0.45342  0  0.043072  0.053454  0  3.889774  0
C  C181  1  0.71693977  0.65284294  0.36909052  1  0.422561  0  0.035349  0.070931  0  3.995103  0
C  C182  1  0.28304868  0.34716374  0.63090695  1  0.423299  0  0.03532  0.070908  0  3.995444  0
C  C183  1  0.60339495  0.59497608  0.31352808  1  0.011892  0  -0.090091  -0.129724  0  3.984791  0
C  C184  1  0.39658756  0.40503338  0.68647008  1  0.011936  0  -0.090137  -0.129747  0  3.985187  0
C  C185  1  0.52195996  0.56003430  0.35348264  1  -0.046366  0  -0.06725  -0.062336  0  3.923509  0
C  C186  1  0.47802710  0.43996762  0.64651428  1  -0.046531  0  -0.06717  -0.062307  0  3.923478  0
C  C187  1  0.55669237  0.58249243  0.44785208  1  0.033586  0  -0.004135  -0.003737  0  3.869456  0
C  C188  1  0.44329876  0.41750944  0.55214418  1  0.033823  0  -0.004127  -0.0036  0  3.869462  0
C  C189  1  0.67421944  0.64006010  0.49795434  1  0.523042  0  0.047474  0.06476  0  3.896214  0
C  C190  1  0.32577001  0.35994452  0.50204505  1  0.52266  0  0.047482  0.064719  0  3.89622  0
C  C191  1  0.46921192  0.54624294  0.49428791  1  0.535484  0  0.077771  0.275789  0  3.784039  0
C  C192  1  0.53077850  0.45375962  0.50571279  1  0.521689  0  0.077766  0.275854  0  3.78386  0
C  C193  1  0.46826217  0.61676830  0.58675602  1  -0.071481  0  -0.251908  -0.47833  0  3.920604  0
C  C194  1  0.53174098  0.38323820  0.41324655  1  -0.071476  0  -0.251961  -0.478468  0  3.920697  0
N  N195  1  0.30497853  0.40431160  0.91041946  1  -1.243246  0  -0.337288  -0.24055  0  3.53638  0
N  N196  1  0.69501909  0.59569156  0.08958060  1  -1.242964  0  -0.337379  -0.240716  0  3.536355  0
N  N197  1  0.14991001  0.85552705  0.65960863  1  -1.240943  0  -0.324386  -0.224146  0  3.502936  0
N  N198  1  0.85009097  0.14446926  0.34038657  1  -1.240859  0  -0.324279  -0.223953  0  3.502849  0
N  N199  1  0.41581379  0.61503478  0.93784862  1  -1.236469  0  -0.33337  -0.236378  0  3.521148  0
N  N200  1  0.58419509  0.38497779  0.06215676  1  -1.236496  0  -0.333354  -0.236561  0  3.521212  0
N  N201  1  0.99224527  0.67025144  0.63562546  1  -1.251792  0  -0.333517  -0.241641  0  3.555902  0
N  N202  1  0.00775108  0.32975038  0.36437214  1  -1.251736  0  -0.333538  -0.241543  0  3.556038  0
N  N203  1  0.75170530  0.67492055  0.45986031  1  -1.229826  0  -0.334016  -0.240879  0  3.526532  0
N  N204  1  0.24828953  0.32508536  0.54014150  1  -1.230101  0  -0.33403  -0.240914  0  3.526664  0
O  O205  1  0.61220785  0.41862190  0.88901705  1  -1.193675  0  -0.339679  -0.582296  0  2.331027  0
O  O206  1  0.38778490  0.58137314  0.11097964  1  -1.193596  0  -0.339702  -0.582321  0  2.330852  0
O  O207  1  0.74440574  0.50742847  0.85395421  1  -1.203529  0  -0.327731  -0.579385  0  2.203704  0
O  O208  1  0.25559361  0.49256376  0.14605297  1  -1.203885  0  -0.327671  -0.579305  0  2.203663  0
O  O209  1  0.85851180  0.33379794  0.53603114  1  -1.177214  0  -0.314847  -0.560367  0  2.174165  0
O  O210  1  0.14146099  0.66620483  0.46396713  1  -1.177812  0  -0.314838  -0.560443  0  2.174019  0
O  O211  1  0.99025166  0.22097361  0.56678501  1  -1.164005  0  -0.324639  -0.551257  0  2.225207  0
O  O212  1  0.00973446  0.77903309  0.43320782  1  -1.163186  0  -0.324567  -0.55124  0  2.225098  0
O  O213  1  0.61695315  0.03373565  0.63329948  1  -1.037361  0  -0.211883  -0.216115  0  2.484684  0
O  O214  1  0.38305152  0.96626266  0.36670369  1  -1.037206  0  -0.211942  -0.216186  0  2.484629  0
O  O215  1  0.81747982  0.90695046  0.57873767  1  -1.160721  0  -0.344918  -0.536823  0  2.158991  0
O  O216  1  0.18250704  0.09302829  0.42126576  1  -1.160781  0  -0.344834  -0.536643  0  2.158582  0
O  O217  1  0.75899700  0.82595340  0.65619089  1  -1.199234  0  -0.34771  -0.585446  0  2.169761  0
O  O218  1  0.24098798  0.17404649  0.34382542  1  -1.199315  0  -0.347643  -0.585236  0  2.169882  0
O  O219  1  0.09160179  0.11986139  0.69503588  1  -1.127013  0  -0.387349  -0.53271  0  2.28121  0
O  O220  1  0.90840859  0.88013277  0.30496425  1  -1.126819  0  -0.387436  -0.532912  0  2.281226  0
O  O221  1  0.12888215  0.10183915  0.85916306  1  -1.087181  0  -0.394445  -0.51048  0  2.208174  0
O  O222  1  0.87112597  0.89815844  0.14084713  1  -1.087386  0  -0.394435  -0.510562  0  2.208371  0
O  O223  1  0.05913534  0.82832128  0.89357001  1  -1.116616  0  -0.383363  -0.506763  0  2.230218  0
O  O224  1  0.94085981  0.17167986  0.10642534  1  -1.116402  0  -0.383355  -0.506742  0  2.230219  0
O  O225  1  0.99109106  0.60848479  0.90783619  1  -1.152557  0  -0.396022  -0.541465  0  2.263847  0
O  O226  1  0.00891669  0.39151485  0.09216538  1  -1.152608  0  -0.396111  -0.541652  0  2.263495  0
O  O227  1  0.33060453  0.52346830  0.43787359  1  -1.146563  0  -0.398622  -0.535828  0  2.244793  0
O  O228  1  0.66938711  0.47653630  0.56212795  1  -1.146529  0  -0.398623  -0.535975  0  2.244658  0
