# generated using pymatgen
data_AlH12C24(BrO2)3
_symmetry_space_group_name_H-M   'P 1'
_cell_length_a   4.01213780
_cell_length_b   28.62584018
_cell_length_c   28.62561044
_cell_angle_alpha   119.99984110
_cell_angle_beta   90.00071422
_cell_angle_gamma   89.99969438
_symmetry_Int_Tables_number   1
_chemical_formula_structural   AlH12C24(BrO2)3
_chemical_formula_sum   'Al2 H24 C48 Br6 O12'
_cell_volume   2847.21436657
_cell_formula_units_Z   2
loop_
 _symmetry_equiv_pos_site_id
 _symmetry_equiv_pos_as_xyz
  1  'x, y, z'
loop_
 _atom_site_type_symbol
 _atom_site_label
 _atom_site_symmetry_multiplicity
 _atom_site_fract_x
 _atom_site_fract_y
 _atom_site_fract_z
 _atom_site_occupancy
 _atom_site_pbe_bader_charge
 _atom_site_pbe_bader_spin_density
 _atom_site_pbe_cm5_charge
 _atom_site_pbe_ddec_charge
 _atom_site_pbe_ddec_spin_density
 _atom_site_pbe_ddec_sum_bond_order
 _atom_site_pbe_magmom
Al  Al0  1  0.01302546  0.50000134  0.49999958  1  2.50716  0  0.427009  1.613131  0  2.551639  0
Al  Al1  1  0.01303588  0.16666637  0.83333221  1  2.5071  0  0.426966  1.613113  0  2.55172  0
H  H2  1  0.47226109  0.17789575  0.69222760  1  0.073604  0  0.108442  0.113164  0  0.986149  0
H  H3  1  0.48466794  0.22989676  0.64465818  1  0.022054  0  0.101462  0.100161  0  1.005729  0
H  H4  1  0.50392346  0.37761048  0.79845930  1  0.064903  0  0.101401  0.111849  0  1.000524  0
H  H5  1  0.50391871  0.28904411  0.53485377  1  0.064493  0  0.101509  0.112064  0  1.000397  0
H  H6  1  0.48467107  0.43675525  0.68865954  1  0.02235  0  0.101481  0.100144  0  1.005642  0
H  H7  1  0.47223830  0.48875925  0.64109268  1  0.073983  0  0.108393  0.113269  0  0.986188  0
H  H8  1  0.50413688  0.38526995  0.72203949  1  0.032767  0  0.099061  0.094753  0  1.007205  0
H  H9  1  0.50417886  0.28138253  0.61127430  1  0.032414  0  0.099085  0.094825  0  1.007208  0
H  H10  1  0.47224970  0.01433506  0.82210564  1  0.07724  0  0.108464  0.113145  0  0.986107  0
H  H11  1  0.48466341  0.91476462  0.77010535  1  0.039001  0  0.101448  0.10012  0  1.005754  0
H  H12  1  0.50391351  0.92085051  0.62238935  1  0.067007  0  0.101399  0.111865  0  1.00043  0
H  H13  1  0.50389308  0.74581294  0.71095807  1  0.066516  0  0.101506  0.112097  0  1.000413  0
H  H14  1  0.48469984  0.75190732  0.56324609  1  0.039103  0  0.101529  0.10022  0  1.005654  0
H  H15  1  0.47226464  0.65233821  0.51124179  1  0.077311  0  0.108393  0.11321  0  0.98618  0
H  H16  1  0.50412906  0.83677233  0.61473268  1  0.025968  0  0.099067  0.094812  0  1.007275  0
H  H17  1  0.50416855  0.82989574  0.71862057  1  0.025258  0  0.099082  0.0948  0  1.007186  0
H  H18  1  0.47226637  0.30776682  0.98566069  1  0.076358  0  0.108413  0.113092  0  0.986219  0
H  H19  1  0.48466652  0.35533970  0.08523191  1  0.093289  0  0.101428  0.10005  0  1.00573  0
H  H20  1  0.50389570  0.20154143  0.07915180  1  0.069191  0  0.101441  0.111927  0  1.000439  0
H  H21  1  0.50389846  0.46514718  0.25418679  1  0.068796  0  0.101525  0.112111  0  1.000364  0
H  H22  1  0.48467682  0.31134066  0.24809114  1  0.092912  0  0.101473  0.100128  0  1.005734  0
H  H23  1  0.47224796  0.35890528  0.34766137  1  0.076704  0  0.108382  0.113222  0  0.986202  0
H  H24  1  0.50413223  0.27796149  0.16322761  1  0.031999  0  0.099048  0.094807  0  1.007218  0
H  H25  1  0.50416291  0.38872586  0.17010246  1  0.03113  0  0.099067  0.094717  0  1.00716  0
C  C26  1  0.50972535  0.46392856  0.41754722  1  1.56063  0  0.277108  0.67096  0  4.057139  0
C  C27  1  0.50973063  0.45362044  0.53607136  1  1.583793  0  0.277053  0.670801  0  4.057599  0
C  C28  1  0.50973123  0.58245276  0.54638043  1  1.628407  0  0.277022  0.670763  0  4.057343  0
C  C29  1  0.50973626  0.21303930  0.79725334  1  1.584127  0  0.277133  0.670651  0  4.057263  0
C  C30  1  0.50974314  0.08421433  0.78695928  1  1.627435  0  0.277129  0.670686  0  4.057371  0
C  C31  1  0.50974404  0.20274234  0.91578379  1  1.560182  0  0.27702  0.670666  0  4.057576  0
C  C32  1  0.49994176  0.24740462  0.77165235  1  0.108298  0  -0.01055  -0.075677  0  3.927272  0
C  C33  1  0.48485556  0.22184920  0.71507040  1  -0.103452  0  -0.078373  -0.075392  0  3.979243  0
C  C34  1  0.49046187  0.25124626  0.68860312  1  0.066651  0  -0.088755  -0.134283  0  3.972369  0
C  C35  1  0.50101010  0.30809352  0.71804426  1  -0.020914  0  -0.007893  0.129279  0  4.041638  0
C  C36  1  0.50497754  0.33367543  0.77469544  1  0.074007  0  -0.094996  -0.18855  0  3.95558  0
C  C37  1  0.50807481  0.30385294  0.80095795  1  -0.162873  0  -0.007383  0.109501  0  3.943843  0
C  C38  1  0.50304225  0.34187787  0.69334635  1  -0.083473  0  -0.088303  -0.125605  0  3.99477  0
C  C39  1  0.50305522  0.32477279  0.63996925  1  0.023075  0  -0.088455  -0.126053  0  3.994774  0
C  C40  1  0.50498071  0.33298084  0.55862295  1  0.072307  0  -0.094999  -0.188647  0  3.955975  0
C  C41  1  0.50100725  0.35856056  0.61527072  1  -0.021489  0  -0.007577  0.129598  0  4.042168  0
C  C42  1  0.49045950  0.41540771  0.64471334  1  0.065692  0  -0.089034  -0.134455  0  3.972542  0
C  C43  1  0.48483987  0.44480652  0.61824780  1  -0.101874  0  -0.078492  -0.075715  0  3.979354  0
C  C44  1  0.49994207  0.41925125  0.56166643  1  0.108511  0  -0.010327  -0.075525  0  3.9272  0
C  C45  1  0.50808213  0.36280428  0.53236019  1  -0.161646  0  -0.00752  0.109315  0  3.943456  0
C  C46  1  0.49993750  0.02424942  0.75259617  1  0.093471  0  -0.010588  -0.075684  0  3.927405  0
C  C47  1  0.48485675  0.99322368  0.77815163  1  -0.037107  0  -0.078431  -0.075454  0  3.979189  0
C  C48  1  0.49046199  0.93736026  0.74875650  1  0.136922  0  -0.088751  -0.13423  0  3.972213  0
C  C49  1  0.50100803  0.90995357  0.69190818  1  -0.088537  0  -0.007764  0.129418  0  4.041598  0
C  C50  1  0.50497931  0.94102249  0.66632617  1  0.083376  0  -0.094949  -0.18848  0  3.955524  0
C  C51  1  0.50807767  0.99710668  0.69614821  1  -0.263903  0  -0.007393  0.10946  0  3.943824  0
C  C52  1  0.50302651  0.85147023  0.65812388  1  -0.07603  0  -0.08843  -0.125957  0  3.995061  0
C  C53  1  0.50304535  0.81519799  0.67522992  1  0.023772  0  -0.088344  -0.125738  0  3.994797  0
C  C54  1  0.50497078  0.72564472  0.66702098  1  0.082869  0  -0.095018  -0.188806  0  3.955926  0
C  C55  1  0.50100864  0.75671487  0.64144262  1  -0.08747  0  -0.007648  0.129573  0  4.042169  0
C  C56  1  0.49047614  0.72930858  0.58459387  1  0.136168  0  -0.089022  -0.13456  0  3.972717  0
C  C57  1  0.48486292  0.67344618  0.55519491  1  -0.069273  0  -0.078516  -0.075657  0  3.979261  0
C  C58  1  0.49993884  0.64241729  0.58074879  1  0.125352  0  -0.010337  -0.075499  0  3.926898  0
C  C59  1  0.50806861  0.66955808  0.63719650  1  -0.26321  0  -0.007465  0.109432  0  3.943362  0
C  C60  1  0.49994590  0.22834498  0.97574970  1  0.052324  0  -0.01042  -0.075595  0  3.927506  0
C  C61  1  0.48486880  0.28492635  0.00677317  1  0.089969  0  -0.078457  -0.075449  0  3.97931  0
C  C62  1  0.49047123  0.31139541  0.06263708  1  -0.123193  0  -0.08863  -0.134062  0  3.972151  0
C  C63  1  0.50100847  0.28195553  0.09004500  1  -0.006811  0  -0.007852  0.129408  0  4.041631  0
C  C64  1  0.50497114  0.22530546  0.05897859  1  -0.110341  0  -0.094957  -0.188615  0  3.955485  0
C  C65  1  0.50806730  0.19904215  0.00289286  1  -0.077917  0  -0.007452  0.109518  0  3.943839  0
C  C66  1  0.50303191  0.30665558  0.14852825  1  -0.004152  0  -0.088503  -0.126159  0  3.995216  0
C  C67  1  0.50303998  0.36003273  0.18480157  1  0.079965  0  -0.088279  -0.12548  0  3.994799  0
C  C68  1  0.50496901  0.44137772  0.27435497  1  -0.110067  0  -0.094987  -0.188741  0  3.955969  0
C  C69  1  0.50099825  0.38472961  0.24328448  1  -0.00719  0  -0.007685  0.129408  0  4.04225  0
C  C70  1  0.49046942  0.35528573  0.27069079  1  -0.122141  0  -0.088954  -0.134398  0  3.97253  0
C  C71  1  0.48484840  0.38175038  0.32655351  1  0.090085  0  -0.078506  -0.075603  0  3.979232  0
C  C72  1  0.49993543  0.43833273  0.35758287  1  0.053281  0  -0.010355  -0.075653  0  3.926966  0
C  C73  1  0.50806905  0.46763956  0.33044287  1  -0.079831  0  -0.007474  0.10943  0  3.943392  0
Br  Br74  1  0.49874573  0.34247041  0.87769059  1  -0.055454  0  0.015806  -0.075976  0  1.459948  0
Br  Br75  1  0.49880268  0.32418934  0.45562361  1  -0.055753  0  0.015809  -0.075943  0  1.459705  0
Br  Br76  1  0.49874432  0.03522133  0.65753002  1  -0.059592  0  0.015796  -0.075986  0  1.459951  0
Br  Br77  1  0.49873430  0.63143932  0.67581332  1  -0.059962  0  0.015743  -0.075999  0  1.459672  0
Br  Br78  1  0.49869365  0.12230837  0.96478071  1  -0.034312  0  0.015766  -0.07603  0  1.459805  0
Br  Br79  1  0.49877001  0.54437491  0.36856306  1  -0.033653  0  0.015775  -0.075969  0  1.459693  0
O  O80  1  0.75047895  0.55779943  0.55350182  1  -1.25159  0  -0.232787  -0.594792  0  2.402921  0
O  O81  1  0.75047529  0.49570367  0.44220183  1  -1.25126  0  -0.232816  -0.59488  0  2.402938  0
O  O82  1  0.75047636  0.44649983  0.50429633  1  -1.248918  0  -0.232767  -0.594791  0  2.403124  0
O  O83  1  0.27940404  0.56039785  0.51134524  1  -1.259423  0  -0.236449  -0.596693  0  2.360627  0
O  O84  1  0.27941693  0.48865652  0.54905101  1  -1.239521  0  -0.23648  -0.596669  0  2.360669  0
O  O85  1  0.27940044  0.45094885  0.43960201  1  -1.243823  0  -0.236521  -0.596792  0  2.360576  0
O  O86  1  0.75050049  0.17096816  0.89113294  1  -1.251281  0  -0.232707  -0.594694  0  2.403144  0
O  O87  1  0.75049195  0.22016422  0.82902945  1  -1.248898  0  -0.232809  -0.594749  0  2.402937  0
O  O88  1  0.75049185  0.10886696  0.77983558  1  -1.250367  0  -0.232778  -0.594724  0  2.403013  0
O  O89  1  0.27942674  0.21572113  0.89372527  1  -1.243548  0  -0.236547  -0.596768  0  2.360686  0
O  O90  1  0.27942315  0.10627217  0.82199458  1  -1.259709  0  -0.236567  -0.59674  0  2.360673  0
O  O91  1  0.27941773  0.17800474  0.78427520  1  -1.239317  0  -0.236582  -0.596747  0  2.360663  0
