# generated using pymatgen
data_MnH4(CO3)2
_symmetry_space_group_name_H-M   'P 1'
_cell_length_a   5.72739438
_cell_length_b   6.63938854
_cell_length_c   8.17811863
_cell_angle_alpha   79.90269742
_cell_angle_beta   69.51432934
_cell_angle_gamma   64.48233035
_symmetry_Int_Tables_number   1
_chemical_formula_structural   MnH4(CO3)2
_chemical_formula_sum   'Mn2 H8 C4 O12'
_cell_volume   262.78940440
_cell_formula_units_Z   2
loop_
 _symmetry_equiv_pos_site_id
 _symmetry_equiv_pos_as_xyz
  1  'x, y, z'
loop_
 _atom_site_type_symbol
 _atom_site_label
 _atom_site_symmetry_multiplicity
 _atom_site_fract_x
 _atom_site_fract_y
 _atom_site_fract_z
 _atom_site_occupancy
 _atom_site_hle17_ddec_charge
 _atom_site_hle17_ddec_spin_density
 _atom_site_hle17_ddec_sum_bond_order
 _atom_site_hle17_magmom
 _atom_site_hse06_10hf_ddec_charge
 _atom_site_hse06_10hf_ddec_spin_density
 _atom_site_hse06_10hf_ddec_sum_bond_order
 _atom_site_hse06_10hf_magmom
 _atom_site_hse06_ddec_charge
 _atom_site_hse06_ddec_spin_density
 _atom_site_hse06_ddec_sum_bond_order
 _atom_site_hse06_magmom
 _atom_site_pbe_cm5_charge
 _atom_site_pbe_ddec_charge
 _atom_site_pbe_ddec_spin_density
 _atom_site_pbe_ddec_sum_bond_order
 _atom_site_pbe_magmom
Mn  Mn0  1  0.92656238  0.75008549  0.25011448  1  1.248419  4.811833  1.625502  4.699  1.094565  4.748698  2.095498  4.572  1.150632  4.781706  2.028551  4.623  0.597758  1.051147  4.716424  2.14406  4.524
Mn  Mn1  1  0.07343810  0.24991047  0.74988336  1  1.2484  4.811798  1.625609  4.699  1.094518  4.748645  2.095683  4.572  1.150614  4.781665  2.028697  4.623  0.597726  1.051112  4.716353  2.14424  4.524
H  H2  1  0.62309141  0.18132570  0.35270469  1  0.428304  -0.00031  0.870998  0.001  0.395435  0.000509  0.937758  0.002  0.406994  0.00014  0.920871  0.002  0.297022  0.387128  0.000874  0.949872  0.002
H  H3  1  0.15733343  0.31892887  0.14699101  1  0.428592  -0.000308  0.870642  0.001  0.395867  0.000512  0.937223  0.002  0.407418  0.000143  0.920323  0.002  0.297206  0.387544  0.000873  0.949373  0.002
H  H4  1  0.37691209  0.81867528  0.64729314  1  0.428311  -0.00031  0.870983  0.001  0.395449  0.000509  0.937746  0.002  0.407008  0.00014  0.920858  0.002  0.297029  0.38714  0.000874  0.949865  0.002
H  H5  1  0.84266910  0.68106710  0.85301229  1  0.428552  -0.000308  0.870697  0.001  0.395841  0.000511  0.93726  0.002  0.407385  0.000143  0.920372  0.002  0.297228  0.387519  0.000873  0.949408  0.002
H  H6  1  0.67808078  0.18381799  0.14393587  1  0.43236  -0.000324  0.863659  0.001  0.400344  0.000561  0.92895  0.002  0.411603  0.000191  0.912503  0.002  0.299764  0.392255  0.000924  0.940754  0.002
H  H7  1  0.00601501  0.31609359  0.35572931  1  0.43133  -0.000317  0.865216  0.001  0.399063  0.000568  0.930978  0.002  0.410341  0.000194  0.914519  0.002  0.298961  0.39095  0.000928  0.942784  0.002
H  H8  1  0.32192353  0.81618131  0.85606201  1  0.432347  -0.000324  0.863671  0.001  0.400312  0.000562  0.92899  0.002  0.411569  0.000191  0.912545  0.002  0.299753  0.392221  0.000925  0.940799  0.002
H  H9  1  0.99398649  0.68390405  0.64427228  1  0.431279  -0.00032  0.865283  0.001  0.399019  0.000568  0.931041  0.002  0.410295  0.000194  0.914585  0.002  0.298942  0.390906  0.000928  0.942846  0.002
C  C10  1  0.47694606  0.74840980  0.14848134  1  0.55866  0.002402  3.871522  0.003  0.504427  0.007386  4.171091  0.008  0.535224  0.004853  4.164762  0.006  0.232394  0.482941  0.010255  4.175018  0.01
C  C11  1  0.37367972  0.75159836  0.35186215  1  0.558018  0.002418  3.871979  0.003  0.505055  0.00738  4.170347  0.008  0.535779  0.004849  4.164125  0.006  0.234689  0.483594  0.01025  4.174215  0.01
C  C12  1  0.52307410  0.25158616  0.85148895  1  0.558649  0.002396  3.870471  0.003  0.504586  0.007397  4.169825  0.008  0.535415  0.004857  4.163466  0.006  0.23253  0.483093  0.010272  4.173776  0.01
C  C13  1  0.62629842  0.24840595  0.64816350  1  0.557908  0.00241  3.871524  0.003  0.504791  0.007391  4.170056  0.008  0.535526  0.004852  4.163819  0.006  0.234594  0.483323  0.010267  4.173938  0.01
O  O14  1  0.71139066  0.74918993  0.07240710  1  -0.598859  0.030291  2.082441  0.021  -0.529947  0.038679  2.327923  0.026  -0.558519  0.0343  2.315743  0.022  -0.277316  -0.509351  0.042911  2.336109  0.03
O  O15  1  0.53301406  0.75070964  0.42787642  1  -0.59845  0.030276  2.082276  0.02  -0.53019  0.038695  2.327679  0.026  -0.558723  0.034316  2.315538  0.022  -0.277916  -0.509608  0.042919  2.335843  0.029
O  O16  1  0.28857729  0.25080937  0.92760508  1  -0.599031  0.030308  2.081409  0.021  -0.530033  0.038684  2.326673  0.026  -0.55867  0.034307  2.314517  0.022  -0.277383  -0.509439  0.042918  2.334869  0.03
O  O17  1  0.46696101  0.24929967  0.57211200  1  -0.598328  0.03028  2.08147  0.021  -0.530138  0.0387  2.327031  0.026  -0.558674  0.034322  2.314882  0.022  -0.277932  -0.509558  0.042926  2.335197  0.029
O  O18  1  0.31906458  0.74503601  0.07375613  1  -0.58771  0.030786  2.092731  0.021  -0.517153  0.038548  2.338401  0.026  -0.546406  0.034204  2.327833  0.022  -0.275217  -0.496066  0.042719  2.345447  0.029
O  O19  1  0.13764977  0.75523766  0.42657973  1  -0.587246  0.030712  2.093909  0.021  -0.517121  0.038523  2.339624  0.026  -0.546293  0.034175  2.329011  0.022  -0.276528  -0.49609  0.042693  2.346697  0.029
O  O20  1  0.68095318  0.25496498  0.92625740  1  -0.587582  0.030791  2.09192  0.021  -0.51718  0.038552  2.337635  0.026  -0.546437  0.034209  2.327048  0.022  -0.275212  -0.496095  0.042725  2.344687  0.029
O  O21  1  0.86236584  0.24476832  0.57341452  1  -0.58717  0.030723  2.093428  0.021  -0.51691  0.038526  2.339064  0.026  -0.546088  0.034178  2.328449  0.022  -0.276396  -0.495881  0.042698  2.346138  0.029
O  O22  1  0.75553719  0.11157646  0.24068479  1  -0.857188  0.031271  1.889997  0.02  -0.800608  0.039965  2.102466  0.024  -0.824457  0.035462  2.065159  0.021  -0.575797  -0.782674  0.044113  2.128723  0.027
O  O23  1  0.10786651  0.38860316  0.25905606  1  -0.856202  0.031271  1.890909  0.02  -0.7997  0.039977  2.103027  0.024  -0.823545  0.035468  2.065735  0.021  -0.575043  -0.781728  0.044116  2.129389  0.027
O  O24  1  0.24446854  0.88842285  0.75931353  1  -0.857187  0.031275  1.890045  0.02  -0.800636  0.039971  2.102515  0.024  -0.824483  0.035468  2.065206  0.021  -0.575809  -0.782698  0.044119  2.128772  0.027
O  O25  1  0.89213883  0.61139447  0.74094352  1  -0.856175  0.031276  1.89105  0.02  -0.799657  0.039979  2.10313  0.024  -0.823508  0.035469  2.06584  0.021  -0.575046  -0.781684  0.044118  2.129487  0.027
