# generated using pymatgen
data_LaH4(C3O4)2
_symmetry_space_group_name_H-M   'P 1'
_cell_length_a   7.03666839
_cell_length_b   7.14456892
_cell_length_c   17.02170155
_cell_angle_alpha   90.00000616
_cell_angle_beta   90.00001292
_cell_angle_gamma   100.64402403
_symmetry_Int_Tables_number   1
_chemical_formula_structural   LaH4(C3O4)2
_chemical_formula_sum   'La4 H16 C24 O32'
_cell_volume   841.02413405
_cell_formula_units_Z   4
loop_
 _symmetry_equiv_pos_site_id
 _symmetry_equiv_pos_as_xyz
  1  'x, y, z'
loop_
 _atom_site_type_symbol
 _atom_site_label
 _atom_site_symmetry_multiplicity
 _atom_site_fract_x
 _atom_site_fract_y
 _atom_site_fract_z
 _atom_site_occupancy
 _atom_site_hle17_bader_spin_density
 _atom_site_hle17_ddec_charge
 _atom_site_hle17_ddec_spin_density
 _atom_site_hle17_ddec_sum_bond_order
 _atom_site_hle17_magmom
 _atom_site_hse06_10hf_bader_spin_density
 _atom_site_hse06_10hf_ddec_charge
 _atom_site_hse06_10hf_ddec_spin_density
 _atom_site_hse06_10hf_ddec_sum_bond_order
 _atom_site_hse06_10hf_magmom
 _atom_site_hse06_bader_spin_density
 _atom_site_hse06_ddec_charge
 _atom_site_hse06_ddec_spin_density
 _atom_site_hse06_ddec_sum_bond_order
 _atom_site_hse06_magmom
 _atom_site_pbe_bader_spin_density
 _atom_site_pbe_cm5_charge
 _atom_site_pbe_ddec_charge
 _atom_site_pbe_ddec_spin_density
 _atom_site_pbe_ddec_sum_bond_order
 _atom_site_pbe_magmom
La  La0  1  0.50840172  0.25652257  0.41905567  1  0  2.094524  0  1.712447  0  0  1.986511  0  2.19925  0  0  2.084849  0  2.106089  0  0  1.39945  1.912159  0  2.264711  0
La  La1  1  0.99160151  0.74347404  0.91905624  1  0  2.094511  0  1.712491  0  0  1.986476  0  2.199321  0  0  2.084838  0  2.106111  0  0  1.399419  1.912121  0  2.264786  0
La  La2  1  0.49160056  0.74347749  0.58094255  1  0  2.094525  0  1.71245  0  0  1.986504  0  2.199251  0  0  2.084854  0  2.106073  0  0  1.399446  1.912165  0  2.264694  0
La  La3  1  0.00839595  0.25652321  0.08094609  1  0  2.09455  0  1.712417  0  0  1.986506  0  2.199266  0  0  2.084855  0  2.106079  0  0  1.399462  1.912164  0  2.26471  0
H  H4  1  0.94892530  0.42069901  0.41183844  1  0  0.432073  0  0.859497  0  0  0.404226  0  0.917937  0  0  0.415794  0  0.901116  0  0  0.302479  0.395761  0  0.930245  0
H  H5  1  0.55107564  0.57930046  0.91183837  1  0  0.432126  0  0.859422  0  0  0.404278  0  0.917861  0  0  0.415848  0  0.901039  0  0  0.302503  0.395814  0  0.930168  0
H  H6  1  0.05107611  0.57930391  0.58816154  1  0  0.432139  0  0.859399  0  0  0.404293  0  0.917834  0  0  0.415861  0  0.901016  0  0  0.302503  0.395826  0  0.930149  0
H  H7  1  0.44892182  0.42069679  0.08816102  1  0  0.43207  0  0.859504  0  0  0.404229  0  0.917933  0  0  0.415798  0  0.90111  0  0  0.302481  0.395764  0  0.930241  0
H  H8  1  0.84838061  0.59416733  0.37996089  1  0  0.422923  0  0.880862  0  0  0.389832  0  0.948385  0  0  0.401417  0  0.931979  0  0  0.29431  0.381537  0  0.96009  0
H  H9  1  0.65161605  0.40583217  0.87996025  1  0  0.422918  0  0.880864  0  0  0.389825  0  0.948389  0  0  0.401413  0  0.931979  0  0  0.294301  0.38153  0  0.960095  0
H  H10  1  0.15161740  0.40583277  0.62004026  1  0  0.422927  0  0.880852  0  0  0.389839  0  0.94837  0  0  0.401425  0  0.931961  0  0  0.294306  0.381541  0  0.96008  0
H  H11  1  0.34838027  0.59416651  0.12003973  1  0  0.422948  0  0.880826  0  0  0.389845  0  0.948368  0  0  0.401432  0  0.931961  0  0  0.294313  0.381549  0  0.960075  0
H  H12  1  0.77452181  0.01015374  0.31997745  1  0  0.431824  0  0.862333  0  0  0.401203  0  0.925338  0  0  0.412581  0  0.908794  0  0  0.300836  0.392948  0  0.937324  0
H  H13  1  0.72547624  0.98984572  0.81997742  1  0  0.431807  0  0.862361  0  0  0.401195  0  0.925346  0  0  0.412572  0  0.908805  0  0  0.300816  0.392939  0  0.937334  0
H  H14  1  0.22547676  0.98984920  0.68002312  1  0  0.431835  0  0.86231  0  0  0.401197  0  0.925352  0  0  0.412577  0  0.908805  0  0  0.300831  0.392945  0  0.937334  0
H  H15  1  0.27452008  0.01015297  0.18002256  1  0  0.431841  0  0.862303  0  0  0.401224  0  0.925299  0  0  0.4126  0  0.908761  0  0  0.30084  0.392968  0  0.937287  0
H  H16  1  0.81111603  0.22105826  0.28456736  1  0  0.439446  0  0.852411  0  0  0.409717  0  0.914211  0  0  0.421307  0  0.89718  0  0  0.307642  0.401343  0  0.926512  0
H  H17  1  0.68888625  0.77894116  0.78456732  1  0  0.439448  0  0.852405  0  0  0.409716  0  0.91421  0  0  0.421307  0  0.897178  0  0  0.307632  0.401338  0  0.926516  0
H  H18  1  0.18888482  0.77894182  0.71543261  1  0  0.439452  0  0.852405  0  0  0.409726  0  0.9142  0  0  0.421315  0  0.897171  0  0  0.307634  0.401345  0  0.92651  0
H  H19  1  0.31111602  0.22105890  0.21543265  1  0  0.439459  0  0.852393  0  0  0.409735  0  0.914185  0  0  0.421325  0  0.897154  0  0  0.307642  0.401361  0  0.926487  0
C  C20  1  0.59686294  0.33497537  0.62951113  1  0  0.19565  0  3.875746  0  0  0.173437  0  4.159975  0  0  0.18574  0  4.175978  0  0  0.10745  0.16488  0  4.148714  0
C  C21  1  0.90313755  0.66502258  0.12951179  1  0  0.195698  0  3.875686  0  0  0.173493  0  4.159893  0  0  0.185796  0  4.175897  0  0  0.107489  0.164941  0  4.14863  0
C  C22  1  0.40313933  0.66502470  0.37048767  1  0  0.195732  0  3.875841  0  0  0.173543  0  4.160026  0  0  0.185849  0  4.176025  0  0  0.107488  0.164987  0  4.148765  0
C  C23  1  0.09685707  0.33497469  0.87048760  1  0  0.195649  0  3.87574  0  0  0.173459  0  4.159935  0  0  0.18576  0  4.175941  0  0  0.107472  0.164898  0  4.148675  0
C  C24  1  0.64993449  0.17189911  0.67064333  1  0  0.235544  0  3.845089  0  0  0.215451  0  4.127921  0  0  0.230216  0  4.13916  0  0  0.12186  0.205179  0  4.12016  0
C  C25  1  0.85006800  0.82810169  0.17064457  1  0  0.235551  0  3.844992  0  0  0.215454  0  4.127828  0  0  0.230222  0  4.139066  0  0  0.121873  0.205183  0  4.12007  0
C  C26  1  0.35006636  0.82810097  0.32935606  1  0  0.23549  0  3.845089  0  0  0.215391  0  4.127951  0  0  0.230154  0  4.13919  0  0  0.121862  0.205121  0  4.120191  0
C  C27  1  0.14993001  0.17189841  0.82935599  1  0  0.235548  0  3.844976  0  0  0.215436  0  4.127827  0  0  0.230201  0  4.139067  0  0  0.121851  0.205165  0  4.120067  0
C  C28  1  0.64758188  0.27455554  0.74636138  1  0  0.21148  0  3.823555  0  0  0.185351  0  4.106129  0  0  0.199066  0  4.116733  0  0  0.115771  0.175954  0  4.098987  0
C  C29  1  0.85241754  0.72544388  0.24636203  1  0  0.211582  0  3.823382  0  0  0.18543  0  4.105986  0  0  0.199147  0  4.116589  0  0  0.115814  0.176035  0  4.098848  0
C  C30  1  0.35241444  0.72544314  0.25363743  1  0  0.211737  0  3.823255  0  0  0.185553  0  4.105901  0  0  0.199269  0  4.116506  0  0  0.115853  0.176154  0  4.098763  0
C  C31  1  0.14757992  0.27455336  0.75363795  1  0  0.211592  0  3.823407  0  0  0.185451  0  4.105987  0  0  0.199169  0  4.11659  0  0  0.115857  0.176051  0  4.098847  0
C  C32  1  0.60094190  0.43969568  0.70294445  1  0  0.186079  0  3.893295  0  0  0.159642  0  4.18396  0  0  0.171112  0  4.199721  0  0  0.101274  0.151864  0  4.172827  0
C  C33  1  0.89905524  0.56029947  0.20294510  1  0  0.185908  0  3.893329  0  0  0.159476  0  4.183978  0  0  0.170944  0  4.199741  0  0  0.101198  0.151698  0  4.172852  0
C  C34  1  0.39905840  0.56030155  0.29705435  1  0  0.185854  0  3.89343  0  0  0.159438  0  4.184097  0  0  0.170906  0  4.199859  0  0  0.101216  0.151659  0  4.172966  0
C  C35  1  0.10094222  0.43969778  0.79705488  1  0  0.18607  0  3.893191  0  0  0.159646  0  4.183821  0  0  0.171114  0  4.199584  0  0  0.101287  0.151872  0  4.172685  0
C  C36  1  0.86073666  0.01753944  0.49062843  1  0  0.22088  0  3.84696  0  0  0.200723  0  4.123998  0  0  0.214676  0  4.137756  0  0  0.120356  0.190825  0  4.114372  0
C  C37  1  0.63925979  0.98245868  0.99063016  1  0  0.220829  0  3.847075  0  0  0.200638  0  4.124159  0  0  0.214587  0  4.137923  0  0  0.120325  0.190742  0  4.114529  0
C  C38  1  0.13926530  0.98246634  0.50937155  1  0  0.220915  0  3.846872  0  0  0.200737  0  4.12395  0  0  0.214687  0  4.137713  0  0  0.120382  0.190841  0  4.114321  0
C  C39  1  0.36073372  0.01753290  0.00937276  1  0  0.220884  0  3.84695  0  0  0.200728  0  4.123989  0  0  0.214679  0  4.137749  0  0  0.12037  0.190831  0  4.114364  0
C  C40  1  0.94854800  0.87698557  0.53279815  1  0  0.210927  0  3.868378  0  0  0.18626  0  4.150564  0  0  0.199618  0  4.162602  0  0  0.116802  0.177242  0  4.142146  0
C  C41  1  0.55145299  0.12301519  0.03280110  1  0  0.211006  0  3.868154  0  0  0.186327  0  4.150389  0  0  0.199691  0  4.162425  0  0  0.116893  0.177305  0  4.141973  0
C  C42  1  0.05145511  0.12301877  0.46720065  1  0  0.211034  0  3.868188  0  0  0.186344  0  4.150413  0  0  0.199708  0  4.162444  0  0  0.116869  0.177325  0  4.141995  0
C  C43  1  0.44854419  0.87698064  0.96720182  1  0  0.211023  0  3.868299  0  0  0.186356  0  4.150491  0  0  0.199717  0  4.162536  0  0  0.116868  0.177336  0  4.142071  0
O  O44  1  0.55057708  0.38287800  0.56086406  1  0  -0.611827  0  2.135807  0  0  -0.56899  0  2.401331  0  0  -0.603381  0  2.40206  0  0  -0.370913  -0.543693  0  2.399612  0
O  O45  1  0.94942476  0.61712704  0.06086354  1  0  -0.61185  0  2.135756  0  0  -0.568999  0  2.40127  0  0  -0.603394  0  2.401995  0  0  -0.370934  -0.543697  0  2.399548  0
O  O46  1  0.44942969  0.61713059  0.43913533  1  0  -0.611877  0  2.135813  0  0  -0.569041  0  2.401325  0  0  -0.603433  0  2.402049  0  0  -0.370959  -0.54374  0  2.399605  0
O  O47  1  0.05057440  0.38287162  0.93913644  1  0  -0.611828  0  2.135787  0  0  -0.568992  0  2.401307  0  0  -0.603385  0  2.402034  0  0  -0.370928  -0.543695  0  2.399589  0
O  O48  1  0.67828007  0.00868225  0.65330840  1  0  -0.546357  0  2.159442  0  0  -0.510001  0  2.413952  0  0  -0.538791  0  2.412204  0  0  -0.371238  -0.488991  0  2.414309  0
O  O49  1  0.82172553  0.99131994  0.15331023  1  0  -0.546416  0  2.15959  0  0  -0.510042  0  2.414079  0  0  -0.538823  0  2.412308  0  0  -0.371288  -0.489027  0  2.414433  0
O  O50  1  0.32172335  0.99131638  0.34669276  1  0  -0.546375  0  2.159561  0  0  -0.510032  0  2.414098  0  0  -0.538812  0  2.412339  0  0  -0.371279  -0.489017  0  2.414455  0
O  O51  1  0.17827844  0.00868154  0.84669210  1  0  -0.546407  0  2.159472  0  0  -0.510033  0  2.413965  0  0  -0.538823  0  2.412213  0  0  -0.371274  -0.489019  0  2.414321  0
O  O52  1  0.66622459  0.22779578  0.81673918  1  0  -0.481773  0  2.083401  0  0  -0.425978  0  2.292738  0  0  -0.448917  0  2.2915  0  0  -0.268006  -0.410045  0  2.293549  0
O  O53  1  0.83377401  0.77220653  0.31674042  1  0  -0.481806  0  2.08335  0  0  -0.425996  0  2.292681  0  0  -0.448946  0  2.291463  0  0  -0.26802  -0.410066  0  2.293492  0
O  O54  1  0.33377145  0.77220148  0.18325962  1  0  -0.481874  0  2.083317  0  0  -0.426032  0  2.292666  0  0  -0.448978  0  2.291441  0  0  -0.268021  -0.4101  0  2.293479  0
O  O55  1  0.16622826  0.22779353  0.68326014  1  0  -0.481821  0  2.083387  0  0  -0.426015  0  2.292733  0  0  -0.44896  0  2.291503  0  0  -0.268056  -0.410085  0  2.293546  0
O  O56  1  0.56313651  0.60370331  0.71611705  1  0  -0.537509  0  2.082089  0  0  -0.48911  0  2.316409  0  0  -0.515872  0  2.314049  0  0  -0.328757  -0.469796  0  2.317339  0
O  O57  1  0.93686829  0.39629464  0.21611770  1  0  -0.537415  0  2.082079  0  0  -0.489022  0  2.316408  0  0  -0.515782  0  2.314049  0  0  -0.328719  -0.469706  0  2.31734  0
O  O58  1  0.43686690  0.39629532  0.28388117  1  0  -0.537426  0  2.082156  0  0  -0.489061  0  2.316502  0  0  -0.515819  0  2.314141  0  0  -0.328738  -0.46974  0  2.317429  0
O  O59  1  0.06313540  0.60370541  0.78387935  1  0  -0.537534  0  2.081966  0  0  -0.489151  0  2.316301  0  0  -0.515911  0  2.313938  0  0  -0.328769  -0.469835  0  2.317231  0
O  O60  1  0.83125095  0.47855731  0.41439752  1  0  -0.884002  0  1.849418  0  0  -0.837555  0  2.037129  0  0  -0.864072  0  2.004386  0  0  -0.634858  -0.818089  0  2.060115  0
O  O61  1  0.66875027  0.52144360  0.91439629  1  0  -0.884052  0  1.849358  0  0  -0.837598  0  2.037073  0  0  -0.86412  0  2.004326  0  0  -0.634865  -0.81813  0  2.060058  0
O  O62  1  0.16875019  0.52144419  0.58560422  1  0  -0.884061  0  1.849329  0  0  -0.837612  0  2.037038  0  0  -0.864131  0  2.004293  0  0  -0.634861  -0.818147  0  2.060025  0
O  O63  1  0.33124861  0.47855364  0.08560310  1  0  -0.884035  0  1.849375  0  0  -0.837578  0  2.037095  0  0  -0.864097  0  2.004349  0  0  -0.634862  -0.818114  0  2.060082  0
O  O64  1  0.73553345  0.13620717  0.32373148  1  0  -0.896197  0  1.885879  0  0  -0.850217  0  2.077094  0  0  -0.875266  0  2.043437  0  0  -0.634892  -0.831822  0  2.100726  0
O  O65  1  0.76446743  0.86379227  0.82373145  1  0  -0.896174  0  1.885884  0  0  -0.850194  0  2.077096  0  0  -0.875247  0  2.043441  0  0  -0.634867  -0.831798  0  2.100733  0
O  O66  1  0.26446910  0.86379432  0.67626967  1  0  -0.896204  0  1.885774  0  0  -0.850225  0  2.076989  0  0  -0.875273  0  2.043335  0  0  -0.634895  -0.83183  0  2.100624  0
O  O67  1  0.23552577  0.13620501  0.17627088  1  0  -0.896208  0  1.885813  0  0  -0.850221  0  2.077001  0  0  -0.875272  0  2.043347  0  0  -0.634891  -0.831826  0  2.100637  0
O  O68  1  0.68293541  0.02424966  0.48329073  1  0  -0.59591  0  2.203662  0  0  -0.548216  0  2.461194  0  0  -0.581644  0  2.461902  0  0  -0.375893  -0.523785  0  2.459846  0
O  O69  1  0.81706190  0.97574560  0.98329071  1  0  -0.595928  0  2.203717  0  0  -0.548198  0  2.461247  0  0  -0.581628  0  2.461956  0  0  -0.375902  -0.523767  0  2.459894  0
O  O70  1  0.31706513  0.97575613  0.51670807  1  0  -0.595951  0  2.203695  0  0  -0.548218  0  2.461181  0  0  -0.581645  0  2.461889  0  0  -0.375912  -0.523787  0  2.459832  0
O  O71  1  0.18293473  0.02424738  0.01670809  1  0  -0.595951  0  2.203689  0  0  -0.548237  0  2.461197  0  0  -0.581666  0  2.461906  0  0  -0.375901  -0.523808  0  2.459848  0
O  O72  1  0.87194066  0.73068676  0.57068566  1  0  -0.527782  0  2.079165  0  0  -0.482293  0  2.30906  0  0  -0.508448  0  2.306773  0  0  -0.303677  -0.463486  0  2.309963  0
O  O73  1  0.62806177  0.26931401  0.07068862  1  0  -0.527774  0  2.079036  0  0  -0.482305  0  2.308974  0  0  -0.508469  0  2.306691  0  0  -0.303723  -0.463503  0  2.309879  0
O  O74  1  0.12805903  0.26932189  0.42931256  1  0  -0.527864  0  2.079155  0  0  -0.482349  0  2.30906  0  0  -0.508511  0  2.306778  0  0  -0.303717  -0.463544  0  2.309962  0
O  O75  1  0.37194080  0.73068035  0.92931312  1  0  -0.52782  0  2.079133  0  0  -0.482328  0  2.309055  0  0  -0.508482  0  2.306755  0  0  -0.303714  -0.463522  0  2.309957  0
