# generated using pymatgen
data_Cd2H21C26(NO3)5
_symmetry_space_group_name_H-M   'P 1'
_cell_length_a   10.14884479
_cell_length_b   12.71970291
_cell_length_c   13.46460439
_cell_angle_alpha   114.42226822
_cell_angle_beta   103.69842707
_cell_angle_gamma   98.85416336
_symmetry_Int_Tables_number   1
_chemical_formula_structural   Cd2H21C26(NO3)5
_chemical_formula_sum   'Cd4 H42 C52 N10 O30'
_cell_volume   1473.98788096
_cell_formula_units_Z   2
loop_
 _symmetry_equiv_pos_site_id
 _symmetry_equiv_pos_as_xyz
  1  'x, y, z'
loop_
 _atom_site_type_symbol
 _atom_site_label
 _atom_site_symmetry_multiplicity
 _atom_site_fract_x
 _atom_site_fract_y
 _atom_site_fract_z
 _atom_site_occupancy
 _atom_site_hle17_bader_spin_density
 _atom_site_hle17_ddec_charge
 _atom_site_hle17_ddec_spin_density
 _atom_site_hle17_ddec_sum_bond_order
 _atom_site_hle17_magmom
 _atom_site_hse06_10hf_bader_spin_density
 _atom_site_hse06_10hf_ddec_charge
 _atom_site_hse06_10hf_ddec_spin_density
 _atom_site_hse06_10hf_ddec_sum_bond_order
 _atom_site_hse06_10hf_magmom
 _atom_site_hse06_bader_spin_density
 _atom_site_hse06_ddec_charge
 _atom_site_hse06_ddec_spin_density
 _atom_site_hse06_ddec_sum_bond_order
 _atom_site_hse06_magmom
 _atom_site_pbe_bader_spin_density
 _atom_site_pbe_cm5_charge
 _atom_site_pbe_ddec_charge
 _atom_site_pbe_ddec_spin_density
 _atom_site_pbe_ddec_sum_bond_order
 _atom_site_pbe_magmom
Cd  Cd0  1  0.10798379  0.82574180  0.52947495  1  0  1.180709  0  1.565222  0  0  0.996182  0  1.993959  0  0  1.056331  0  1.93888  0  0  0.770482  0.95316  0  2.031756  0
Cd  Cd1  1  0.89201435  0.17425677  0.47052459  1  0  1.180714  0  1.56519  0  0  0.996179  0  1.993923  0  0  1.056332  0  1.938843  0  0  0.770483  0.953154  0  2.03172  0
Cd  Cd2  1  0.59357314  0.66597994  0.15346164  1  0  1.19076  0  1.556867  0  0  1.003165  0  1.99149  0  0  1.063006  0  1.937199  0  0  0.775436  0.960397  0  2.028499  0
Cd  Cd3  1  0.40642954  0.33402313  0.84653896  1  0  1.190795  0  1.556856  0  0  1.003202  0  1.991484  0  0  1.063038  0  1.937195  0  0  0.775453  0.960441  0  2.028495  0
H  H4  1  0.88974527  0.82422082  0.28479721  1  0  0.425083  0  0.879449  0  0  0.393167  0  0.944655  0  0  0.403978  0  0.929114  0  0  0.291559  0.385524  0  0.955614  0
H  H5  1  0.11025610  0.17578135  0.71520355  1  0  0.425054  0  0.879472  0  0  0.393138  0  0.94468  0  0  0.403949  0  0.92914  0  0  0.291546  0.385497  0  0.955637  0
H  H6  1  0.37614960  0.89936328  0.51662742  1  0  0.412746  0  0.852771  0  0  0.387233  0  0.924325  0  0  0.395615  0  0.914548  0  0  0.304266  0.381238  0  0.930853  0
H  H7  1  0.62384783  0.10063618  0.48337159  1  0  0.412695  0  0.852836  0  0  0.387177  0  0.924401  0  0  0.39556  0  0.914626  0  0  0.304247  0.381181  0  0.930928  0
H  H8  1  0.91095964  0.99123158  0.57402127  1  0  0.430525  0  0.85205  0  0  0.403253  0  0.911645  0  0  0.413015  0  0.897325  0  0  0.299463  0.396237  0  0.921979  0
H  H9  1  0.08904082  0.00876790  0.42597979  1  0  0.430524  0  0.852044  0  0  0.403252  0  0.911645  0  0  0.413013  0  0.897325  0  0  0.299469  0.396239  0  0.921973  0
H  H10  1  0.36630136  0.78591820  0.88944620  1  0  0.112331  0  0.937188  0  0  0.118006  0  1.005992  0  0  0.122584  0  1.001406  0  0  0.108928  0.114736  0  1.009186  0
H  H11  1  0.63369518  0.21407855  0.11055086  1  0  0.112319  0  0.937286  0  0  0.118009  0  1.006075  0  0  0.12258  0  1.001495  0  0  0.108896  0.11474  0  1.009256  0
H  H12  1  0.41262743  0.05548986  0.22978585  1  0  0.117561  0  0.951885  0  0  0.122166  0  1.021045  0  0  0.127187  0  1.015523  0  0  0.113691  0.118541  0  1.025026  0
H  H13  1  0.58737101  0.94450961  0.77021408  1  0  0.117558  0  0.951872  0  0  0.122149  0  1.021042  0  0  0.12717  0  1.01552  0  0  0.113684  0.11852  0  1.025022  0
H  H14  1  0.23241580  0.10324139  0.93322613  1  0  0.12565  0  0.939191  0  0  0.129018  0  1.009403  0  0  0.133642  0  1.00432  0  0  0.118752  0.125676  0  1.013072  0
H  H15  1  0.76758407  0.89675629  0.06677412  1  0  0.125697  0  0.939131  0  0  0.129053  0  1.009356  0  0  0.133679  0  1.004271  0  0  0.118751  0.125707  0  1.013025  0
H  H16  1  0.60658597  0.29774325  0.37584059  1  0  0.303377  0  0.898716  0  0  0.286721  0  0.962612  0  0  0.293701  0  0.957276  0  0  0.314953  0.281788  0  0.966365  0
H  H17  1  0.39341247  0.70225622  0.62415935  1  0  0.303374  0  0.89872  0  0  0.286724  0  0.962612  0  0  0.293702  0  0.957277  0  0  0.314952  0.281791  0  0.966365  0
H  H18  1  0.02334451  0.83709652  0.15884212  1  0  0.127853  0  0.93564  0  0  0.134325  0  0.998244  0  0  0.139283  0  0.993057  0  0  0.119704  0.130713  0  1.001991  0
H  H19  1  0.97665667  0.16290207  0.84115872  1  0  0.127845  0  0.935656  0  0  0.134332  0  0.99825  0  0  0.139289  0  0.993064  0  0  0.119689  0.130714  0  1.002001  0
H  H20  1  0.23847413  0.57780509  0.18455147  1  0  0.116948  0  0.946986  0  0  0.122336  0  1.014871  0  0  0.126069  0  1.012339  0  0  0.112398  0.11969  0  1.0166  0
H  H21  1  0.76152807  0.42219350  0.81544882  1  0  0.116957  0  0.947004  0  0  0.122359  0  1.014875  0  0  0.126094  0  1.012334  0  0  0.112389  0.119704  0  1.016606  0
H  H22  1  0.68943553  0.41154073  0.28547988  1  0  0.116635  0  0.939819  0  0  0.130022  0  0.994593  0  0  0.133088  0  0.993564  0  0  0.111409  0.127801  0  0.995614  0
H  H23  1  0.31056576  0.58845517  0.71452144  1  0  0.116663  0  0.939801  0  0  0.13003  0  0.994594  0  0  0.133094  0  0.99357  0  0  0.111415  0.127807  0  0.995617  0
H  H24  1  0.12559623  0.60419829  0.86747872  1  0  0.126123  0  0.934402  0  0  0.13293  0  0.998205  0  0  0.137331  0  0.994122  0  0  0.11948  0.129743  0  1.001135  0
H  H25  1  0.87440513  0.39580389  0.13252280  1  0  0.126128  0  0.934407  0  0  0.132949  0  0.998195  0  0  0.137351  0  0.994105  0  0  0.119487  0.129754  0  1.001125  0
H  H26  1  0.53989194  0.53079112  0.79303533  1  0  0.087748  0  0.956793  0  0  0.095641  0  1.021331  0  0  0.098334  0  1.01779  0  0  0.114569  0.093577  0  1.024069  0
H  H27  1  0.46011116  0.46921016  0.20696542  1  0  0.087728  0  0.95673  0  0  0.09562  0  1.021285  0  0  0.098314  0  1.01774  0  0  0.114553  0.09355  0  1.024027  0
H  H28  1  0.37724120  0.16153316  0.57968445  1  0  0.080184  0  0.968146  0  0  0.089798  0  1.033174  0  0  0.092108  0  1.029935  0  0  0.112562  0.088007  0  1.035592  0
H  H29  1  0.62275611  0.83846900  0.42031557  1  0  0.080226  0  0.968195  0  0  0.089833  0  1.03323  0  0  0.092145  0  1.029993  0  0  0.11257  0.088041  0  1.035649  0
H  H30  1  0.83754277  0.54581727  0.65662723  1  0  0.127647  0  0.952981  0  0  0.138147  0  1.010524  0  0  0.141516  0  1.009319  0  0  0.113515  0.135682  0  1.011668  0
H  H31  1  0.16245740  0.45418132  0.34337417  1  0  0.127678  0  0.95303  0  0  0.138176  0  1.010555  0  0  0.141546  0  1.00935  0  0  0.113531  0.135706  0  1.011701  0
H  H32  1  0.46279349  0.17582397  0.42697664  1  0  0.108811  0  0.95937  0  0  0.123024  0  1.013824  0  0  0.12624  0  1.012212  0  0  0.109926  0.120599  0  1.015389  0
H  H33  1  0.53719916  0.82417638  0.57302183  1  0  0.108855  0  0.959307  0  0  0.123052  0  1.01377  0  0  0.126268  0  1.012154  0  0  0.109932  0.12063  0  1.015332  0
H  H34  1  0.63435738  0.56008946  0.65272784  1  0  0.118759  0  1.000324  0  0  0.119191  0  1.075218  0  0  0.1238  0  1.07264  0  0  0.104689  0.115958  0  1.077135  0
H  H35  1  0.36564441  0.43991091  0.34727157  1  0  0.118744  0  1.00026  0  0  0.119163  0  1.075172  0  0  0.123773  0  1.072593  0  0  0.104683  0.11593  0  1.077091  0
H  H36  1  0.01743514  0.70789131  0.67024358  1  0  0.080002  0  0.976199  0  0  0.088464  0  1.042271  0  0  0.090495  0  1.039612  0  0  0.113273  0.086935  0  1.044251  0
H  H37  1  0.98256504  0.29210727  0.32975633  1  0  0.08  0  0.976181  0  0  0.08845  0  1.042273  0  0  0.090483  0  1.039608  0  0  0.113267  0.086919  0  1.044253  0
H  H38  1  0.87761210  0.58053511  0.31412794  1  0  0.088886  0  0.960278  0  0  0.097428  0  1.025615  0  0  0.100132  0  1.02261  0  0  0.113598  0.095445  0  1.027702  0
H  H39  1  0.12238993  0.41945987  0.68587094  1  0  0.088849  0  0.960273  0  0  0.097404  0  1.025606  0  0  0.10011  0  1.022592  0  0  0.113576  0.095419  0  1.027676  0
H  H40  1  0.79998128  0.91194459  0.26830115  1  0  0.430006  0  0.870037  0  0  0.397666  0  0.935886  0  0  0.408142  0  0.920806  0  0  0.292708  0.390265  0  0.946512  0
H  H41  1  0.20002039  0.08805847  0.73169927  1  0  0.430033  0  0.869997  0  0  0.397695  0  0.935844  0  0  0.408172  0  0.920764  0  0  0.292721  0.390295  0  0.946469  0
H  H42  1  0.39563908  0.00676829  0.63936429  1  0  0.440467  0  0.856427  0  0  0.40803  0  0.922512  0  0  0.419188  0  0.906235  0  0  0.292061  0.400069  0  0.934121  0
H  H43  1  0.60435834  0.99323117  0.36063471  1  0  0.440469  0  0.856434  0  0  0.408032  0  0.922518  0  0  0.419189  0  0.906241  0  0  0.292058  0.400066  0  0.934133  0
H  H44  1  0.85776082  0.89260939  0.44372263  1  0  0.414448  0  0.880545  0  0  0.385245  0  0.948798  0  0  0.395323  0  0.934007  0  0  0.289421  0.378052  0  0.959342  0
H  H45  1  0.14223924  0.10739187  0.55627681  1  0  0.414461  0  0.880536  0  0  0.385261  0  0.948775  0  0  0.395338  0  0.933985  0  0  0.289432  0.378073  0  0.959314  0
C  C46  1  0.32245110  0.08910656  0.08734486  1  0  0.063937  0  3.710015  0  0  0.060967  0  3.969428  0  0  0.055806  0  3.990787  0  0  0.079982  0.063901  0  3.955108  0
C  C47  1  0.67754794  0.91089470  0.91265439  1  0  0.063917  0  3.710102  0  0  0.060955  0  3.969483  0  0  0.055791  0  3.990846  0  0  0.079995  0.063885  0  3.955158  0
C  C48  1  0.35204387  0.87098064  0.94528630  1  0  -0.035143  0  3.647098  0  0  -0.079245  0  3.903622  0  0  -0.074584  0  3.922159  0  0  -0.063315  -0.081462  0  3.890546  0
C  C49  1  0.64795356  0.12901882  0.05471270  1  0  -0.03515  0  3.647135  0  0  -0.079276  0  3.903673  0  0  -0.07461  0  3.92221  0  0  -0.063274  -0.081493  0  3.890605  0
C  C50  1  0.37836635  0.02200016  0.13671702  1  0  -0.070169  0  3.681685  0  0  -0.112803  0  3.939074  0  0  -0.107886  0  3.95468  0  0  -0.065496  -0.115541  0  3.928343  0
C  C51  1  0.62163239  0.97800020  0.86328182  1  0  -0.070168  0  3.681748  0  0  -0.112777  0  3.939124  0  0  -0.10786  0  3.954731  0  0  -0.065497  -0.115514  0  3.928391  0
C  C52  1  0.39480564  0.91203528  0.06501333  1  0  -0.070169  0  3.745244  0  0  -0.041527  0  3.980951  0  0  -0.053583  0  4.007233  0  0  -0.016819  -0.033966  0  3.963337  0
C  C53  1  0.60519322  0.08796239  0.93498599  1  0  -0.070061  0  3.745114  0  0  -0.041435  0  3.980835  0  0  -0.053489  0  4.007112  0  0  -0.016792  -0.033874  0  3.963223  0
C  C54  1  0.27716089  0.04886382  0.96856256  1  0  -0.047755  0  3.6534  0  0  -0.093552  0  3.915155  0  0  -0.087404  0  3.929023  0  0  -0.057766  -0.096977  0  3.905712  0
C  C55  1  0.72283755  0.95113564  0.03143663  1  0  -0.047816  0  3.653376  0  0  -0.09359  0  3.9151  0  0  -0.087441  0  3.928969  0  0  -0.057795  -0.097018  0  3.905663  0
C  C56  1  0.29207897  0.93831064  0.89672664  1  0  -0.061592  0  3.728916  0  0  -0.033838  0  3.965491  0  0  -0.044984  0  3.989186  0  0  -0.013426  -0.027037  0  3.949766  0
C  C57  1  0.70791804  0.06169062  0.10327298  1  0  -0.061606  0  3.729036  0  0  -0.03386  0  3.965611  0  0  -0.045004  0  3.989303  0  0  -0.013409  -0.027061  0  3.949895  0
C  C58  1  0.46543864  0.84374200  0.11936677  1  0  0.642032  0  3.931533  0  0  0.591551  0  4.223245  0  0  0.625461  0  4.219849  0  0  0.198817  0.568632  0  4.224592  0
C  C59  1  0.53455980  0.15625747  0.88063316  1  0  0.642033  0  3.931465  0  0  0.591571  0  4.223158  0  0  0.625479  0  4.219762  0  0  0.19884  0.568652  0  4.224506  0
C  C60  1  0.12082824  0.74625787  0.30322645  1  0  0.652657  0  3.894594  0  0  0.602169  0  4.181122  0  0  0.636496  0  4.175558  0  0  0.205747  0.578983  0  4.184031  0
C  C61  1  0.87917193  0.25374071  0.69677346  1  0  0.652649  0  3.89453  0  0  0.602195  0  4.181064  0  0  0.636522  0  4.175502  0  0  0.205738  0.579005  0  4.18397  0
C  C62  1  0.06722788  0.76336964  0.12053740  1  0  -0.0728  0  3.669493  0  0  -0.113523  0  3.923018  0  0  -0.109205  0  3.938632  0  0  -0.064458  -0.115806  0  3.912158  0
C  C63  1  0.93277259  0.23662984  0.87946366  1  0  -0.072757  0  3.669487  0  0  -0.113488  0  3.923053  0  0  -0.109171  0  3.938671  0  0  -0.064402  -0.115776  0  3.912197  0
C  C64  1  0.57056059  0.36775409  0.53079239  1  0  0.333662  0  3.769482  0  0  0.320006  0  4.017126  0  0  0.337223  0  4.03253  0  0  0.128526  0.308754  0  4.006308  0
C  C65  1  0.42943785  0.63224537  0.46920681  1  0  0.333671  0  3.769438  0  0  0.320001  0  4.017088  0  0  0.337217  0  4.032492  0  0  0.128525  0.308749  0  4.006268  0
C  C66  1  0.06952264  0.72475738  0.00832660  1  0  0.059733  0  3.732751  0  0  0.057485  0  3.991013  0  0  0.052121  0  4.01466  0  0  0.076085  0.060672  0  3.974941  0
C  C67  1  0.93047883  0.27524211  0.99167539  1  0  0.05963  0  3.732914  0  0  0.057449  0  3.99112  0  0  0.052086  0  4.014767  0  0  0.07603  0.060628  0  3.975057  0
C  C68  1  0.26921772  0.49305620  0.96931367  1  0  0.646892  0  3.922181  0  0  0.596431  0  4.208716  0  0  0.631787  0  4.203201  0  0  0.200801  0.57249  0  4.21161  0
C  C69  1  0.73078496  0.50694687  0.03068694  1  0  0.646932  0  3.922168  0  0  0.596472  0  4.208679  0  0  0.631827  0  4.203163  0  0  0.200777  0.572529  0  4.211569  0
C  C70  1  0.18877405  0.61769304  0.13352383  1  0  -0.028177  0  3.609246  0  0  -0.070976  0  3.86188  0  0  -0.066054  0  3.878677  0  0  -0.056309  -0.073828  0  3.850583  0
C  C71  1  0.81122803  0.38230823  0.86647673  1  0  -0.028216  0  3.609353  0  0  -0.071008  0  3.862001  0  0  -0.066082  0  3.878799  0  0  -0.056364  -0.073864  0  3.850707  0
C  C72  1  0.75953139  0.47634242  0.37246758  1  0  -0.208963  0  3.700385  0  0  -0.227883  0  3.956573  0  0  -0.238361  0  3.977316  0  0  -0.089455  -0.221567  0  3.943069  0
C  C73  1  0.24046919  0.52365436  0.62753247  1  0  -0.209101  0  3.700387  0  0  -0.228002  0  3.956624  0  0  -0.238481  0  3.977367  0  0  -0.089481  -0.221693  0  3.943129  0
C  C74  1  0.19052306  0.58066877  0.02040604  1  0  -0.051313  0  3.731914  0  0  -0.023845  0  3.969432  0  0  -0.034579  0  3.993049  0  0  -0.009298  -0.017236  0  3.953887  0
C  C75  1  0.80948165  0.41933431  0.97959569  1  0  -0.051405  0  3.732056  0  0  -0.023878  0  3.969495  0  0  -0.034613  0  3.993112  0  0  -0.009281  -0.017278  0  3.953949  0
C  C76  1  0.12611774  0.63212421  0.95557860  1  0  -0.073775  0  3.671551  0  0  -0.114374  0  3.927163  0  0  -0.109886  0  3.942989  0  0  -0.061928  -0.116832  0  3.916336  0
C  C77  1  0.87388333  0.36787706  0.04442177  1  0  -0.073743  0  3.671661  0  0  -0.114399  0  3.927262  0  0  -0.109906  0  3.943086  0  0  -0.061939  -0.116857  0  3.916436  0
C  C78  1  0.74110840  0.46700234  0.46924497  1  0  0.308925  0  3.76903  0  0  0.296806  0  4.017606  0  0  0.311244  0  4.036061  0  0  0.123749  0.287635  0  4.004366  0
C  C79  1  0.25889278  0.53299625  0.53075661  1  0  0.309055  0  3.768859  0  0  0.296871  0  4.017514  0  0  0.311307  0  4.035972  0  0  0.123814  0.287695  0  4.004277  0
C  C80  1  0.52586629  0.45346756  0.71142178  1  0  0.137973  0  3.759794  0  0  0.102211  0  4.02026  0  0  0.113064  0  4.037955  0  0  0.03632  0.095296  0  4.008077  0
C  C81  1  0.47413579  0.54653372  0.28857877  1  0  0.137906  0  3.759935  0  0  0.102123  0  4.020416  0  0  0.112975  0  4.038115  0  0  0.036292  0.095207  0  4.008239  0
C  C82  1  0.24663406  0.89396715  0.76839744  1  0  0.64484  0  3.918311  0  0  0.592573  0  4.211672  0  0  0.626614  0  4.206443  0  0  0.201529  0.569523  0  4.214365  0
C  C83  1  0.75336307  0.10603140  0.23160042  1  0  0.644952  0  3.918373  0  0  0.592688  0  4.211717  0  0  0.626728  0  4.206487  0  0  0.201529  0.569638  0  4.214415  0
C  C84  1  0.43597047  0.24827068  0.59327516  1  0  0.152447  0  3.737795  0  0  0.121009  0  3.98551  0  0  0.131731  0  4.004033  0  0  0.040313  0.114171  0  3.972692  0
C  C85  1  0.56402756  0.75173058  0.40672390  1  0  0.152395  0  3.737865  0  0  0.120964  0  3.98557  0  0  0.131682  0  4.004097  0  0  0.040335  0.114125  0  3.972752  0
C  C86  1  0.83857299  0.55127567  0.57846337  1  0  -0.205559  0  3.680137  0  0  -0.221792  0  3.927813  0  0  -0.232228  0  3.947183  0  0  -0.08849  -0.214996  0  3.914758  0
C  C87  1  0.16142658  0.44872111  0.42153649  1  0  -0.205722  0  3.680097  0  0  -0.221901  0  3.927752  0  0  -0.232336  0  3.947121  0  0  -0.08857  -0.215112  0  3.914713  0
C  C88  1  0.48750645  0.25597359  0.50933445  1  0  -0.235979  0  3.706635  0  0  -0.250118  0  3.954215  0  0  -0.261417  0  3.972804  0  0  -0.098132  -0.242791  0  3.941925  0
C  C89  1  0.51248924  0.74402676  0.49066458  1  0  -0.236051  0  3.706546  0  0  -0.250175  0  3.954123  0  0  -0.26147  0  3.97271  0  0  -0.098147  -0.24285  0  3.941833  0
C  C90  1  0.12425989  0.70694796  0.18274510  1  0  -0.046147  0  3.721767  0  0  -0.020642  0  3.961488  0  0  -0.030429  0  3.98339  0  0  -0.008955  -0.014695  0  3.946948  0
C  C91  1  0.87574016  0.29305331  0.81725582  1  0  -0.046125  0  3.721689  0  0  -0.020742  0  3.961602  0  0  -0.030532  0  3.983508  0  0  -0.008972  -0.014796  0  3.947056  0
C  C92  1  0.58241715  0.46916625  0.63309834  1  0  -0.22754  0  3.692128  0  0  -0.24519  0  3.950925  0  0  -0.257028  0  3.969127  0  0  -0.099969  -0.237655  0  3.938753  0
C  C93  1  0.41758363  0.53083412  0.36690088  1  0  -0.227482  0  3.692136  0  0  -0.245092  0  3.950899  0  0  -0.25693  0  3.969107  0  0  -0.099959  -0.237559  0  3.938736  0
C  C94  1  0.94173781  0.64191434  0.58627636  1  0  0.149645  0  3.730043  0  0  0.115281  0  3.981457  0  0  0.125437  0  3.99987  0  0  0.041455  0.108743  0  3.968998  0
C  C95  1  0.05826207  0.35808333  0.41372315  1  0  0.149732  0  3.729976  0  0  0.115354  0  3.98137  0  0  0.12551  0  3.999785  0  0  0.04149  0.108816  0  3.968909  0
C  C96  1  0.86547712  0.57035011  0.38828636  1  0  0.138877  0  3.722828  0  0  0.106331  0  3.976228  0  0  0.115436  0  3.995517  0  0  0.039963  0.100763  0  3.963084  0
C  C97  1  0.13452288  0.42964487  0.61171288  1  0  0.139011  0  3.722942  0  0  0.106463  0  3.976322  0  0  0.115571  0  3.99561  0  0  0.040001  0.100894  0  3.963186  0
N  N98  1  0.31582814  0.20839178  0.16322937  1  0  0.509992  0  3.884365  0  0  0.533707  0  4.184394  0  0  0.555509  0  4.191828  0  0  0.05851  0.519097  0  4.179488  0
N  N99  1  0.68417061  0.79160858  0.83676948  1  0  0.509943  0  3.884369  0  0  0.533647  0  4.184401  0  0  0.555451  0  4.191835  0  0  0.058502  0.519037  0  4.179487  0
N  N100  1  0.45733035  0.34483111  0.69519307  1  0  -0.389735  0  3.294629  0  0  -0.306294  0  3.567743  0  0  -0.332633  0  3.588423  0  0  -0.353244  -0.288418  0  3.55297  0
N  N101  1  0.54267173  0.65517017  0.30480823  1  0  -0.389596  0  3.294626  0  0  -0.306149  0  3.567725  0  0  -0.332489  0  3.588409  0  0  -0.353218  -0.288279  0  3.552956  0
N  N102  1  0.95509854  0.65386269  0.49404273  1  0  -0.373177  0  3.292435  0  0  -0.290137  0  3.560105  0  0  -0.315153  0  3.581247  0  0  -0.347493  -0.273475  0  3.545378  0
N  N103  1  0.04490365  0.34613589  0.50595830  1  0  -0.373231  0  3.292588  0  0  -0.290192  0  3.560256  0  0  -0.315209  0  3.5814  0  0  -0.347523  -0.273536  0  3.545529  0
N  N104  1  0.01639517  0.78838919  0.94557974  1  0  0.497449  0  3.924901  0  0  0.522551  0  4.229205  0  0  0.543278  0  4.239218  0  0  0.053176  0.508679  0  4.22256  0
N  N105  1  0.98360458  0.21161119  0.05442153  1  0  0.49752  0  3.924948  0  0  0.522588  0  4.229261  0  0  0.543317  0  4.239273  0  0  0.05318  0.508714  0  4.222625  0
N  N106  1  0.63208131  0.37431976  0.45224257  1  0  -0.400417  0  3.352176  0  0  -0.343593  0  3.585919  0  0  -0.365424  0  3.595676  0  0  -0.394362  -0.328289  0  3.578129  0
N  N107  1  0.36791916  0.62567972  0.54775848  1  0  -0.400482  0  3.352172  0  0  -0.343649  0  3.585951  0  0  -0.365479  0  3.595708  0  0  -0.394414  -0.328347  0  3.578162  0
O  O108  1  0.28995823  0.27569011  0.12044602  1  0  -0.34612  0  1.766404  0  0  -0.324053  0  1.973051  0  0  -0.337057  0  1.970441  0  0  -0.116693  -0.31545  0  1.975001  0
O  O109  1  0.71004123  0.72430936  0.87955262  1  0  -0.346159  0  1.766404  0  0  -0.324078  0  1.973066  0  0  -0.337084  0  1.970454  0  0  -0.116756  -0.3155  0  1.975025  0
O  O110  1  0.79608456  0.84050412  0.28180939  1  0  -0.845162  0  1.87845  0  0  -0.775334  0  2.067245  0  0  -0.798853  0  2.033412  0  0  -0.575264  -0.758516  0  2.09065  0
O  O111  1  0.20391681  0.15949805  0.71819138  1  0  -0.845174  0  1.878407  0  0  -0.775355  0  2.067211  0  0  -0.798873  0  2.033378  0  0  -0.57528  -0.758544  0  2.090617  0
O  O112  1  0.33965997  0.23712650  0.26747405  1  0  -0.365698  0  1.771451  0  0  -0.343977  0  1.981979  0  0  -0.356525  0  1.978626  0  0  -0.123345  -0.335617  0  1.984455  0
O  O113  1  0.66033878  0.76287385  0.73252480  1  0  -0.365603  0  1.771426  0  0  -0.343908  0  1.981951  0  0  -0.356454  0  1.978592  0  0  -0.123317  -0.335558  0  1.984426  0
O  O114  1  0.32900259  0.95520329  0.55839213  1  0  -0.829104  0  1.858664  0  0  -0.76903  0  2.051245  0  0  -0.790159  0  2.021332  0  0  -0.578566  -0.754055  0  2.07174  0
O  O115  1  0.67099484  0.04479617  0.44160687  1  0  -0.829053  0  1.858708  0  0  -0.768986  0  2.051312  0  0  -0.790115  0  2.021403  0  0  -0.578547  -0.754002  0  2.071807  0
O  O116  1  0.49894067  0.88267624  0.22748869  1  0  -0.651216  0  1.962846  0  0  -0.594138  0  2.186546  0  0  -0.620275  0  2.178068  0  0  -0.328074  -0.575679  0  2.191702  0
O  O117  1  0.50105705  0.11732413  0.77251146  1  0  -0.651242  0  1.96281  0  0  -0.59417  0  2.186507  0  0  -0.620311  0  2.178031  0  0  -0.328096  -0.575715  0  2.191662  0
O  O118  1  0.37554330  0.48642318  0.03645889  1  0  -0.65604  0  2.012447  0  0  -0.587446  0  2.257059  0  0  -0.617457  0  2.24586  0  0  -0.319366  -0.566294  0  2.263854  0
O  O119  1  0.62446304  0.51358169  0.96354159  1  0  -0.656044  0  2.012487  0  0  -0.58746  0  2.257113  0  0  -0.61747  0  2.245911  0  0  -0.319405  -0.566325  0  2.263913  0
O  O120  1  0.17856741  0.70036651  0.36241572  1  0  -0.610258  0  1.949297  0  0  -0.556421  0  2.183653  0  0  -0.584183  0  2.178308  0  0  -0.310253  -0.536923  0  2.186414  0
O  O121  1  0.82143204  0.29963297  0.63758515  1  0  -0.610219  0  1.949291  0  0  -0.556368  0  2.18362  0  0  -0.584136  0  2.178283  0  0  -0.31024  -0.536888  0  2.186386  0
O  O122  1  0.22844380  0.43046513  0.85935096  1  0  -0.631117  0  1.958533  0  0  -0.567796  0  2.19856  0  0  -0.598167  0  2.189837  0  0  -0.323627  -0.546721  0  2.203747  0
O  O123  1  0.77156121  0.56953884  0.14064968  1  0  -0.631103  0  1.958469  0  0  -0.567795  0  2.198493  0  0  -0.598167  0  2.189769  0  0  -0.32362  -0.54674  0  2.203686  0
O  O124  1  0.05860609  0.82826581  0.34347762  1  0  -0.701676  0  2.038659  0  0  -0.621476  0  2.263361  0  0  -0.652383  0  2.25256  0  0  -0.331422  -0.599774  0  2.27009  0
O  O125  1  0.94139379  0.17173187  0.65652189  1  0  -0.701683  0  2.038661  0  0  -0.621485  0  2.263366  0  0  -0.652388  0  2.25256  0  0  -0.331438  -0.599792  0  2.2701  0
O  O126  1  0.28153439  0.80547279  0.70540751  1  0  -0.635702  0  1.963841  0  0  -0.589798  0  2.210401  0  0  -0.614923  0  2.202285  0  0  -0.318032  -0.57206  0  2.215249  0
O  O127  1  0.71846274  0.19452577  0.29459035  1  0  -0.635787  0  1.963951  0  0  -0.589881  0  2.210496  0  0  -0.615013  0  2.202392  0  0  -0.318056  -0.572147  0  2.215346  0
O  O128  1  0.16952207  0.94814089  0.72732106  1  0  -0.664199  0  2.009234  0  0  -0.584369  0  2.239456  0  0  -0.61588  0  2.229565  0  0  -0.329779  -0.562176  0  2.245411  0
O  O129  1  0.83047667  0.05185947  0.27267853  1  0  -0.664249  0  2.009247  0  0  -0.584398  0  2.239448  0  0  -0.615912  0  2.229559  0  0  -0.329785  -0.562215  0  2.245409  0
O  O130  1  0.90601078  0.90785059  0.52335993  1  0  -0.827071  0  1.845131  0  0  -0.771824  0  2.02689  0  0  -0.792262  0  1.995095  0  0  -0.589255  -0.757269  0  2.049379  0
O  O131  1  0.09398867  0.09214888  0.47664020  1  0  -0.827069  0  1.845127  0  0  -0.771825  0  2.026879  0  0  -0.792262  0  1.995085  0  0  -0.58925  -0.75726  0  2.049358  0
O  O132  1  0.48866537  0.74849761  0.05042723  1  0  -0.63496  0  1.989079  0  0  -0.567802  0  2.238722  0  0  -0.599232  0  2.229773  0  0  -0.327423  -0.545683  0  2.243936  0
O  O133  1  0.51133410  0.25150185  0.94957141  1  0  -0.634979  0  1.989083  0  0  -0.567823  0  2.238706  0  0  -0.59925  0  2.229756  0  0  -0.327461  -0.545713  0  2.243926  0
O  O134  1  0.99440707  0.74043602  0.83970297  1  0  -0.364953  0  1.79165  0  0  -0.350891  0  2.014237  0  0  -0.3639  0  2.011063  0  0  -0.126203  -0.342169  0  2.016422  0
O  O135  1  0.00559459  0.25956706  0.16029894  1  0  -0.364959  0  1.791741  0  0  -0.350837  0  2.014306  0  0  -0.36385  0  2.011133  0  0  -0.126176  -0.342125  0  2.016501  0
O  O136  1  0.99800913  0.88690960  0.00169962  1  0  -0.34065  0  1.7876  0  0  -0.326552  0  2.004939  0  0  -0.339221  0  2.00263  0  0  -0.11547  -0.318091  0  2.006806  0
O  O137  1  0.00198726  0.11308988  0.99830217  1  0  -0.34066  0  1.78754  0  0  -0.326595  0  2.0049  0  0  -0.339266  0  2.002593  0  0  -0.115495  -0.318145  0  2.006776  0
