# generated using pymatgen
data_CuH16C17N3ClO2
_symmetry_space_group_name_H-M   'P 1'
_cell_length_a   7.54600636
_cell_length_b   8.97923323
_cell_length_c   12.05888073
_cell_angle_alpha   90.31496806
_cell_angle_beta   89.99932871
_cell_angle_gamma   89.99976956
_symmetry_Int_Tables_number   1
_chemical_formula_structural   CuH16C17N3ClO2
_chemical_formula_sum   'Cu2 H32 C34 N6 Cl2 O4'
_cell_volume   817.06546889
_cell_formula_units_Z   2
loop_
 _symmetry_equiv_pos_site_id
 _symmetry_equiv_pos_as_xyz
  1  'x, y, z'
loop_
 _atom_site_type_symbol
 _atom_site_label
 _atom_site_symmetry_multiplicity
 _atom_site_fract_x
 _atom_site_fract_y
 _atom_site_fract_z
 _atom_site_occupancy
 _atom_site_hle17_ddec_charge
 _atom_site_hle17_ddec_spin_density
 _atom_site_hle17_ddec_sum_bond_order
 _atom_site_hle17_magmom
 _atom_site_hse06_10hf_ddec_charge
 _atom_site_hse06_10hf_ddec_spin_density
 _atom_site_hse06_10hf_ddec_sum_bond_order
 _atom_site_hse06_10hf_magmom
 _atom_site_hse06_ddec_charge
 _atom_site_hse06_ddec_spin_density
 _atom_site_hse06_ddec_sum_bond_order
 _atom_site_hse06_magmom
 _atom_site_pbe_cm5_charge
 _atom_site_pbe_ddec_charge
 _atom_site_pbe_ddec_spin_density
 _atom_site_pbe_ddec_sum_bond_order
 _atom_site_pbe_magmom
Cu  Cu0  1  0.05125106  0.47862572  0.18189472  1  0.776919  0.674319  1.907751  0.464  0.749799  0.769809  2.317294  0.58  0.839603  0.849498  2.2441  0.665  0.661953  0.696597  0.716098  2.368711  0.528
Cu  Cu1  1  0.55126046  0.52139811  0.81810341  1  0.776729  -0.674319  1.908317  -0.464  0.749778  -0.76982  2.317811  -0.58  0.839543  -0.849471  2.244648  -0.665  0.662013  0.696522  -0.716109  2.369218  -0.528
H  H2  1  0.23035168  0.20213059  0.02976310  1  0.080588  -0.0001  0.940396  0.0  0.091118  -0.000122  1.002274  0.0  0.09162  -9.4e-05  1.004043  0.0  0.120325  0.090368  -0.000138  1.001576  0.0
H  H3  1  0.73036786  0.79789248  0.97023870  1  0.080698  0.000101  0.940573  0.0  0.091102  0.000123  1.002384  0.0  0.091607  9.3e-05  1.004159  0.0  0.120357  0.090356  0.000137  1.001686  0.0
H  H4  1  0.90236792  0.23897181  0.88186003  1  0.095724  0.00011  0.937926  0.0  0.110152  0.000103  1.004289  0.0  0.111496  5.6e-05  1.003451  0.0  0.091351  0.10869  0.00017  1.005493  0.0
H  H5  1  0.40235345  0.76105254  0.11808911  1  0.095786  -0.000117  0.937894  0.0  0.110148  -0.000103  1.004309  0.0  0.111474  -5.6e-05  1.003444  0.0  0.091375  0.108689  -0.000171  1.005507  0.0
H  H6  1  0.11708817  0.22801602  0.82795147  1  0.105626  0.001731  0.924086  0.003  0.12238  0.001002  0.980641  0.002  0.123742  0.000578  0.979849  0.001  0.103447  0.121892  0.001363  0.980478  0.002
H  H7  1  0.61703469  0.77196186  0.17204691  1  0.105804  -0.001729  0.924103  -0.003  0.122563  -0.001002  0.980569  -0.002  0.1239  -0.000579  0.979776  -0.001  0.103549  0.122077  -0.001364  0.980405  -0.002
H  H8  1  0.14818352  0.94166141  0.05629970  1  0.09855  -5.4e-05  0.978488  0.0  0.107059  1e-06  1.047543  0.0  0.109875  -6e-06  1.045358  0.0  0.111865  0.105017  3.3e-05  1.049088  0.0
H  H9  1  0.64817226  0.05836212  0.94373007  1  0.098382  5.3e-05  0.978954  0.0  0.106949  -1e-06  1.047941  0.0  0.109766  6e-06  1.045748  0.0  0.111823  0.104909  -3.4e-05  1.049486  0.0
H  H10  1  0.11526822  0.12052894  0.19216901  1  0.088053  3.1e-05  0.959779  0.0  0.103883  4.9e-05  1.024581  0.0  0.103009  -2.2e-05  1.027404  0.0  0.113073  0.104181  0.000217  1.023107  0.0
H  H11  1  0.61533622  0.87946451  0.80781781  1  0.087926  -3e-05  0.959738  0.0  0.103739  -5e-05  1.024603  0.0  0.102862  2.2e-05  1.027439  0.0  0.113044  0.104038  -0.000217  1.023129  0.0
H  H12  1  0.89828690  0.07223962  0.14653822  1  0.088263  0.004255  0.932213  0.006  0.101208  0.003088  0.997146  0.004  0.100805  0.002101  0.99833  0.003  0.109047  0.101038  0.003778  0.996288  0.005
H  H13  1  0.39834146  0.92779054  0.85347233  1  0.088274  -0.004252  0.932146  -0.006  0.101264  -0.003082  0.997046  -0.004  0.100872  -0.002098  0.998213  -0.003  0.109095  0.101086  -0.003773  0.996187  -0.005
H  H14  1  0.79878616  0.01727502  0.34134673  1  0.115512  0.000661  0.932225  0.001  0.127818  0.000665  0.986257  0.001  0.131039  0.000486  0.985401  0.001  0.112396  0.125346  0.001011  0.987167  0.001
H  H15  1  0.29883493  0.98271427  0.65863460  1  0.115548  -0.00066  0.9322  -0.001  0.127805  -0.000664  0.986264  -0.001  0.131023  -0.000486  0.985419  -0.001  0.112418  0.125332  -0.001011  0.987176  -0.001
H  H16  1  0.82879192  0.62142717  0.60104483  1  0.077475  3.7e-05  0.977507  0.0  0.091939  5.4e-05  1.036991  0.0  0.093742  4.7e-05  1.03717  0.0  0.093662  0.090812  5.5e-05  1.036809  0.0
H  H17  1  0.32873503  0.37855986  0.39896531  1  0.07751  -3.9e-05  0.977552  0.0  0.091961  -5.4e-05  1.03707  0.0  0.093764  -4.8e-05  1.037252  0.0  0.093627  0.090836  -5.5e-05  1.036879  0.0
H  H18  1  0.91036546  0.54992544  0.41102031  1  0.081549  0.001158  0.954719  0.002  0.088793  0.00113  1.020155  0.002  0.090903  0.000839  1.018027  0.001  0.110732  0.087399  0.001308  1.021198  0.002
H  H19  1  0.41040546  0.45007352  0.58900003  1  0.081735  -0.001156  0.954645  -0.002  0.088825  -0.00113  1.020248  -0.002  0.090948  -0.00084  1.018105  -0.001  0.110757  0.087404  -0.001308  1.021321  -0.002
H  H20  1  0.96507965  0.55199241  0.78133545  1  0.117407  9.8e-05  0.948187  0.0  0.127403  8.4e-05  1.009003  0.0  0.130836  8.2e-05  1.007604  0.0  0.102691  0.124178  9e-05  1.011374  0.0
H  H21  1  0.46507363  0.44799294  0.21868198  1  0.117431  -9.6e-05  0.948249  0.0  0.127389  -8.4e-05  1.009098  0.0  0.130793  -8.2e-05  1.007734  0.0  0.102705  0.124166  -9e-05  1.011469  0.0
H  H22  1  0.74997883  0.39765185  0.55883293  1  0.102488  0.000631  0.994879  0.001  0.108839  0.000537  1.062962  0.001  0.111587  0.000412  1.062548  0.0  0.095031  0.106904  0.00067  1.063379  0.001
H  H23  1  0.25002507  0.60232214  0.44117111  1  0.102617  -0.000635  0.994878  -0.001  0.10891  -0.000537  1.063018  -0.001  0.111657  -0.000412  1.062605  0.0  0.095032  0.106935  -0.00067  1.063473  -0.001
H  H24  1  0.86671811  0.08994448  0.68061557  1  0.094725  -0.000499  0.976932  0.0  0.105534  -0.000533  1.039371  0.0  0.108359  -0.000434  1.037677  0.0  0.090616  0.103521  -0.000613  1.040681  0.0
H  H25  1  0.36666752  0.91002566  0.31938761  1  0.094787  0.0005  0.976537  0.0  0.105611  0.000533  1.039015  0.0  0.10843  0.000434  1.037315  0.0  0.090655  0.103589  0.000613  1.040331  0.0
H  H26  1  0.78352032  0.88427874  0.54977597  1  0.080601  2.1e-05  0.961379  0.0  0.094425  4e-06  1.018448  0.0  0.097095  -1e-06  1.01781  0.0  0.092675  0.092904  2e-05  1.018391  0.0
H  H27  1  0.28339579  0.11570507  0.45021458  1  0.080565  -1.9e-05  0.961112  0.0  0.094511  -4e-06  1.018081  0.0  0.097183  0.0  1.017439  0.0  0.092653  0.092988  -2e-05  1.018026  0.0
H  H28  1  0.68909844  0.13219383  0.52046034  1  0.095897  -0.000187  0.940194  0.0  0.107546  -0.000388  0.998908  0.0  0.10988  -0.000318  0.99715  0.0  0.107829  0.105644  -0.00048  1.000492  0.0
H  H29  1  0.18915629  0.86777597  0.47954414  1  0.095876  0.000188  0.940547  0.0  0.107559  0.000388  0.999223  0.0  0.10989  0.000318  0.997448  0.0  0.107804  0.105703  0.00048  1.000775  0.0
H  H30  1  0.09879811  0.68673988  0.98135308  1  0.296603  -0.000244  0.948018  0.0  0.279681  -0.000115  1.00799  0.0  0.288045  -0.000107  1.001659  0.0  0.303586  0.273721  -7.9e-05  1.012327  0.0
H  H31  1  0.59879019  0.31326491  0.01867286  1  0.296595  0.000243  0.948174  0.0  0.27956  0.000114  1.008256  0.0  0.287927  0.000107  1.001925  0.0  0.30352  0.273603  7.9e-05  1.012591  0.0
H  H32  1  0.87105029  0.31498497  0.06854681  1  0.262934  -0.001509  0.91355  -0.002  0.250312  -0.000278  0.978693  -0.001  0.257176  -0.000495  0.97506  -0.001  0.301064  0.245706  -0.00012  0.98109  0.0
H  H33  1  0.37107108  0.68503749  0.93145894  1  0.263049  0.001509  0.913461  0.002  0.250401  0.000277  0.978607  0.001  0.257263  0.000494  0.974977  0.001  0.301096  0.245798  0.000118  0.980992  0.0
C  C34  1  0.11507100  0.26647857  0.00080543  1  0.023012  -0.002848  3.585767  -0.006  0.011812  4.4e-05  3.816561  -0.003  0.012437  -0.000462  3.830944  -0.003  0.005453  0.011258  0.000443  3.80801  -0.003
C  C35  1  0.61511866  0.73352837  0.99921708  1  0.022769  0.002839  3.586116  0.006  0.012192  -4.8e-05  3.81602  0.003  0.012774  0.000465  3.830371  0.003  0.005344  0.011615  -0.000445  3.807514  0.003
C  C36  1  0.03471552  0.19128420  0.89827152  1  -0.168602  0.006267  3.713523  0.006  -0.216229  0.004494  3.958877  0.005  -0.217002  0.003103  3.971926  0.003  -0.160329  -0.215121  0.005583  3.948798  0.006
C  C37  1  0.53471360  0.80872745  0.10172588  1  -0.168831  -0.006259  3.714115  -0.006  -0.216471  -0.00449  3.959141  -0.005  -0.217118  -0.003098  3.972024  -0.003  -0.160414  -0.215379  -0.005579  3.949104  -0.006
C  C38  1  0.02796257  0.02494905  0.89776596  1  -0.036199  -8.3e-05  3.796967  0.0  -0.025499  -0.000113  4.057999  0.0  -0.029248  -6.6e-05  4.0833  0.0  -0.04597  -0.022128  -0.000216  4.039042  0.0
C  C39  1  0.52799320  0.97504706  0.10223644  1  -0.036207  0.0001  3.797318  0.0  -0.025465  0.000112  4.058335  0.0  -0.029249  6.6e-05  4.083608  0.0  -0.04603  -0.022093  0.000218  4.039375  0.0
C  C40  1  0.08834852  0.92438492  0.97547553  1  -0.019667  0.00061  3.704555  0.001  -0.06626  8.6e-05  3.979128  0.0  -0.059685  -1e-06  3.994223  0.0  -0.007145  -0.070436  0.000299  3.968187  0.0
C  C41  1  0.58835589  0.07562098  0.02453639  1  -0.019324  -0.000622  3.705206  -0.001  -0.066002  -8.4e-05  3.979678  0.0  -0.059416  0.0  3.99478  0.0  -0.006944  -0.070175  -0.000298  3.968738  0.0
C  C42  1  0.96422268  0.93722334  0.80547313  1  -0.062129  0.000129  3.832994  0.0  -0.049065  2.1e-05  4.069367  0.0  -0.051966  -5.6e-05  4.094225  0.0  -0.03272  -0.047282  -4e-06  4.052568  0.0
C  C43  1  0.46425422  0.06279089  0.19452197  1  -0.061883  -0.000147  3.832684  0.0  -0.04906  -1.9e-05  4.069275  0.0  -0.051961  5.4e-05  4.094137  0.0  -0.032611  -0.04727  5e-06  4.052469  0.0
C  C44  1  0.98124821  0.16447941  0.17711130  1  -0.048469  -0.001286  3.645239  -0.004  -0.112398  0.001436  3.901578  -0.001  -0.108255  0.0004  3.914148  -0.002  -0.06189  -0.114494  0.002575  3.893062  -0.001
C  C45  1  0.48127981  0.83553580  0.82286876  1  -0.048395  0.001293  3.643988  0.004  -0.112303  -0.001432  3.90041  0.001  -0.108181  -0.000397  3.913007  0.002  -0.061901  -0.114385  -0.002572  3.891871  0.001
C  C46  1  0.82197155  0.13414940  0.36124964  1  -0.150657  0.006896  3.698077  0.007  -0.168395  0.003178  3.941555  0.003  -0.176783  0.003051  3.962141  0.003  -0.075779  -0.163134  0.003264  3.928138  0.003
C  C47  1  0.32199062  0.86583976  0.63872406  1  -0.150654  -0.006908  3.698396  -0.007  -0.168242  -0.003178  3.941921  -0.003  -0.176636  -0.003055  3.962498  -0.003  -0.075853  -0.162985  -0.003264  3.928526  -0.003
C  C48  1  0.90993255  0.22391060  0.28504930  1  0.243524  -0.002744  3.692791  -0.003  0.247251  0.001098  3.939154  0.001  0.257797  -0.000136  3.959386  -0.001  0.123808  0.240219  0.001903  3.925776  0.001
C  C49  1  0.40992398  0.77607934  0.71494034  1  0.243706  0.00276  3.692238  0.003  0.24716  -0.001099  3.938849  -0.001  0.257707  0.000142  3.959067  0.001  0.123866  0.24013  -0.001899  3.925471  -0.001
C  C50  1  0.99084736  0.78397962  0.83274570  1  0.174271  0.000291  3.805251  0.0  0.166147  0.000185  4.055351  0.0  0.172521  0.000178  4.077165  0.0  0.081617  0.161495  0.000173  4.040457  0.0
C  C51  1  0.49087492  0.21603449  0.16724921  1  0.174169  -0.00028  3.805793  0.0  0.16621  -0.000186  4.055704  0.0  0.172595  -0.000176  4.077512  0.0  0.081591  0.161558  -0.000173  4.040814  0.0
C  C52  1  0.19017416  0.42035989  0.96992503  1  0.635458  -0.001165  3.80264  -0.002  0.59063  0.002136  4.108134  0.002  0.626492  0.001692  4.10175  0.002  0.211225  0.566378  0.002345  4.110885  0.002
C  C53  1  0.69023005  0.57965989  0.03004472  1  0.635699  0.001169  3.801691  0.002  0.590715  -0.002135  4.107127  -0.002  0.6266  -0.001693  4.100729  -0.002  0.211333  0.566469  -0.002341  4.109882  -0.002
C  C54  1  0.86813919  0.70851105  0.65914714  1  -0.080743  0.000591  3.825808  0.0  -0.100282  0.000477  4.090607  0.0  -0.101888  0.0005  4.11469  0.0  -0.108193  -0.098768  0.000439  4.074255  0.0
C  C55  1  0.36809430  0.29149356  0.34084616  1  -0.080798  -0.000568  3.825616  0.0  -0.100345  -0.000478  4.090489  0.0  -0.101952  -0.000499  4.114562  0.0  -0.108095  -0.098832  -0.000439  4.074147  0.0
C  C56  1  0.88236552  0.43135717  0.40140754  1  0.132781  -0.007026  3.699658  -0.008  0.106629  -0.001615  3.946477  -0.003  0.115697  -0.002401  3.96675  -0.004  0.047453  0.10086  -0.000899  3.933497  -0.002
C  C57  1  0.38239432  0.56862966  0.59861298  1  0.132339  0.007037  3.699948  0.008  0.106222  0.001611  3.946777  0.003  0.115269  0.002403  3.967044  0.004  0.047123  0.100475  0.000898  3.933799  0.002
C  C58  1  0.94260683  0.66831187  0.76029394  1  -0.172875  4.1e-05  3.758897  0.0  -0.197665  0.000442  4.030285  0.0  -0.202102  0.000446  4.049556  0.0  -0.105721  -0.194685  7e-05  4.018677  0.0
C  C59  1  0.44260877  0.33168576  0.23970710  1  -0.172808  -5.9e-05  3.758976  0.0  -0.197595  -0.000441  4.030294  0.0  -0.202004  -0.000448  4.049567  0.0  -0.105747  -0.194619  -6.9e-05  4.0187  0.0
C  C60  1  0.79482059  0.34814234  0.48107229  1  -0.12848  0.008182  3.739062  0.008  -0.140211  0.003784  3.982878  0.004  -0.148812  0.003491  4.004745  0.004  -0.08795  -0.13482  0.003956  3.968185  0.004
C  C61  1  0.29486784  0.65182700  0.51893142  1  -0.128095  -0.00819  3.739018  -0.008  -0.139723  -0.003782  3.9827  -0.004  -0.148329  -0.003494  4.004569  -0.004  -0.087521  -0.1343  -0.003956  3.968043  -0.004
C  C62  1  0.88942773  0.97377201  0.70218658  1  -0.114718  -0.001025  3.778637  -0.001  -0.132002  -0.000576  4.026314  0.0  -0.131372  -0.000357  4.044951  0.0  -0.104278  -0.131749  -0.000698  4.013705  -0.001
C  C63  1  0.38939385  0.02622023  0.29779741  1  -0.114763  0.001047  3.777643  0.001  -0.132005  0.000575  4.025436  0.0  -0.131364  0.000359  4.044072  0.0  -0.104302  -0.131741  0.000699  4.012821  0.001
C  C64  1  0.84214002  0.85891307  0.63012296  1  -0.107344  -0.000635  3.826546  -0.001  -0.122489  -0.000404  4.084125  0.0  -0.126415  -0.000324  4.107204  0.0  -0.113621  -0.119819  -0.000287  4.067675  0.0
C  C65  1  0.34207522  0.14108164  0.36986968  1  -0.107601  0.000615  3.825895  0.001  -0.122867  0.000407  4.083507  0.0  -0.126794  0.000323  4.106588  0.0  -0.113735  -0.120191  0.000288  4.067051  0.0
C  C66  1  0.76256822  0.19756048  0.46003924  1  0.014896  -0.007602  3.719564  -0.007  -0.00294  -0.002958  3.966446  -0.003  0.002793  -0.003063  3.983982  -0.003  -0.060326  -0.006458  -0.002854  3.954413  -0.003
C  C67  1  0.26261191  0.80241229  0.53995227  1  0.014646  0.007609  3.720347  0.007  -0.003293  0.002955  3.967253  0.003  0.002461  0.003065  3.984796  0.003  -0.060414  -0.006861  0.002855  3.955199  0.003
N  N68  1  0.06654290  0.78034133  0.93663116  1  -0.341586  0.000232  3.446257  0.0  -0.281191  -4.9e-05  3.683474  0.0  -0.298078  -6.9e-05  3.696725  0.0  -0.410734  -0.269003  -0.000202  3.673153  0.0
N  N69  1  0.56656229  0.21965015  0.06336928  1  -0.341481  -0.000233  3.446882  0.0  -0.281002  4.9e-05  3.684126  0.0  -0.297916  6.9e-05  3.697401  0.0  -0.410683  -0.268825  0.000202  3.673817  0.0
N  N70  1  0.99491295  0.28604249  0.09635441  1  -0.368096  0.11215  3.279768  0.135  -0.327256  0.081258  3.555104  0.104  -0.358922  0.066365  3.571482  0.09  -0.485431  -0.309318  0.087642  3.546434  0.108
N  N71  1  0.49494874  0.71394492  0.90365286  1  -0.368183  -0.112188  3.278994  -0.135  -0.327555  -0.081268  3.554418  -0.104  -0.359241  -0.066384  3.570838  -0.09  -0.485414  -0.309597  -0.087652  3.545745  -0.108
N  N72  1  0.93842002  0.36999479  0.30559935  1  -0.337463  0.072667  3.344379  0.088  -0.287481  0.055012  3.63082  0.07  -0.319556  0.047269  3.653359  0.064  -0.351931  -0.269088  0.058592  3.618837  0.072
N  N73  1  0.43844945  0.62999735  0.69441663  1  -0.337468  -0.072694  3.344675  -0.088  -0.28728  -0.055022  3.631055  -0.07  -0.319307  -0.047291  3.653542  -0.064  -0.351977  -0.268888  -0.058607  3.619048  -0.072
Cl  Cl74  1  0.10405138  0.70183097  0.25965869  1  -0.55528  0.104683  0.853661  0.116  -0.540604  0.068197  1.109543  0.079  -0.565165  0.054839  1.083841  0.066  -0.339399  -0.526979  0.074156  1.12896  0.083
Cl  Cl75  1  0.60407230  0.29821605  0.74034741  1  -0.5552  -0.104661  0.85393  -0.116  -0.540541  -0.068186  1.109826  -0.079  -0.5651  -0.054838  1.084147  -0.066  -0.339328  -0.526903  -0.074147  1.129234  -0.083
O  O76  1  0.18500248  0.52431490  0.04614432  1  -0.618936  0.069066  2.108822  0.09  -0.575609  0.049758  2.388504  0.07  -0.61553  0.039978  2.378363  0.059  -0.337712  -0.548843  0.055281  2.395871  0.075
O  O77  1  0.68499888  0.47569055  0.95385777  1  -0.618892  -0.069045  2.108903  -0.09  -0.575598  -0.049748  2.388716  -0.07  -0.615495  -0.039977  2.378542  -0.059  -0.337705  -0.548827  -0.055275  2.396077  -0.075
O  O78  1  0.25468860  0.44163437  0.87669706  1  -0.571704  0.026834  2.00681  0.032  -0.544843  0.014492  2.257686  0.018  -0.575839  0.007858  2.248794  0.01  -0.301849  -0.522043  0.022332  2.261789  0.028
O  O79  1  0.75474677  0.55838305  0.12331119  1  -0.571966  -0.026842  2.00538  -0.032  -0.545166  -0.014487  2.2564  -0.018  -0.576181  -0.007859  2.247496  -0.01  -0.302029  -0.522361  -0.022331  2.260512  -0.028
