# generated using pymatgen
data_CdH6(C3N2)2
_symmetry_space_group_name_H-M   'P 1'
_cell_length_a   9.84006736
_cell_length_b   10.86250703
_cell_length_c   14.71950000
_cell_angle_alpha   90.00000000
_cell_angle_beta   90.00000000
_cell_angle_gamma   90.00000000
_symmetry_Int_Tables_number   1
_chemical_formula_structural   CdH6(C3N2)2
_chemical_formula_sum   'Cd8 H48 C48 N32'
_cell_volume   1573.33498494
_cell_formula_units_Z   8
loop_
 _symmetry_equiv_pos_site_id
 _symmetry_equiv_pos_as_xyz
  1  'x, y, z'
loop_
 _atom_site_type_symbol
 _atom_site_label
 _atom_site_symmetry_multiplicity
 _atom_site_fract_x
 _atom_site_fract_y
 _atom_site_fract_z
 _atom_site_occupancy
 _atom_site_hle17_bader_spin_density
 _atom_site_hle17_ddec_charge
 _atom_site_hle17_ddec_spin_density
 _atom_site_hle17_ddec_sum_bond_order
 _atom_site_hle17_magmom
 _atom_site_hse06_10hf_bader_spin_density
 _atom_site_hse06_10hf_ddec_charge
 _atom_site_hse06_10hf_ddec_spin_density
 _atom_site_hse06_10hf_ddec_sum_bond_order
 _atom_site_hse06_10hf_magmom
 _atom_site_hse06_bader_spin_density
 _atom_site_hse06_ddec_charge
 _atom_site_hse06_ddec_spin_density
 _atom_site_hse06_ddec_sum_bond_order
 _atom_site_hse06_magmom
 _atom_site_pbe_bader_charge
 _atom_site_pbe_bader_spin_density
 _atom_site_pbe_cm5_charge
 _atom_site_pbe_ddec_charge
 _atom_site_pbe_ddec_spin_density
 _atom_site_pbe_ddec_sum_bond_order
 _atom_site_pbe_magmom
Cd  Cd0  1  0.19833909  0.96695634  0.88996637  1  0  0.970635  0  1.851271  0  0  0.759275  0  2.284781  0  0  0.805724  0  2.24933  0  1.138382  0  0.795343  0.726475  0  2.30777  0
Cd  Cd1  1  0.80166118  0.53304269  0.38996705  1  0  0.970634  0  1.85121  0  0  0.759283  0  2.284704  0  0  0.805733  0  2.249253  0  1.13838  0  0.795347  0.726483  0  2.30769  0
Cd  Cd2  1  0.30166155  0.46695574  0.11003363  1  0  0.970655  0  1.851227  0  0  0.759296  0  2.284735  0  0  0.805745  0  2.249282  0  1.138384  0  0.795345  0.726493  0  2.307726  0
Cd  Cd3  1  0.69833973  0.03304118  0.61003295  1  0  0.97064  0  1.851216  0  0  0.759279  0  2.284722  0  0  0.805726  0  2.249276  0  1.138372  0  0.79535  0.72648  0  2.307705  0
Cd  Cd4  1  0.80166016  0.03304394  0.11003431  1  0  0.970629  0  1.851246  0  0  0.75928  0  2.284739  0  0  0.805732  0  2.249285  0  1.138356  0  0.795332  0.726477  0  2.307732  0
Cd  Cd5  1  0.19834011  0.46695850  0.61003295  1  0  0.970669  0  1.851174  0  0  0.759303  0  2.284688  0  0  0.805753  0  2.249239  0  1.138368  0  0.795356  0.726507  0  2.307671  0
Cd  Cd6  1  0.69833872  0.53304361  0.88996637  1  0  0.970636  0  1.851232  0  0  0.759277  0  2.28474  0  0  0.805728  0  2.249288  0  1.138351  0  0.795337  0.726475  0  2.307731  0
Cd  Cd7  1  0.30165850  0.96695818  0.38996841  1  0  0.970641  0  1.851203  0  0  0.75926  0  2.284744  0  0  0.805709  0  2.249295  0  1.138365  0  0.795344  0.726463  0  2.307727  0
H  H8  1  0.46742668  0.10352306  0.76936513  1  0  0.059683  0  0.96497  0  0  0.070949  0  1.032338  0  0  0.072368  0  1.030604  0  0.141595  0  0.116305  0.06981  0  1.033763  0
H  H9  1  0.53257257  0.39647569  0.26936581  1  0  0.05968  0  0.964943  0  0  0.070924  0  1.032343  0  0  0.072341  0  1.030609  0  0.141558  0  0.116286  0.069785  0  1.033768  0
H  H10  1  0.03257193  0.60352366  0.23063487  1  0  0.059668  0  0.964971  0  0  0.070934  0  1.032343  0  0  0.072352  0  1.030609  0  0.102827  0  0.116302  0.069795  0  1.033767  0
H  H11  1  0.96742630  0.89647629  0.73063419  1  0  0.0597  0  0.964904  0  0  0.070947  0  1.032298  0  0  0.072366  0  1.030563  0  0.141572  0  0.116305  0.069808  0  1.033724  0
H  H12  1  0.53257359  0.89647353  0.23063351  1  0  0.059662  0  0.964915  0  0  0.070921  0  1.032299  0  0  0.07234  0  1.030565  0  0.141534  0  0.116291  0.069782  0  1.033725  0
H  H13  1  0.46742769  0.60352550  0.73063487  1  0  0.059692  0  0.964918  0  0  0.070945  0  1.032304  0  0  0.072364  0  1.03057  0  0.141571  0  0.116302  0.069806  0  1.033728  0
H  H14  1  0.96742732  0.39647661  0.76936513  1  0  0.05967  0  0.964981  0  0  0.070935  0  1.032351  0  0  0.072354  0  1.030616  0  0.141588  0  0.1163  0.069796  0  1.033776  0
H  H15  1  0.03257295  0.10352582  0.26936513  1  0  0.059682  0  0.964925  0  0  0.07094  0  1.032309  0  0  0.072359  0  1.030574  0  0.141564  0  0.116304  0.069801  0  1.033733  0
H  H16  1  0.46566246  0.79656933  0.59443323  1  0  0.086277  0  0.989155  0  0  0.097695  0  1.050963  0  0  0.099503  0  1.050884  0  0.076432  0  0.104665  0.096449  0  1.051043  0
H  H17  1  0.53433984  0.70342877  0.09443323  1  0  0.086183  0  0.989164  0  0  0.097638  0  1.05095  0  0  0.099446  0  1.050871  0  0.076468  0  0.104641  0.096391  0  1.051032  0
H  H18  1  0.03433818  0.29656874  0.40556744  1  0  0.086235  0  0.98918  0  0  0.097654  0  1.050994  0  0  0.099461  0  1.050917  0  0.07643  0  0.104642  0.096407  0  1.051074  0
H  H19  1  0.96566107  0.20342910  0.90556677  1  0  0.086203  0  0.989143  0  0  0.09766  0  1.050922  0  0  0.099468  0  1.050843  0  0.076457  0  0.104648  0.096413  0  1.051005  0
H  H20  1  0.53433069  0.20342634  0.40556677  1  0  0.086204  0  0.989201  0  0  0.097699  0  1.05093  0  0  0.099492  0  1.050868  0  0.076391  0  0.104686  0.096452  0  1.051012  0
H  H21  1  0.46566145  0.29657150  0.90556677  1  0  0.086233  0  0.989138  0  0  0.097676  0  1.05093  0  0  0.099485  0  1.050851  0  0.076459  0  0.104657  0.09643  0  1.051011  0
H  H22  1  0.96566209  0.70343061  0.59443459  1  0  0.086255  0  0.989188  0  0  0.097675  0  1.050997  0  0  0.099483  0  1.050919  0  0.07638  0  0.104656  0.096429  0  1.051077  0
H  H23  1  0.03433920  0.79657118  0.09443459  1  0  0.086195  0  0.989134  0  0  0.097622  0  1.05095  0  0  0.09943  0  1.050871  0  0.076485  0  0.104626  0.096375  0  1.051032  0
H  H24  1  0.26055005  0.77010859  0.72264207  1  0  0.087602  0  0.969641  0  0  0.098666  0  1.032955  0  0  0.10087  0  1.032176  0  0.085613  0  0.106122  0.096997  0  1.033738  0
H  H25  1  0.73945124  0.72989044  0.22264343  1  0  0.087609  0  0.969586  0  0  0.098682  0  1.032893  0  0  0.100888  0  1.032112  0  0.085643  0  0.106142  0.097013  0  1.033676  0
H  H26  1  0.23945161  0.27010892  0.27735861  1  0  0.087639  0  0.969618  0  0  0.098705  0  1.032925  0  0  0.10091  0  1.032146  0  0.085612  0  0.106135  0.097037  0  1.033709  0
H  H27  1  0.76054866  0.22989076  0.77735725  1  0  0.087603  0  0.969587  0  0  0.098676  0  1.032896  0  0  0.100882  0  1.032116  0  0.085635  0  0.10613  0.097008  0  1.033679  0
H  H28  1  0.73944616  0.22989168  0.27735996  1  0  0.087635  0  0.969626  0  0  0.098712  0  1.03292  0  0  0.100918  0  1.03214  0  0.085678  0  0.106124  0.097044  0  1.033703  0
H  H29  1  0.26054903  0.27010984  0.77735725  1  0  0.087607  0  0.969598  0  0  0.098682  0  1.032901  0  0  0.100887  0  1.032121  0  0.085641  0  0.106138  0.097014  0  1.033685  0
H  H30  1  0.76054967  0.72989136  0.72264207  1  0  0.087596  0  0.969652  0  0  0.098658  0  1.032968  0  0  0.100863  0  1.032188  0  0.08561  0  0.106117  0.09699  0  1.033751  0
H  H31  1  0.23945161  0.77011043  0.22264343  1  0  0.087637  0  0.969596  0  0  0.098699  0  1.032908  0  0  0.100904  0  1.032128  0  0.085642  0  0.106135  0.09703  0  1.033692  0
H  H32  1  0.33161460  0.76220710  0.03879344  1  0  0.059153  0  0.969746  0  0  0.07159  0  1.036281  0  0  0.07299  0  1.034524  0  0.089892  0  0.117219  0.070315  0  1.038133  0
H  H33  1  0.66838668  0.73779285  0.53879276  1  0  0.059203  0  0.969728  0  0  0.07161  0  1.036286  0  0  0.073009  0  1.034529  0  0.089903  0  0.117219  0.070334  0  1.038139  0
H  H34  1  0.16838503  0.26220650  0.96120724  1  0  0.059216  0  0.96968  0  0  0.071619  0  1.03625  0  0  0.073019  0  1.034492  0  0.089908  0  0.117233  0.070344  0  1.038101  0
H  H35  1  0.83161423  0.23779041  0.46120656  1  0  0.05919  0  0.969731  0  0  0.071596  0  1.036291  0  0  0.072996  0  1.034535  0  0.08987  0  0.117219  0.07032  0  1.038144  0
H  H36  1  0.66838465  0.23779225  0.96120656  1  0  0.059198  0  0.969696  0  0  0.071602  0  1.036264  0  0  0.073001  0  1.034508  0  0.089887  0  0.117222  0.070326  0  1.038116  0
H  H37  1  0.33161460  0.26220835  0.46120792  1  0  0.059208  0  0.969696  0  0  0.071596  0  1.036291  0  0  0.072995  0  1.034534  0  0.089884  0  0.117223  0.070321  0  1.038143  0
H  H38  1  0.83161423  0.73779377  0.03879276  1  0  0.05919  0  0.969731  0  0  0.071596  0  1.036298  0  0  0.072995  0  1.034541  0  0.089899  0  0.11722  0.07032  0  1.03815  0
H  H39  1  0.16838604  0.76220894  0.53879344  1  0  0.059212  0  0.969708  0  0  0.071617  0  1.036264  0  0  0.073017  0  1.034507  0  0.089881  0  0.117224  0.070341  0  1.038117  0
H  H40  1  0.08274029  0.48201764  0.93149835  1  0  0.081362  0  0.983057  0  0  0.092279  0  1.047984  0  0  0.094069  0  1.047741  0  0.113244  0  0.104064  0.090751  0  1.048649  0
H  H41  1  0.91725896  0.01798204  0.43149631  1  0  0.081359  0  0.983001  0  0  0.092269  0  1.047927  0  0  0.094065  0  1.047686  0  0.113253  0  0.104039  0.090741  0  1.048592  0
H  H42  1  0.41726036  0.98201824  0.06850165  1  0  0.081351  0  0.983063  0  0  0.092265  0  1.047995  0  0  0.094055  0  1.047752  0  0.113245  0  0.104062  0.090737  0  1.048659  0
H  H43  1  0.58274296  0.51797987  0.56850369  1  0  0.081392  0  0.983019  0  0  0.092264  0  1.047992  0  0  0.094061  0  1.047752  0  0.113299  0  0.104029  0.090736  0  1.048656  0
H  H44  1  0.91725998  0.51798171  0.06850165  1  0  0.081373  0  0.983039  0  0  0.092286  0  1.047964  0  0  0.094079  0  1.04772  0  0.113227  0  0.10406  0.090758  0  1.048629  0
H  H45  1  0.08274232  0.98202100  0.56850301  1  0  0.081398  0  0.983007  0  0  0.092279  0  1.047964  0  0  0.094075  0  1.047723  0  0.113316  0  0.104059  0.090751  0  1.048628  0
H  H46  1  0.58273991  0.01798112  0.93149835  1  0  0.08134  0  0.983053  0  0  0.092254  0  1.04799  0  0  0.094048  0  1.047737  0  0.113259  0  0.104059  0.090726  0  1.048655  0
H  H47  1  0.41725934  0.48201948  0.43149631  1  0  0.081364  0  0.98303  0  0  0.092278  0  1.047943  0  0  0.094074  0  1.047702  0  0.113243  0  0.104043  0.09075  0  1.048608  0
H  H48  1  0.03177112  0.69953096  0.83962635  1  0  0.090765  0  0.992435  0  0  0.099046  0  1.059357  0  0  0.100739  0  1.059991  0  0.101064  0  0.104415  0.097756  0  1.059122  0
H  H49  1  0.96822914  0.80046807  0.33962295  1  0  0.090779  0  0.992368  0  0  0.099054  0  1.059302  0  0  0.100746  0  1.059939  0  0.101034  0  0.104437  0.097764  0  1.059066  0
H  H50  1  0.46822952  0.19953037  0.16037365  1  0  0.090799  0  0.992424  0  0  0.099066  0  1.059352  0  0  0.100759  0  1.059986  0  0.101047  0  0.104426  0.097777  0  1.059116  0
H  H51  1  0.53177177  0.30046747  0.66037705  1  0  0.090742  0  0.992369  0  0  0.099017  0  1.059316  0  0  0.100709  0  1.059954  0  0.10105  0  0.104427  0.097727  0  1.059082  0
H  H52  1  0.96823118  0.30046931  0.16037365  1  0  0.09079  0  0.992417  0  0  0.099062  0  1.059341  0  0  0.100755  0  1.059975  0  0.101044  0  0.104427  0.097773  0  1.059105  0
H  H53  1  0.03177214  0.19953313  0.66037705  1  0  0.090772  0  0.992368  0  0  0.099043  0  1.059314  0  0  0.100735  0  1.059951  0  0.10105  0  0.10443  0.097753  0  1.059079  0
H  H54  1  0.53177075  0.80046899  0.83962567  1  0  0.090763  0  0.992448  0  0  0.099023  0  1.059389  0  0  0.100716  0  1.060023  0  0.101037  0  0.104406  0.097733  0  1.059154  0
H  H55  1  0.46822749  0.69953280  0.33962363  1  0  0.090778  0  0.992396  0  0  0.099033  0  1.059358  0  0  0.100725  0  1.059994  0  0.101071  0  0.10442  0.097742  0  1.059124  0
C  C56  1  0.43941061  0.01574222  0.73940215  1  0  0.201687  0  3.783822  0  0  0.150619  0  4.041986  0  0  0.164091  0  4.058395  0  0.914223  0  0.10972  0.141877  0  4.030324  0
C  C57  1  0.56058966  0.48425561  0.23940351  1  0  0.201723  0  3.783707  0  0  0.15067  0  4.041874  0  0  0.164145  0  4.058277  0  0.914244  0  0.109742  0.141928  0  4.030211  0
C  C58  1  0.06058800  0.51574282  0.26059785  1  0  0.201735  0  3.783818  0  0  0.150664  0  4.041984  0  0  0.164136  0  4.058395  0  0.952962  0  0.109734  0.141922  0  4.030322  0
C  C59  1  0.93941024  0.98425621  0.76059717  1  0  0.201736  0  3.783669  0  0  0.150685  0  4.041835  0  0  0.164161  0  4.058236  0  0.914194  0  0.109732  0.141943  0  4.030174  0
C  C60  1  0.56058661  0.98425437  0.26059785  1  0  0.201815  0  3.783618  0  0  0.150757  0  4.041768  0  0  0.164226  0  4.05818  0  0.914165  0  0.109783  0.142016  0  4.030106  0
C  C61  1  0.43941061  0.51574466  0.76059717  1  0  0.201761  0  3.783632  0  0  0.15071  0  4.04179  0  0  0.164183  0  4.058194  0  0.914172  0  0.109752  0.141969  0  4.030127  0
C  C62  1  0.93941024  0.48425745  0.73940215  1  0  0.201709  0  3.783773  0  0  0.150645  0  4.041935  0  0  0.164117  0  4.058346  0  0.914227  0  0.10974  0.141904  0  4.030272  0
C  C63  1  0.06059003  0.01574498  0.23940283  1  0  0.201733  0  3.783641  0  0  0.150673  0  4.041809  0  0  0.164146  0  4.058215  0  0.914167  0  0.109726  0.141932  0  4.030146  0
C  C64  1  0.43753664  0.85578218  0.65068243  1  0  -0.044023  0  3.822597  0  0  -0.075219  0  4.082613  0  0  -0.073894  0  4.104646  0  0.325179  0  -0.031047  -0.076022  0  4.067529  0
C  C65  1  0.56246566  0.64421500  0.15068311  1  0  -0.04386  0  3.822593  0  0  -0.075088  0  4.082599  0  0  -0.073762  0  4.104633  0  0.325073  0  -0.031001  -0.07589  0  4.067515  0
C  C66  1  0.06246400  0.35578251  0.34931757  1  0  -0.043946  0  3.822604  0  0  -0.07514  0  4.082613  0  0  -0.073815  0  4.104648  0  0.325211  0  -0.031028  -0.075943  0  4.06753  0
C  C67  1  0.93753423  0.14421625  0.84931689  1  0  -0.043891  0  3.822569  0  0  -0.075118  0  4.082579  0  0  -0.073793  0  4.104614  0  0.325194  0  -0.03102  -0.075921  0  4.067495  0
C  C68  1  0.56246058  0.14421533  0.34931757  1  0  -0.043979  0  3.822519  0  0  -0.075246  0  4.082542  0  0  -0.073907  0  4.104585  0  0.325063  0  -0.031075  -0.076048  0  4.067459  0
C  C69  1  0.43753461  0.35578435  0.84931757  1  0  -0.043924  0  3.82256  0  0  -0.075142  0  4.082576  0  0  -0.073818  0  4.104611  0  0.325194  0  -0.031027  -0.075945  0  4.067492  0
C  C70  1  0.93753627  0.64421869  0.65068311  1  0  -0.044024  0  3.822645  0  0  -0.075224  0  4.082655  0  0  -0.073898  0  4.104688  0  0.325237  0  -0.031057  -0.076026  0  4.067572  0
C  C71  1  0.06246604  0.85578495  0.15068379  1  0  -0.043871  0  3.822611  0  0  -0.075069  0  4.082599  0  0  -0.073743  0  4.104633  0  0.325086  0  -0.030995  -0.075872  0  4.067515  0
C  C72  1  0.33408613  0.84357046  0.71339651  1  0  -0.040166  0  3.817196  0  0  -0.070833  0  4.077278  0  0  -0.069601  0  4.0991  0  0.348877  0  -0.029397  -0.071831  0  4.062829  0
C  C73  1  0.66591312  0.65642673  0.21339584  1  0  -0.040129  0  3.81716  0  0  -0.0708  0  4.077252  0  0  -0.06957  0  4.099074  0  0.349019  0  -0.029364  -0.071798  0  4.062801  0
C  C74  1  0.16591553  0.34357170  0.28660349  1  0  -0.040255  0  3.817251  0  0  -0.070927  0  4.077343  0  0  -0.069695  0  4.099164  0  0.348865  0  -0.029421  -0.071923  0  4.062893  0
C  C75  1  0.83408575  0.15642706  0.78660416  1  0  -0.040162  0  3.81717  0  0  -0.070836  0  4.077274  0  0  -0.069605  0  4.099097  0  0.348876  0  -0.029387  -0.071834  0  4.062825  0
C  C76  1  0.66591414  0.15642798  0.28660145  1  0  -0.04023  0  3.817155  0  0  -0.070911  0  4.077258  0  0  -0.069678  0  4.099076  0  0.349008  0  -0.02941  -0.071909  0  4.062809  0
C  C77  1  0.33408613  0.34357262  0.78660416  1  0  -0.040165  0  3.817183  0  0  -0.070838  0  4.077279  0  0  -0.069606  0  4.099101  0  0.348878  0  -0.029399  -0.071836  0  4.06283  0
C  C78  1  0.83408575  0.65642949  0.71339651  1  0  -0.040161  0  3.817296  0  0  -0.070826  0  4.077378  0  0  -0.069592  0  4.0992  0  0.348863  0  -0.029381  -0.071823  0  4.062928  0
C  C79  1  0.16591451  0.84357322  0.21339651  1  0  -0.040204  0  3.817236  0  0  -0.070866  0  4.07732  0  0  -0.069634  0  4.099141  0  0.348999  0  -0.029385  -0.071864  0  4.062871  0
C  C80  1  0.25762933  0.71497123  0.99672000  1  0  0.189376  0  3.808422  0  0  0.136835  0  4.067637  0  0  0.149965  0  4.0851  0  0.980509  0  0.106517  0.128022  0  4.055768  0
C  C81  1  0.74237093  0.78502780  0.49671932  1  0  0.189301  0  3.808459  0  0  0.136792  0  4.06766  0  0  0.149924  0  4.085121  0  0.980417  0  0.106481  0.127978  0  4.055794  0
C  C82  1  0.24237131  0.21497155  0.00328000  1  0  0.189325  0  3.8084  0  0  0.136811  0  4.067613  0  0  0.14994  0  4.085076  0  0.980418  0  0.106473  0.127998  0  4.055746  0
C  C83  1  0.75763099  0.28502628  0.50328068  1  0  0.189312  0  3.808417  0  0  0.136797  0  4.067642  0  0  0.149929  0  4.085101  0  0.980398  0  0.106479  0.127984  0  4.055775  0
C  C84  1  0.74237093  0.28502812  0.00328000  1  0  0.18934  0  3.8084  0  0  0.136826  0  4.067615  0  0  0.149956  0  4.085079  0  0.980516  0  0.106494  0.128013  0  4.055748  0
C  C85  1  0.25763137  0.21497339  0.50328136  1  0  0.189266  0  3.80857  0  0  0.136758  0  4.067791  0  0  0.149891  0  4.085253  0  0.980377  0  0.106453  0.127945  0  4.055927  0
C  C86  1  0.75762896  0.78502780  0.99672000  1  0  0.18934  0  3.808451  0  0  0.136826  0  4.067663  0  0  0.149954  0  4.085127  0  0.980406  0  0.106496  0.128012  0  4.055796  0
C  C87  1  0.24237029  0.71497307  0.49671932  1  0  0.189296  0  3.808435  0  0  0.136793  0  4.067639  0  0  0.149923  0  4.0851  0  0.980407  0  0.106472  0.127979  0  4.055773  0
C  C88  1  0.12737311  0.57236235  0.94039675  1  0  -0.025948  0  3.809232  0  0  -0.058219  0  4.067739  0  0  -0.056964  0  4.090641  0  0.318316  0  -0.027173  -0.058875  0  4.052524  0
C  C89  1  0.87262817  0.92763300  0.44039743  1  0  -0.025937  0  3.809306  0  0  -0.058197  0  4.06781  0  0  -0.056951  0  4.09072  0  0.318325  0  -0.027126  -0.058855  0  4.052594  0
C  C90  1  0.37262651  0.07236175  0.05960325  1  0  -0.025904  0  3.809212  0  0  -0.058174  0  4.067716  0  0  -0.05692  0  4.090619  0  0.318317  0  -0.027169  -0.05883  0  4.052499  0
C  C91  1  0.62737375  0.42763425  0.55960257  1  0  -0.026063  0  3.80934  0  0  -0.0583  0  4.067834  0  0  -0.057059  0  4.090748  0  0.318452  0  -0.02716  -0.058959  0  4.05262  0
C  C92  1  0.87262817  0.42763701  0.05960325  1  0  -0.025967  0  3.80928  0  0  -0.058235  0  4.067782  0  0  -0.056984  0  4.090688  0  0.318287  0  -0.027166  -0.058893  0  4.052568  0
C  C93  1  0.12737413  0.07236727  0.55960189  1  0  -0.025963  0  3.809331  0  0  -0.058197  0  4.067823  0  0  -0.056952  0  4.090734  0  0.318463  0  -0.027148  -0.058855  0  4.052608  0
C  C94  1  0.62737375  0.92763760  0.94039743  1  0  -0.025915  0  3.809185  0  0  -0.058186  0  4.067687  0  0  -0.05693  0  4.090591  0  0.318293  0  -0.027149  -0.058844  0  4.052472  0
C  C95  1  0.37262855  0.57236603  0.44039675  1  0  -0.025905  0  3.809188  0  0  -0.05816  0  4.067678  0  0  -0.056915  0  4.090588  0  0.318358  0  -0.027092  -0.058819  0  4.052464  0
C  C96  1  0.10231841  0.68065687  0.89456571  1  0  -0.030897  0  3.788084  0  0  -0.061927  0  4.046536  0  0  -0.060578  0  4.068779  0  0.340085  0  -0.028273  -0.062959  0  4.031342  0
C  C97  1  0.89768186  0.81934492  0.39456571  1  0  -0.030825  0  3.788028  0  0  -0.061858  0  4.046497  0  0  -0.06051  0  4.068741  0  0.340059  0  -0.02824  -0.062891  0  4.031305  0
C  C98  1  0.39768224  0.18065627  0.10543497  1  0  -0.030895  0  3.787967  0  0  -0.061913  0  4.046426  0  0  -0.060566  0  4.068667  0  0.340081  0  -0.028248  -0.062946  0  4.031231  0
C  C99  1  0.60231905  0.31934249  0.60543361  1  0  -0.030741  0  3.788047  0  0  -0.061772  0  4.046502  0  0  -0.060424  0  4.068748  0  0.339983  0  -0.028233  -0.062806  0  4.031308  0
C  C100  1  0.89768288  0.31934433  0.10543429  1  0  -0.030899  0  3.788046  0  0  -0.061923  0  4.046515  0  0  -0.060576  0  4.068758  0  0.340073  0  -0.028262  -0.062955  0  4.03132  0
C  C101  1  0.10231841  0.18065719  0.60543361  1  0  -0.03084  0  3.788097  0  0  -0.061866  0  4.046551  0  0  -0.060518  0  4.068795  0  0.339972  0  -0.028244  -0.062899  0  4.031357  0
C  C102  1  0.60231702  0.81934308  0.89456503  1  0  -0.030826  0  3.787911  0  0  -0.061831  0  4.046362  0  0  -0.060484  0  4.068605  0  0.340084  0  -0.028223  -0.062864  0  4.031167  0
C  C103  1  0.39768020  0.68065779  0.39456367  1  0  -0.030901  0  3.788141  0  0  -0.061919  0  4.04661  0  0  -0.06057  0  4.068853  0  0.340019  0  -0.02828  -0.062952  0  4.031416  0
N  N104  1  0.33604546  0.94561228  0.76937056  1  0  -0.42279  0  3.310354  0  0  -0.331971  0  3.588695  0  0  -0.354162  0  3.606906  0  -1.236018  0  -0.384508  -0.316623  0  3.575279  0
N  N105  1  0.66395379  0.55438675  0.26937124  1  0  -0.422801  0  3.310381  0  0  -0.331981  0  3.588715  0  0  -0.354172  0  3.606925  0  -1.236048  0  -0.384508  -0.316633  0  3.575298  0
N  N106  1  0.16395315  0.44561352  0.23062944  1  0  -0.422772  0  3.310387  0  0  -0.331948  0  3.588728  0  0  -0.354139  0  3.606938  0  -1.235983  0  -0.384475  -0.316601  0  3.575312  0
N  N107  1  0.83604611  0.05438616  0.73062944  1  0  -0.422804  0  3.310404  0  0  -0.331988  0  3.588748  0  0  -0.354179  0  3.606957  0  -1.236043  0  -0.384495  -0.31664  0  3.575332  0
N  N108  1  0.66395176  0.05438431  0.23062944  1  0  -0.422812  0  3.310375  0  0  -0.331993  0  3.588711  0  0  -0.354184  0  3.606922  0  -1.235942  0  -0.384478  -0.316645  0  3.575294  0
N  N109  1  0.33604648  0.44561352  0.73062944  1  0  -0.422812  0  3.3104  0  0  -0.331996  0  3.588743  0  0  -0.354187  0  3.606951  0  -1.235991  0  -0.384495  -0.316649  0  3.575328  0
N  N110  1  0.83604611  0.55438859  0.76937056  1  0  -0.422747  0  3.310364  0  0  -0.331929  0  3.588702  0  0  -0.354122  0  3.606915  0  -1.235988  0  -0.384492  -0.316581  0  3.575284  0
N  N111  1  0.16395416  0.94561412  0.26937056  1  0  -0.422783  0  3.310428  0  0  -0.331966  0  3.588771  0  0  -0.354158  0  3.60698  0  -1.236042  0  -0.384486  -0.316619  0  3.575355  0
N  N112  1  0.50399452  0.96532043  0.66769116  1  0  -0.420847  0  3.31276  0  0  -0.327769  0  3.592018  0  0  -0.349721  0  3.60871  0  -1.232498  0  -0.388263  -0.312203  0  3.579284  0
N  N113  1  0.49600575  0.53467675  0.16769116  1  0  -0.420977  0  3.312684  0  0  -0.327902  0  3.59196  0  0  -0.349855  0  3.608652  0  -1.232573  0  -0.388327  -0.312337  0  3.579227  0
N  N114  1  0.99600436  0.46532076  0.33230884  1  0  -0.420892  0  3.312762  0  0  -0.32782  0  3.592033  0  0  -0.349772  0  3.608724  0  -1.232535  0  -0.388294  -0.312255  0  3.579299  0
N  N115  1  0.00399388  0.03467708  0.83230884  1  0  -0.420972  0  3.31267  0  0  -0.327898  0  3.591947  0  0  -0.34985  0  3.608639  0  -1.232507  0  -0.388314  -0.312332  0  3.579213  0
N  N116  1  0.49600169  0.03467616  0.33230816  1  0  -0.420878  0  3.312635  0  0  -0.327798  0  3.591915  0  0  -0.349749  0  3.608602  0  -1.232458  0  -0.388304  -0.312233  0  3.57918  0
N  N117  1  0.50399452  0.46532260  0.83230884  1  0  -0.420984  0  3.312656  0  0  -0.327911  0  3.591933  0  0  -0.349863  0  3.608625  0  -1.232513  0  -0.388332  -0.312345  0  3.579198  0
N  N118  1  0.00399489  0.53468044  0.66769116  1  0  -0.420875  0  3.312663  0  0  -0.327798  0  3.591926  0  0  -0.349751  0  3.608616  0  -1.232502  0  -0.388277  -0.312233  0  3.579192  0
N  N119  1  0.99600538  0.96532320  0.16769116  1  0  -0.420967  0  3.312697  0  0  -0.327896  0  3.591969  0  0  -0.34985  0  3.608662  0  -1.232512  0  -0.388317  -0.312331  0  3.579236  0
N  N120  1  0.18537576  0.77069870  0.93098950  1  0  -0.419411  0  3.319449  0  0  -0.325897  0  3.596257  0  0  -0.347882  0  3.613347  0  -1.242066  0  -0.386899  -0.310285  0  3.583609  0
N  N121  1  0.81462552  0.72930125  0.43098882  1  0  -0.419491  0  3.319325  0  0  -0.325981  0  3.596136  0  0  -0.347964  0  3.613222  0  -1.241978  0  -0.386928  -0.31037  0  3.58349  0
N  N122  1  0.31462386  0.27069810  0.06901118  1  0  -0.419495  0  3.319379  0  0  -0.325982  0  3.596191  0  0  -0.347966  0  3.613277  0  -1.24197  0  -0.386939  -0.31037  0  3.583544  0
N  N123  1  0.68537539  0.22929974  0.56901118  1  0  -0.419499  0  3.319485  0  0  -0.325991  0  3.596304  0  0  -0.347974  0  3.613389  0  -1.242038  0  -0.386919  -0.310379  0  3.583657  0
N  N124  1  0.81462552  0.22930158  0.06900982  1  0  -0.419438  0  3.319379  0  0  -0.325925  0  3.596183  0  0  -0.347909  0  3.613271  0  -1.242049  0  -0.386916  -0.310311  0  3.583535  0
N  N125  1  0.18537780  0.27069902  0.56901186  1  0  -0.4195  0  3.319559  0  0  -0.325992  0  3.596366  0  0  -0.347975  0  3.613452  0  -1.242032  0  -0.386957  -0.31038  0  3.583722  0
N  N126  1  0.68537539  0.72930125  0.93098950  1  0  -0.419489  0  3.319401  0  0  -0.325977  0  3.596204  0  0  -0.347962  0  3.613294  0  -1.241974  0  -0.386935  -0.310364  0  3.583557  0
N  N127  1  0.31462488  0.77069870  0.43098882  1  0  -0.419456  0  3.319517  0  0  -0.325941  0  3.596311  0  0  -0.347923  0  3.613396  0  -1.242013  0  -0.38691  -0.310328  0  3.583664  0
N  N128  1  0.22564683  0.59487004  0.00550155  1  0  -0.42246  0  3.312135  0  0  -0.325117  0  3.587834  0  0  -0.347514  0  3.605077  0  -1.262785  0  -0.38881  -0.309648  0  3.575756  0
N  N129  1  0.77435242  0.90513083  0.50550019  1  0  -0.422449  0  3.312184  0  0  -0.325097  0  3.587852  0  0  -0.347495  0  3.605099  0  -1.262811  0  -0.388831  -0.309629  0  3.575776  0
N  N130  1  0.27435178  0.09486944  0.99449845  1  0  -0.422461  0  3.312126  0  0  -0.325115  0  3.587809  0  0  -0.347513  0  3.605053  0  -1.262795  0  -0.388793  -0.309647  0  3.575731  0
N  N131  1  0.72564950  0.40512839  0.49449913  1  0  -0.422388  0  3.312136  0  0  -0.325035  0  3.58779  0  0  -0.34743  0  3.605038  0  -1.262763  0  -0.388792  -0.309566  0  3.575713  0
N  N132  1  0.77435344  0.40513023  0.99449913  1  0  -0.42244  0  3.312139  0  0  -0.325093  0  3.587817  0  0  -0.34749  0  3.605063  0  -1.26277  0  -0.388786  -0.309624  0  3.57574  0
N  N133  1  0.22564886  0.09487221  0.49449845  1  0  -0.422425  0  3.312214  0  0  -0.325071  0  3.58787  0  0  -0.347467  0  3.605116  0  -1.262795  0  -0.388793  -0.309602  0  3.575795  0
N  N134  1  0.72564747  0.90512991  0.00550155  1  0  -0.422453  0  3.312127  0  0  -0.325111  0  3.587811  0  0  -0.347508  0  3.605056  0  -1.262788  0  -0.388808  -0.309642  0  3.575734  0
N  N135  1  0.27435280  0.59487096  0.50550019  1  0  -0.42246  0  3.312079  0  0  -0.32511  0  3.587753  0  0  -0.347507  0  3.604999  0  -1.262761  0  -0.388825  -0.309642  0  3.575677  0
