# generated using pymatgen
data_Al3H21C45IO14
_symmetry_space_group_name_H-M   'P 1'
_cell_length_a   12.49217878
_cell_length_b   12.53377428
_cell_length_c   30.54191267
_cell_angle_alpha   80.53704678
_cell_angle_beta   89.24988930
_cell_angle_gamma   59.99842789
_symmetry_Int_Tables_number   1
_chemical_formula_structural   Al3H21C45IO14
_chemical_formula_sum   'Al6 H42 C90 I2 O28'
_cell_volume   4071.58351793
_cell_formula_units_Z   2
loop_
 _symmetry_equiv_pos_site_id
 _symmetry_equiv_pos_as_xyz
  1  'x, y, z'
loop_
 _atom_site_type_symbol
 _atom_site_label
 _atom_site_symmetry_multiplicity
 _atom_site_fract_x
 _atom_site_fract_y
 _atom_site_fract_z
 _atom_site_occupancy
 _atom_site_pbe_bader_charge
 _atom_site_pbe_bader_spin_density
 _atom_site_pbe_cm5_charge
 _atom_site_pbe_ddec_charge
 _atom_site_pbe_ddec_spin_density
 _atom_site_pbe_ddec_sum_bond_order
 _atom_site_pbe_magmom
Al  Al0  1  0.59127644  0.81443404  0.51316703  1  2.493786  0  0.394154  1.684127  0  2.56005  0
Al  Al1  1  0.33344508  0.07560647  0.49436608  1  2.481365  0  0.502741  1.667613  0  2.499923  0
Al  Al2  1  0.56911175  0.08461242  0.49434497  1  2.487087  0  0.505953  1.663698  0  2.504901  0
Al  Al3  1  0.08316027  0.84479811  0.97862930  1  2.493124  0  0.393459  1.685665  0  2.562269  0
Al  Al4  1  0.08840331  0.58320746  0.99549844  1  2.48122  0  0.504852  1.661242  0  2.510878  0
Al  Al5  1  0.33249094  0.57539515  0.99494231  1  2.4794  0  0.50793  1.66476  0  2.499615  0
H  H6  1  0.48907991  0.34334842  0.89906876  1  0.112919  0  0.119128  0.127342  0  0.971054  0
H  H7  1  0.21633179  0.05110201  0.77079890  1  0.0759  0  0.107494  0.10122  0  0.978845  0
H  H8  1  0.12447110  0.94338608  0.71772248  1  0.104882  0  0.107254  0.108494  0  0.982952  0
H  H9  1  0.51720128  0.28347957  0.82409275  1  0.08624  0  0.109753  0.116188  0  0.980122  0
H  H10  1  0.46039482  0.41489584  0.21572464  1  0.085856  0  0.10062  0.089454  0  1.006212  0
H  H11  1  0.25850106  0.53019048  0.26803160  1  0.076895  0  0.108754  0.100744  0  0.980443  0
H  H12  1  0.54488350  0.18182388  0.27451423  1  0.080088  0  0.100539  0.090994  0  1.011917  0
H  H13  1  0.40124856  0.12754223  0.22121812  1  0.083469  0  0.108734  0.100445  0  0.980487  0
H  H14  1  0.19909727  0.24267868  0.27355046  1  0.056499  0  0.101764  0.090362  0  0.995707  0
H  H15  1  0.11447959  0.47597540  0.21478931  1  0.069368  0  0.101077  0.091237  0  1.007729  0
H  H16  1  0.91147608  0.95727211  0.08280865  1  0.124998  0  0.121763  0.131171  0  0.975694  0
H  H17  1  0.01803260  0.78471701  0.70651523  1  0.072382  0  0.095936  0.087494  0  1.012395  0
H  H18  1  0.86460656  0.98902378  0.16133684  1  0.071876  0  0.106629  0.108112  0  0.988495  0
H  H19  1  0.77845601  0.04336233  0.29917821  1  0.067469  0  0.103337  0.102728  0  0.998118  0
H  H20  1  0.54212845  0.22457481  0.68106843  1  0.077125  0  0.105482  0.107134  0  1.013056  0
H  H21  1  0.72902397  0.07043811  0.37782791  1  0.105409  0  0.112802  0.117613  0  0.989297  0
H  H22  1  0.76865846  0.70504906  0.40720882  1  0.136988  0  0.120255  0.128705  0  0.978744  0
H  H23  1  0.87238665  0.63650936  0.19054182  1  0.072762  0  0.103742  0.103424  0  0.996625  0
H  H24  1  0.92103104  0.60563013  0.11212485  1  0.115005  0  0.112505  0.117763  0  0.988878  0
H  H25  1  0.81687758  0.67672850  0.32852573  1  0.077582  0  0.106539  0.108595  0  0.988494  0
H  H26  1  0.47080578  0.57646958  0.11406956  1  0.118826  0  0.111866  0.116541  0  0.991451  0
H  H27  1  0.49113190  0.59965352  0.19301994  1  0.055548  0  0.101851  0.100228  0  1.004028  0
H  H28  1  0.67683239  0.06083348  0.72047935  1  0.086981  0  0.096462  0.083022  0  1.030263  0
H  H29  1  0.52092883  0.65562385  0.33235003  1  0.082982  0  0.10648  0.108766  0  0.989566  0
H  H30  1  0.53366934  0.69251684  0.40989744  1  0.11236  0  0.120177  0.128594  0  0.977215  0
H  H31  1  0.20022548  0.05063019  0.37804262  1  0.09344  0  0.11208  0.116873  0  0.990855  0
H  H32  1  0.54790488  0.19389944  0.60256968  1  0.125801  0  0.116848  0.123883  0  0.995323  0
H  H33  1  0.17437185  0.97369058  0.16444500  1  0.087613  0  0.106221  0.108134  0  0.989211  0
H  H34  1  0.15565319  0.94881026  0.08559534  1  0.13117  0  0.11994  0.128049  0  0.978955  0
H  H35  1  0.18569944  0.01552723  0.30043459  1  0.074469  0  0.102681  0.102159  0  0.99887  0
H  H36  1  0.13182648  0.38768891  0.81118205  1  0.062645  0  0.105413  0.108597  0  0.992499  0
H  H37  1  0.10608586  0.44393094  0.88685844  1  0.118974  0  0.116357  0.123751  0  0.98449  0
H  H38  1  0.15130202  0.35060228  0.67399123  1  0.072748  0  0.102985  0.115754  0  1.001805  0
H  H39  1  0.64033840  0.89223712  0.78339603  1  0.065842  0  0.102366  0.092094  0  0.996402  0
H  H40  1  0.91617203  0.96461721  0.76348725  1  0.061738  0  0.100044  0.09161  0  0.993564  0
H  H41  1  0.74293333  0.71191397  0.72638696  1  0.053792  0  0.102325  0.092681  0  0.989374  0
H  H42  1  0.98209860  0.61602292  0.76972042  1  0.045472  0  0.094116  0.085363  0  1.012052  0
H  H43  1  0.55695450  0.75126748  0.77751493  1  0.033985  0  0.104041  0.094619  0  1.001763  0
H  H44  1  0.46496742  0.64428348  0.72431752  1  0.094207  0  0.109535  0.110519  0  0.974224  0
H  H45  1  0.42149008  0.98524642  0.71810468  1  0.074192  0  0.104431  0.09965  0  0.990272  0
H  H46  1  0.68910679  0.61311211  0.55553066  1  0.56999  0  0.288575  0.377583  0  0.932411  0
H  H47  1  0.00589388  0.04902000  0.93985927  1  0.565628  0  0.28978  0.379734  0  0.928389  0
C  C48  1  0.37324076  0.90006231  0.56953633  1  1.685423  0  0.277486  0.714965  0  4.161912  0
C  C49  1  0.33760099  0.30929173  0.76812150  1  -0.139326  0  -0.042873  -0.107703  0  4.114885  0
C  C50  1  0.34235105  0.29767100  0.72904304  1  -0.212938  0  -0.042406  -0.104852  0  4.101197  0
C  C51  1  0.37451521  0.21738007  0.54884081  1  1.553359  0  0.274504  0.654082  0  4.073053  0
C  C52  1  0.29651776  0.39533226  0.89773629  1  0.013136  0  -0.011919  -0.048434  0  3.969875  0
C  C53  1  0.93465044  0.80861443  0.72417633  1  -0.007069  0  -0.075055  -0.085777  0  3.659111  0
C  C54  1  0.87724745  0.90914072  0.75470386  1  -0.031257  0  -0.074393  -0.086552  0  3.650685  0
C  C55  1  0.90566499  0.77953613  0.87653829  1  0.187756  0  -0.049094  -0.211789  0  3.986877  0
C  C56  1  0.75716063  0.89738564  0.61318316  1  0.213351  0  -0.047318  -0.212934  0  3.984719  0
C  C57  1  0.91358651  0.71491894  0.75834337  1  -0.008439  0  -0.074367  -0.079642  0  3.641446  0
C  C58  1  0.85677800  0.81495248  0.79016149  1  0.123228  0  0.005054  0.116706  0  3.808878  0
C  C59  1  0.34691188  0.28516006  0.68367231  1  0.048902  0  0.005241  0.15494  0  4.112222  0
C  C60  1  0.78145383  0.76776526  0.73519284  1  -0.012451  0  -0.070939  -0.078611  0  3.629439  0
C  C61  1  0.80166300  0.86221194  0.69980596  1  0.099195  0  0.007078  0.122643  0  3.796269  0
C  C62  1  0.72391537  0.86832899  0.76575687  1  -0.021502  0  -0.069248  -0.076205  0  3.629873  0
C  C63  1  0.71156178  0.91370214  0.56828508  1  1.645943  0  0.275257  0.713139  0  4.167603  0
C  C64  1  0.74517911  0.96198489  0.73164010  1  -0.05463  0  -0.071498  -0.072057  0  3.628681  0
C  C65  1  0.88290122  0.79326943  0.83665437  1  -0.467981  0  -0.02722  -0.035817  0  4.092098  0
C  C66  1  0.77713750  0.88358790  0.65327257  1  -0.476831  0  -0.02281  -0.027524  0  4.073939  0
C  C67  1  0.41069691  0.73445893  0.73501280  1  -0.025756  0  -0.070135  -0.101405  0  3.632098  0
C  C68  1  0.46104443  0.79451173  0.76379465  1  0.027481  0  -0.06846  -0.075051  0  3.636597  0
C  C69  1  0.34049131  0.78454169  0.88001019  1  0.278595  0  -0.040762  -0.195984  0  3.965345  0
C  C70  1  0.45848105  0.24420705  0.66256717  1  0.019657  0  -0.084996  -0.137107  0  3.958943  0
C  C71  1  0.34260772  0.88663371  0.61485793  1  0.160708  0  -0.042242  -0.198447  0  3.969032  0
C  C72  1  0.29598322  0.77278773  0.76299100  1  -0.142813  0  -0.030463  0.035885  0  3.57222  0
C  C73  1  0.34734200  0.83208433  0.79341635  1  0.096256  0  0.005922  0.101991  0  3.807743  0
C  C74  1  0.22038421  0.90180495  0.73116467  1  -0.044281  0  -0.070109  -0.103545  0  3.632852  0
C  C75  1  0.38352940  0.89711036  0.44308327  1  1.562708  0  0.271562  0.632566  0  4.099821  0
C  C76  1  0.33486553  0.86384999  0.70180659  1  0.105961  0  0.010262  0.130056  0  3.794391  0
C  C77  1  0.27155483  0.96109836  0.76005404  1  -0.033224  0  -0.065871  -0.067629  0  3.622717  0
C  C78  1  0.38604001  0.92378483  0.73176156  1  -0.011471  0  -0.063598  -0.068457  0  3.602045  0
C  C79  1  0.34809242  0.80954277  0.84022875  1  -0.492551  0  -0.029245  -0.035926  0  4.092087  0
C  C80  1  0.33445980  0.87849272  0.65493280  1  -0.442288  0  -0.023773  -0.034179  0  4.069722  0
C  C81  1  0.46117753  0.22903081  0.61859791  1  -0.028118  0  -0.070646  -0.066416  0  3.961354  0
C  C82  1  0.29008702  0.44092911  0.25716693  1  -0.013344  0  -0.061433  -0.066095  0  3.606554  0
C  C83  1  0.40277459  0.37617576  0.22895648  1  -0.038586  0  -0.068449  -0.075873  0  3.628105  0
C  C84  1  0.30583798  0.38019232  0.11106734  1  0.212583  0  -0.048168  -0.221752  0  3.9704  0
C  C85  1  0.35325921  0.27751555  0.37816161  1  0.233444  0  -0.048312  -0.222693  0  3.974555  0
C  C86  1  0.20998662  0.41006055  0.22849877  1  -0.017021  0  -0.066234  -0.070018  0  3.613912  0
C  C87  1  0.37704747  0.22966946  0.42509667  1  1.660317  0  0.283693  0.725152  0  4.152425  0
C  C88  1  0.32248334  0.34612815  0.19876245  1  0.153973  0  0.009625  0.111725  0  3.786778  0
C  C89  1  0.25668029  0.28149712  0.26031880  1  -0.001576  0  -0.067827  -0.076153  0  3.630109  0
C  C90  1  0.33682916  0.31166003  0.29050330  1  0.130141  0  0.008875  0.111595  0  3.788299  0
C  C91  1  0.36938063  0.21680274  0.23211624  1  -0.025879  0  -0.061381  -0.066421  0  3.61103  0
C  C92  1  0.42774367  0.31684986  0.83811718  1  -0.01878  0  -0.081253  -0.128855  0  3.949644  0
C  C93  1  0.44940321  0.24771161  0.26078455  1  -0.016815  0  -0.066416  -0.070207  0  3.614137  0
C  C94  1  0.31421914  0.36321481  0.15172154  1  -0.521962  0  -0.011597  -0.010051  0  4.052913  0
C  C95  1  0.34507374  0.29455286  0.33751483  1  -0.542727  0  -0.010996  -0.008948  0  4.055766  0
C  C96  1  0.74718610  0.88865145  0.39685518  1  0.020251  0  -0.011432  -0.04475  0  3.974723  0
C  C97  1  0.77215317  0.77747186  0.38310357  1  -0.071833  0  -0.070818  -0.077545  0  3.969244  0
C  C98  1  0.79834718  0.76231311  0.33957403  1  -0.033409  0  -0.080056  -0.125341  0  3.948003  0
C  C99  1  0.70711628  0.90731409  0.44229743  1  1.56501  0  0.272559  0.634028  0  4.100719  0
C  C100  1  0.79988217  0.85868140  0.30869730  1  0.074925  0  0.003373  0.144132  0  4.120144  0
C  C101  1  0.77631555  0.96958891  0.32300379  1  -0.033201  0  -0.085324  -0.136601  0  3.966921  0
C  C102  1  0.74998035  0.98431382  0.36664562  1  -0.050671  0  -0.077242  -0.083578  0  3.985568  0
C  C103  1  0.41235158  0.34985440  0.87996526  1  -0.002291  0  -0.070695  -0.07525  0  3.965411  0
C  C104  1  0.87610401  0.90581752  0.15028656  1  -0.010099  0  -0.08093  -0.125453  0  3.947879  0
C  C105  1  0.90163482  0.88876334  0.10685377  1  -0.026863  0  -0.070783  -0.078363  0  3.964567  0
C  C106  1  0.90690344  0.68962340  0.12329197  1  -0.064052  0  -0.076188  -0.084334  0  3.986373  0
C  C107  1  0.88106051  0.70635165  0.16679565  1  -0.054967  0  -0.08488  -0.135313  0  3.965815  0
C  C108  1  0.86602951  0.81445772  0.18102985  1  0.088518  0  0.003665  0.143684  0  4.120564  0
C  C109  1  0.84253091  0.83053004  0.22552070  1  -0.422393  0  -0.04371  -0.108167  0  4.130155  0
C  C110  1  0.82327429  0.84424285  0.26406741  1  0.057895  0  -0.045289  -0.110951  0  4.131317  0
C  C111  1  0.35441317  0.25466361  0.59346079  1  0.03362  0  -0.015451  -0.077873  0  3.923995  0
C  C112  1  0.91765977  0.78048856  0.09313848  1  0.007995  0  -0.011281  -0.043066  0  3.973268  0
C  C113  1  0.36741078  0.87297367  0.39830175  1  -0.049315  0  -0.011396  -0.044495  0  3.971393  0
C  C114  1  0.19599557  0.40698890  0.87299923  1  -0.023259  0  -0.073883  -0.075955  0  3.959925  0
C  C115  1  0.26895656  0.96425504  0.36764015  1  0.023071  0  -0.077687  -0.084439  0  3.985053  0
C  C116  1  0.26143833  0.94499349  0.32458136  1  -0.079105  0  -0.08384  -0.132027  0  3.9573  0
C  C117  1  0.35272489  0.83354351  0.31126256  1  0.062832  0  0.00296  0.144066  0  4.115967  0
C  C118  1  0.45062149  0.74158360  0.34257015  1  -0.04328  0  -0.081162  -0.128784  0  3.950502  0
C  C119  1  0.45776984  0.76146190  0.38552122  1  0.034588  0  -0.071429  -0.076115  0  3.96536  0
C  C120  1  0.41805496  0.67588885  0.16931499  1  -0.027072  0  -0.085371  -0.133583  0  3.961165  0
C  C121  1  0.40749284  0.66324604  0.12548154  1  -0.009137  0  -0.077365  -0.085546  0  3.986704  0
C  C122  1  0.22896751  0.87391523  0.10955068  1  0.031663  0  -0.072066  -0.078091  0  3.968268  0
C  C123  1  0.24121199  0.30125840  0.61387602  1  -0.222392  0  -0.034914  0.055337  0  3.882531  0
C  C124  1  0.23923931  0.88714588  0.15321919  1  -0.055553  0  -0.081252  -0.126868  0  3.949549  0
C  C125  1  0.21038399  0.37600311  0.83084190  1  -0.051211  0  -0.085424  -0.130341  0  3.945012  0
C  C126  1  0.33362236  0.78786303  0.18396958  1  0.034923  0  0.003111  0.144225  0  4.11635  0
C  C127  1  0.34199216  0.80120346  0.22866406  1  -0.489717  0  -0.045909  -0.112662  0  4.128332  0
C  C128  1  0.34680505  0.81534236  0.26708274  1  0.130763  0  -0.044194  -0.109668  0  4.126642  0
C  C129  1  0.31254340  0.76185123  0.09539478  1  -0.064128  0  -0.011885  -0.042773  0  3.969094  0
C  C130  1  0.95411892  0.76110382  0.92121401  1  1.648715  0  0.274459  0.714036  0  4.164315  0
C  C131  1  0.27571734  0.44198754  0.94053639  1  1.533901  0  0.27805  0.648444  0  4.07788  0
C  C132  1  0.30675573  0.75678433  0.92383292  1  1.643991  0  0.278591  0.715421  0  4.160276  0
C  C133  1  0.95694783  0.75891994  0.04782649  1  1.552617  0  0.272442  0.628874  0  4.10811  0
C  C134  1  0.28290032  0.42767845  0.06406291  1  1.637169  0  0.28177  0.722503  0  4.155041  0
C  C135  1  0.23860798  0.31498797  0.65840460  1  -0.010013  0  -0.090032  -0.16693  0  3.925121  0
C  C136  1  0.32645532  0.33130507  0.81244974  1  0.061829  0  0.000396  0.137083  0  4.118586  0
C  C137  1  0.29168964  0.74629603  0.04961383  1  1.553048  0  0.269679  0.631985  0  4.100949  0
I  I138  1  0.22747609  0.65444170  0.78967705  1  0.101314  0  0.101882  -0.029785  0  1.571469  0
I  I139  1  0.06755798  0.36492660  0.58057977  1  0.170586  0  0.096085  0.007003  0  1.36273  0
O  O140  1  0.69132853  0.83056796  0.55907500  1  -1.216339  0  -0.210046  -0.562566  0  2.304216  0
O  O141  1  0.35785843  0.46070870  0.95657038  1  -1.255751  0  -0.23223  -0.594807  0  2.291938  0
O  O142  1  0.38374531  0.65103725  0.94853472  1  -1.264087  0  -0.241979  -0.602062  0  2.224709  0
O  O143  1  0.48159347  0.82192105  0.56150706  1  -1.223829  0  -0.21236  -0.564964  0  2.296541  0
O  O144  1  0.19257102  0.83060327  0.02722119  1  -1.247229  0  -0.213669  -0.560846  0  2.361209  0
O  O145  1  0.97432030  0.83981249  0.02354112  1  -1.249507  0  -0.210212  -0.550337  0  2.358261  0
O  O146  1  0.97627450  0.65563933  0.03696241  1  -1.272611  0  -0.247333  -0.610783  0  2.286095  0
O  O147  1  0.17940848  0.45383110  0.04538817  1  -1.245679  0  -0.229903  -0.589104  0  2.245765  0
O  O148  1  0.36466546  0.44705509  0.04454125  1  -1.246519  0  -0.231292  -0.5929  0  2.244566  0
O  O149  1  0.37366649  0.64522229  0.03651481  1  -1.27821  0  -0.25071  -0.616499  0  2.281022  0
O  O150  1  0.16949847  0.66549932  0.98976402  1  -1.606729  0  -0.391025  -1.267784  0  2.290773  0
O  O151  1  0.29895505  0.20415203  0.44445845  1  -1.24869  0  -0.229081  -0.590321  0  2.248441  0
O  O152  1  0.29024054  0.99346955  0.54134128  1  -1.262116  0  -0.243795  -0.605752  0  2.233885  0
O  O153  1  0.29750253  0.19328283  0.53214449  1  -1.259128  0  -0.233981  -0.600321  0  2.391132  0
O  O154  1  0.47362077  0.20238663  0.53131563  1  -1.264864  0  -0.235523  -0.597533  0  2.304086  0
O  O155  1  0.68989096  0.01507153  0.54152040  1  -1.265298  0  -0.24676  -0.61081  0  2.22406  0
O  O156  1  0.69167076  0.82379591  0.46566030  1  -1.246425  0  -0.211701  -0.553791  0  2.357819  0
O  O157  1  0.48105205  0.81768949  0.46738549  1  -1.2455  0  -0.212503  -0.558903  0  2.352193  0
O  O158  1  0.29832808  0.00136964  0.45335810  1  -1.28206  0  -0.248805  -0.614671  0  2.283627  0
O  O159  1  0.47835014  0.20933763  0.44383328  1  -1.25215  0  -0.23108  -0.591301  0  2.242998  0
O  O160  1  0.68543395  0.01019640  0.45414926  1  -1.27192  0  -0.248498  -0.615583  0  2.287353  0
O  O161  1  0.49674801  0.99378279  0.50062526  1  -1.612213  0  -0.391441  -1.266559  0  2.287712  0
O  O162  1  0.20142275  0.83661320  0.93361673  1  -1.218732  0  -0.209608  -0.564174  0  2.30285  0
O  O163  1  0.98628736  0.83703540  0.92939475  1  -1.211068  0  -0.209902  -0.55926  0  2.293961  0
O  O164  1  0.96512799  0.66553931  0.94890765  1  -1.266446  0  -0.247759  -0.613075  0  2.227965  0
O  O165  1  0.17352318  0.46657422  0.95762324  1  -1.266673  0  -0.233859  -0.598955  0  2.310291  0
O  O166  1  0.67885745  0.64982401  0.52435730  1  -1.359955  0  -0.581281  -0.995022  0  1.798969  0
O  O167  1  0.00215366  0.00921285  0.96929296  1  -1.356134  0  -0.581619  -0.998354  0  1.795481  0
