# generated using pymatgen
data_LaH7C2SO8
_symmetry_space_group_name_H-M   'P 1'
_cell_length_a   6.86534635
_cell_length_b   7.04660605
_cell_length_c   8.74295360
_cell_angle_alpha   111.32835995
_cell_angle_beta   89.17671027
_cell_angle_gamma   107.80381435
_symmetry_Int_Tables_number   1
_chemical_formula_structural   LaH7C2SO8
_chemical_formula_sum   'La2 H14 C4 S2 O16'
_cell_volume   372.88165052
_cell_formula_units_Z   2
loop_
 _symmetry_equiv_pos_site_id
 _symmetry_equiv_pos_as_xyz
  1  'x, y, z'
loop_
 _atom_site_type_symbol
 _atom_site_label
 _atom_site_symmetry_multiplicity
 _atom_site_fract_x
 _atom_site_fract_y
 _atom_site_fract_z
 _atom_site_occupancy
 _atom_site_hle17_bader_spin_density
 _atom_site_hle17_ddec_charge
 _atom_site_hle17_ddec_spin_density
 _atom_site_hle17_ddec_sum_bond_order
 _atom_site_hle17_magmom
 _atom_site_hse06_10hf_bader_spin_density
 _atom_site_hse06_10hf_ddec_charge
 _atom_site_hse06_10hf_ddec_spin_density
 _atom_site_hse06_10hf_ddec_sum_bond_order
 _atom_site_hse06_10hf_magmom
 _atom_site_hse06_bader_spin_density
 _atom_site_hse06_ddec_charge
 _atom_site_hse06_ddec_spin_density
 _atom_site_hse06_ddec_sum_bond_order
 _atom_site_hse06_magmom
 _atom_site_pbe_bader_spin_density
 _atom_site_pbe_cm5_charge
 _atom_site_pbe_ddec_charge
 _atom_site_pbe_ddec_spin_density
 _atom_site_pbe_ddec_sum_bond_order
 _atom_site_pbe_magmom
La  La0  1  0.87642646  0.64510714  0.86375196  1  0  2.201  0  1.707076  0  0  2.084021  0  2.196067  0  0  2.183158  0  2.097407  0  0  1.431976  2.00938  0  2.265605  0
La  La1  1  0.12357327  0.35489303  0.13624956  1  0  2.201004  0  1.707077  0  0  2.08401  0  2.19609  0  0  2.18315  0  2.097424  0  0  1.431972  2.009369  0  2.265634  0
H  H2  1  0.07605318  0.98248989  0.70392551  1  0  0.432402  0  0.86536  0  0  0.401323  0  0.929506  0  0  0.412184  0  0.913829  0  0  0.306337  0.393554  0  0.940671  0
H  H3  1  0.92394512  0.01751025  0.29607371  1  0  0.432384  0  0.865387  0  0  0.401315  0  0.929519  0  0  0.412177  0  0.91384  0  0  0.306332  0.393545  0  0.940689  0
H  H4  1  0.59188791  0.30945230  0.54550109  1  0  0.4339  0  0.863944  0  0  0.402437  0  0.929659  0  0  0.412652  0  0.914824  0  0  0.304719  0.39519  0  0.940154  0
H  H5  1  0.40811476  0.69054782  0.45449697  1  0  0.4339  0  0.863944  0  0  0.402446  0  0.929644  0  0  0.41266  0  0.914809  0  0  0.304736  0.395204  0  0.94013  0
H  H6  1  0.51005000  0.16968656  0.25247267  1  0  0.147671  0  0.975331  0  0  0.161556  0  1.038282  0  0  0.164841  0  1.036683  0  0  0.104215  0.159129  0  1.039579  0
H  H7  1  0.48994971  0.83030877  0.74752748  1  0  0.14771  0  0.97536  0  0  0.161612  0  1.038278  0  0  0.16489  0  1.036685  0  0  0.104221  0.159182  0  1.039573  0
H  H8  1  0.89125598  0.80110095  0.56875188  1  0  0.433436  0  0.864925  0  0  0.400991  0  0.930782  0  0  0.411959  0  0.914998  0  0  0.302183  0.393206  0  0.94196  0
H  H9  1  0.10874230  0.19889920  0.43124850  1  0  0.433431  0  0.86493  0  0  0.400987  0  0.930785  0  0  0.411955  0  0.915001  0  0  0.302177  0.393208  0  0.941954  0
H  H10  1  0.57209941  0.92508486  0.17771528  1  0  0.167092  0  0.954469  0  0  0.181853  0  1.015987  0  0  0.185365  0  1.014379  0  0  0.114837  0.179294  0  1.017279  0
H  H11  1  0.42789690  0.07490884  0.82228213  1  0  0.167109  0  0.954491  0  0  0.181868  0  1.016014  0  0  0.185381  0  1.014404  0  0  0.114845  0.17931  0  1.017301  0
H  H12  1  0.81690309  0.30161322  0.48951378  1  0  0.452359  0  0.83041  0  0  0.424608  0  0.887873  0  0  0.435565  0  0.871946  0  0  0.310296  0.416669  0  0.89941  0
H  H13  1  0.18309858  0.69838369  0.51048452  1  0  0.452336  0  0.830432  0  0  0.424576  0  0.887915  0  0  0.435532  0  0.871989  0  0  0.310285  0.416638  0  0.89945  0
H  H14  1  0.42121319  0.97005048  0.34403839  1  0  0.155209  0  0.94912  0  0  0.171809  0  1.010751  0  0  0.175308  0  1.008142  0  0  0.107755  0.169256  0  1.012739  0
H  H15  1  0.57878652  0.02994484  0.65596060  1  0  0.155239  0  0.949107  0  0  0.171848  0  1.010731  0  0  0.175346  0  1.008121  0  0  0.107746  0.169293  0  1.012717  0
C  C16  1  0.26462871  0.88451562  0.11099696  1  0  0.817084  0  3.759637  0  0  0.781139  0  4.044031  0  0  0.818403  0  4.035217  0  0  0.239587  0.75535  0  4.04921  0
C  C17  1  0.73537200  0.11548291  0.88900180  1  0  0.817213  0  3.759496  0  0  0.781211  0  4.043976  0  0  0.818474  0  4.035161  0  0  0.239601  0.755434  0  4.049133  0
C  C18  1  0.45411804  0.99827344  0.22955820  1  0  -0.48502  0  3.609591  0  0  -0.557105  0  3.832375  0  0  -0.565057  0  3.831166  0  0  -0.245898  -0.551506  0  3.833597  0
C  C19  1  0.54588071  0.00172349  0.77044125  1  0  -0.485107  0  3.609508  0  0  -0.557204  0  3.832319  0  0  -0.56515  0  3.831122  0  0  -0.245885  -0.551605  0  3.833529  0
S  S20  1  0.29477120  0.39269975  0.73700168  1  0  1.636366  0  5.765232  0  0  1.512555  0  6.304202  0  0  1.572456  0  6.267097  0  0  0.607899  1.47065  0  6.328707  0
S  S21  1  0.70522907  0.60730683  0.26300052  1  0  1.636368  0  5.765195  0  0  1.512592  0  6.304134  0  0  1.57249  0  6.267035  0  0  0.607918  1.47069  0  6.328645  0
O  O22  1  0.15812251  0.51624554  0.72824995  1  0  -0.776221  0  2.017182  0  0  -0.724141  0  2.293654  0  0  -0.75423  0  2.277938  0  0  -0.406231  -0.702226  0  2.303635  0
O  O23  1  0.84188266  0.48376260  0.27174809  1  0  -0.776169  0  2.01715  0  0  -0.724115  0  2.293647  0  0  -0.754201  0  2.277929  0  0  -0.406202  -0.702202  0  2.303641  0
O  O24  1  0.50063089  0.54318099  0.82158572  1  0  -0.78947  0  1.993527  0  0  -0.738189  0  2.274402  0  0  -0.768841  0  2.257529  0  0  -0.41627  -0.715772  0  2.285192  0
O  O25  1  0.49936790  0.45682076  0.17841396  1  0  -0.78952  0  1.993447  0  0  -0.738233  0  2.274311  0  0  -0.768884  0  2.257437  0  0  -0.416282  -0.71581  0  2.2851  0
O  O26  1  0.20547233  0.25302615  0.83274838  1  0  -0.805452  0  2.0349  0  0  -0.746555  0  2.29951  0  0  -0.775472  0  2.282925  0  0  -0.38238  -0.725527  0  2.310257  0
O  O27  1  0.79452358  0.74698042  0.16725268  1  0  -0.805425  0  2.034853  0  0  -0.746577  0  2.299489  0  0  -0.775494  0  2.282905  0  0  -0.382397  -0.725556  0  2.310244  0
O  O28  1  0.31472829  0.25282781  0.56676429  1  0  -0.737941  0  1.95024  0  0  -0.67275  0  2.184124  0  0  -0.696315  0  2.166174  0  0  -0.33752  -0.656296  0  2.196412  0
O  O29  1  0.68527485  0.74717396  0.43323767  1  0  -0.737901  0  1.950331  0  0  -0.672716  0  2.18421  0  0  -0.696279  0  2.16626  0  0  -0.3375  -0.656256  0  2.196499  0
O  O30  1  0.18729778  0.98281664  0.04287479  1  0  -0.754789  0  1.98937  0  0  -0.705063  0  2.242243  0  0  -0.742982  0  2.235429  0  0  -0.39181  -0.677669  0  2.245753  0
O  O31  1  0.81270390  0.01718514  0.95712717  1  0  -0.75487  0  1.989317  0  0  -0.705127  0  2.242238  0  0  -0.743045  0  2.235423  0  0  -0.39183  -0.677743  0  2.245742  0
O  O32  1  0.17562318  0.68310109  0.07459688  1  0  -0.765638  0  2.099553  0  0  -0.720235  0  2.366138  0  0  -0.758987  0  2.35884  0  0  -0.412324  -0.692231  0  2.369882  0
O  O33  1  0.82438043  0.31689258  0.92539820  1  0  -0.765697  0  2.099635  0  0  -0.720272  0  2.366248  0  0  -0.759027  0  2.358955  0  0  -0.412344  -0.692274  0  2.369987  0
O  O34  1  0.74074044  0.36128247  0.58169738  1  0  -0.893065  0  1.877269  0  0  -0.847026  0  2.073853  0  0  -0.872726  0  2.04152  0  0  -0.636418  -0.828132  0  2.09622  0
O  O35  1  0.25926275  0.63871922  0.41829769  1  0  -0.893045  0  1.877295  0  0  -0.846989  0  2.073839  0  0  -0.872706  0  2.041546  0  0  -0.636427  -0.828104  0  2.096203  0
O  O36  1  0.00529618  0.82464286  0.65063779  1  0  -0.868956  0  1.854639  0  0  -0.811235  0  2.034894  0  0  -0.837279  0  2.003192  0  0  -0.600966  -0.792327  0  2.056984  0
O  O37  1  0.99470505  0.17535724  0.34935912  1  0  -0.868926  0  1.854661  0  0  -0.811224  0  2.034912  0  0  -0.837272  0  2.003213  0  0  -0.600956  -0.792315  0  2.056996  0
