# generated using pymatgen
data_DyH13C21(N3O10)2
_symmetry_space_group_name_H-M   'P 1'
_cell_length_a   9.22419937
_cell_length_b   11.52573385
_cell_length_c   13.72070000
_cell_angle_alpha   107.54155764
_cell_angle_beta   90.49191049
_cell_angle_gamma   93.59036001
_symmetry_Int_Tables_number   1
_chemical_formula_structural   DyH13C21(N3O10)2
_chemical_formula_sum   'Dy2 H26 C42 N12 O40'
_cell_volume   1387.58461452
_cell_formula_units_Z   2
loop_
 _symmetry_equiv_pos_site_id
 _symmetry_equiv_pos_as_xyz
  1  'x, y, z'
loop_
 _atom_site_type_symbol
 _atom_site_label
 _atom_site_symmetry_multiplicity
 _atom_site_fract_x
 _atom_site_fract_y
 _atom_site_fract_z
 _atom_site_occupancy
 _atom_site_hle17_bader_spin_density
 _atom_site_hle17_ddec_charge
 _atom_site_hle17_ddec_spin_density
 _atom_site_hle17_ddec_sum_bond_order
 _atom_site_hle17_magmom
 _atom_site_hse06_10hf_bader_spin_density
 _atom_site_hse06_10hf_ddec_charge
 _atom_site_hse06_10hf_ddec_spin_density
 _atom_site_hse06_10hf_ddec_sum_bond_order
 _atom_site_hse06_10hf_magmom
 _atom_site_hse06_bader_spin_density
 _atom_site_hse06_ddec_charge
 _atom_site_hse06_ddec_spin_density
 _atom_site_hse06_ddec_sum_bond_order
 _atom_site_hse06_magmom
 _atom_site_pbe_bader_charge
 _atom_site_pbe_bader_spin_density
 _atom_site_pbe_cm5_charge
 _atom_site_pbe_ddec_charge
 _atom_site_pbe_ddec_spin_density
 _atom_site_pbe_ddec_sum_bond_order
 _atom_site_pbe_magmom
Dy  Dy0  1  0.26785221  0.98826272  0.00660649  1  0  2.312837  0  1.625462  0  0  2.243067  0  1.95668  0  0  2.29124  0  1.912838  0  2.205666  0  1.519275  2.131998  0  2.130852  0
Dy  Dy1  1  0.73214836  0.01173929  0.99339402  1  0  2.312821  0  1.625475  0  0  2.243042  0  1.956691  0  0  2.291218  0  1.912848  0  2.20565  0  1.519262  2.131984  0  2.13084  0
H  H2  1  0.76794022  0.23605263  0.22153035  1  0  0.136178  0  0.968519  0  0  0.134081  0  1.045546  0  0  0.139097  0  1.041074  0  0.192352  0  0.122386  0.130187  0  1.049265  0
H  H3  1  0.23205919  0.76394846  0.77846919  1  0  0.136209  0  0.968519  0  0  0.13412  0  1.045525  0  0  0.139137  0  1.041055  0  0.192358  0  0.122407  0.130228  0  1.049243  0
H  H4  1  0.25889977  0.30803341  0.05337175  1  0  0.145538  0  0.952836  0  0  0.144307  0  1.02756  0  0  0.149494  0  1.02257  0  0.21189  0  0.124983  0.140262  0  1.031732  0
H  H5  1  0.74110066  0.69196677  0.94662757  1  0  0.145527  0  0.952848  0  0  0.144293  0  1.027574  0  0  0.149479  0  1.022584  0  0.211874  0  0.124975  0.140247  0  1.031746  0
H  H6  1  0.22681828  0.34275146  0.26122076  1  0  0.13338  0  0.929229  0  0  0.138892  0  0.995277  0  0  0.142991  0  0.991548  0  0.150198  0  0.123576  0.135949  0  0.998108  0
H  H7  1  0.77318091  0.65724690  0.73877955  1  0  0.133382  0  0.929332  0  0  0.138916  0  0.995341  0  0  0.143017  0  0.991613  0  0.150173  0  0.123577  0.135973  0  0.998172  0
H  H8  1  0.91860333  0.58531720  0.43354768  1  0  0.13936  0  0.971948  0  0  0.132798  0  1.056395  0  0  0.138443  0  1.050322  0  0.207638  0  0.120548  0.128452  0  1.060922  0
H  H9  1  0.08139593  0.41468207  0.56645286  1  0  0.139372  0  0.971917  0  0  0.13281  0  1.056359  0  0  0.138454  0  1.050286  0  0.207653  0  0.120543  0.128463  0  1.060886  0
H  H10  1  0.70758901  0.44185910  0.11773147  1  0  0.138088  0  0.928475  0  0  0.140224  0  0.997932  0  0  0.145003  0  0.993355  0  0.154534  0  0.123114  0.136765  0  1.001145  0
H  H11  1  0.29241033  0.55814108  0.88226857  1  0  0.138003  0  0.928509  0  0  0.140176  0  0.997932  0  0  0.144944  0  0.993387  0  0.154532  0  0.123106  0.136716  0  1.001146  0
H  H12  1  0.37127992  0.69661743  0.17150154  1  0  0.152601  0  0.924492  0  0  0.153451  0  0.994119  0  0  0.158966  0  0.988222  0  0.180928  0  0.13126  0.149134  0  0.998987  0
H  H13  1  0.62871942  0.30338275  0.82849850  1  0  0.152621  0  0.924474  0  0  0.153468  0  0.994103  0  0  0.158983  0  0.988206  0  0.180946  0  0.131266  0.14915  0  0.998974  0
H  H14  1  0.71183925  0.87508635  0.69142546  1  0  0.135872  0  0.938819  0  0  0.138805  0  1.007609  0  0  0.143855  0  1.002746  0  0.169486  0  0.122673  0.134828  0  1.012019  0
H  H15  1  0.28816248  0.12491657  0.30857602  1  0  0.135879  0  0.938837  0  0  0.138813  0  1.007619  0  0  0.143865  0  1.002752  0  0.169494  0  0.122661  0.134838  0  1.012027  0
H  H16  1  0.26575700  0.95126814  0.65375214  1  0  0.139622  0  0.910038  0  0  0.146433  0  0.96915  0  0  0.15112  0  0.964888  0  0.174718  0  0.126348  0.142833  0  0.972916  0
H  H17  1  0.73424429  0.04872931  0.34624649  1  0  0.139699  0  0.910101  0  0  0.146506  0  0.96922  0  0  0.151189  0  0.964959  0  0.17462  0  0.126383  0.142906  0  0.972984  0
H  H18  1  0.51970178  0.79898574  0.38859205  1  0  0.140613  0  0.944356  0  0  0.139422  0  1.019609  0  0  0.144323  0  1.014908  0  0.186208  0  0.121287  0.135825  0  1.022842  0
H  H19  1  0.48029864  0.20101444  0.61140727  1  0  0.140603  0  0.944346  0  0  0.139404  0  1.01962  0  0  0.144306  0  1.014919  0  0.186236  0  0.121278  0.135808  0  1.022853  0
H  H20  1  0.22593949  0.14076748  0.87114103  1  0  0.427667  0  0.856728  0  0  0.395973  0  0.928023  0  0  0.406284  0  0.91265  0  0.636672  0  0.307427  0.388295  0  0.939327  0
H  H21  1  0.77406093  0.85923270  0.12885902  1  0  0.427682  0  0.8567  0  0  0.395986  0  0.928005  0  0  0.406297  0  0.912631  0  0.636675  0  0.307435  0.388308  0  0.939308  0
H  H22  1  0.06573564  0.12463200  0.90825510  1  0  0.446658  0  0.843437  0  0  0.419615  0  0.899214  0  0  0.429959  0  0.884054  0  0.630306  0  0.304974  0.411283  0  0.911251  0
H  H23  1  0.93426370  0.87536818  0.09174567  1  0  0.446608  0  0.843506  0  0  0.419555  0  0.8993  0  0  0.4299  0  0.884139  0  0.63031  0  0.304933  0.411222  0  0.911338  0
H  H24  1  0.16550447  0.90967124  0.18329293  1  0  0.453913  0  0.786957  0  0  0.431097  0  0.848337  0  0  0.439695  0  0.838033  0  0.637397  0  0.336863  0.424441  0  0.85553  0
H  H25  1  0.83449603  0.09032986  0.81670662  1  0  0.4539  0  0.78698  0  0  0.431085  0  0.848355  0  0  0.439682  0  0.838053  0  0.637389  0  0.336865  0.424429  0  0.855547  0
H  H26  1  0.13808163  0.78812842  0.09586806  1  0  0.454003  0  0.815252  0  0  0.428275  0  0.874294  0  0  0.437255  0  0.861006  0  0.670673  0  0.325744  0.421285  0  0.884589  0
H  H27  1  0.86191770  0.21187176  0.90413271  1  0  0.45405  0  0.815188  0  0  0.428366  0  0.87419  0  0  0.437345  0  0.860901  0  0.670668  0  0.325752  0.42137  0  0.884498  0
C  C28  1  0.03293052  0.16450600  0.14829806  1  0  0.73167  0  3.846357  0  0  0.68725  0  4.132436  0  0  0.722707  0  4.121966  0  1.632132  0  0.242519  0.661769  0  4.134834  0
C  C29  1  0.96706773  0.83549419  0.85170051  1  0  0.731615  0  3.846306  0  0  0.687187  0  4.13239  0  0  0.722643  0  4.121918  0  1.631692  0  0.242501  0.661706  0  4.134786  0
C  C30  1  0.85701052  0.30195262  0.25768586  1  0  -0.046914  0  3.600464  0  0  -0.085707  0  3.849848  0  0  -0.080595  0  3.864503  0  -0.012817  0  -0.047403  -0.089666  0  3.842175  0
C  C31  1  0.14298874  0.69804665  0.74231468  1  0  -0.046922  0  3.600473  0  0  -0.085724  0  3.849859  0  0  -0.080611  0  3.864511  0  -0.012801  0  -0.047404  -0.089683  0  3.842187  0
C  C32  1  0.53570907  0.23327537  0.04872074  1  0  0.715032  0  3.87199  0  0  0.666942  0  4.167779  0  0  0.702367  0  4.157034  0  1.626987  0  0.230757  0.641902  0  4.168416  0
C  C33  1  0.46429135  0.76672481  0.95127931  1  0  0.715086  0  3.871973  0  0  0.666994  0  4.167765  0  0  0.702422  0  4.157017  0  1.62702  0  0.230774  0.641954  0  4.168404  0
C  C34  1  0.00074127  0.27766230  0.23184309  1  0  -0.035468  0  3.680002  0  0  -0.008282  0  3.908546  0  0  -0.018152  0  3.928788  0  0.03354  0  0.003083  -0.002581  0  3.897451  0
C  C35  1  0.99925806  0.72233788  0.76815622  1  0  -0.035449  0  3.679946  0  0  -0.00823  0  3.90845  0  0  -0.018098  0  3.928692  0  0.033478  0  0.003085  -0.002528  0  3.897353  0
C  C36  1  0.48799879  0.36139422  0.08411576  1  0  -0.033185  0  3.677563  0  0  -0.005843  0  3.90922  0  0  -0.016378  0  3.931513  0  0.088825  0  0.000414  -0.000452  0  3.896958  0
C  C37  1  0.51200271  0.63860596  0.91588357  1  0  -0.033186  0  3.677529  0  0  -0.005849  0  3.909199  0  0  -0.01638  0  3.931489  0  0.088814  0  0.000416  -0.000458  0  3.896938  0
C  C38  1  0.34085347  0.38364241  0.08171307  1  0  -0.06168  0  3.610883  0  0  -0.105251  0  3.870024  0  0  -0.10102  0  3.88649  0  0.010538  0  -0.052243  -0.10754  0  3.86  0
C  C39  1  0.65914803  0.61635777  0.91828698  1  0  -0.061683  0  3.610909  0  0  -0.105247  0  3.870005  0  0  -0.101019  0  3.886477  0  0.01045  0  -0.052234  -0.107537  0  3.85998  0
C  C40  1  0.83017060  0.41082674  0.33153226  1  0  0.074587  0  3.679229  0  0  0.070929  0  3.93644  0  0  0.065867  0  3.958591  0  0.177486  0  0.081402  0.07369  0  3.92172  0
C  C41  1  0.16982866  0.58917253  0.66846755  1  0  0.074552  0  3.679254  0  0  0.070865  0  3.936509  0  0  0.065804  0  3.958657  0  0.177464  0  0.081378  0.073626  0  3.92179  0
C  C42  1  0.08166704  0.47178603  0.34939183  1  0  0.081769  0  3.683181  0  0  0.071944  0  3.934988  0  0  0.066457  0  3.957346  0  0.189728  0  0.081189  0.075004  0  3.919877  0
C  C43  1  0.91833215  0.52821232  0.65060775  1  0  0.081766  0  3.683261  0  0  0.071996  0  3.935001  0  0  0.066508  0  3.957359  0  0.189725  0  0.081189  0.075055  0  3.919888  0
C  C44  1  0.11456866  0.36189039  0.27943164  1  0  -0.054833  0  3.648724  0  0  -0.102138  0  3.913202  0  0  -0.096663  0  3.928646  0  0.067152  0  -0.054649  -0.106031  0  3.903754  0
C  C45  1  0.88542952  0.63810888  0.72056817  1  0  -0.054864  0  3.648861  0  0  -0.102216  0  3.913295  0  0  -0.096745  0  3.928742  0  0.067228  0  -0.05465  -0.106109  0  3.903847  0
C  C46  1  0.94038925  0.49870495  0.37812699  1  0  -0.091366  0  3.650022  0  0  -0.134381  0  3.917409  0  0  -0.129771  0  3.93149  0  0.042448  0  -0.057339  -0.136056  0  3.907265  0
C  C47  1  0.05961002  0.50129432  0.62187282  1  0  -0.091366  0  3.650016  0  0  -0.134381  0  3.917382  0  0  -0.12977  0  3.931463  0  0.042408  0  -0.057328  -0.136056  0  3.907241  0
C  C48  1  0.59282686  0.45878261  0.11753549  1  0  -0.060617  0  3.644427  0  0  -0.104532  0  3.904279  0  0  -0.099902  0  3.921363  0  0.00414  0  -0.054519  -0.106778  0  3.892673  0
C  C49  1  0.40717356  0.54121757  0.88246383  1  0  -0.060519  0  3.644375  0  0  -0.104463  0  3.904214  0  0  -0.099839  0  3.921296  0  0.00401  0  -0.054513  -0.106709  0  3.892606  0
C  C50  1  0.54865938  0.57737304  0.14852187  1  0  0.081513  0  3.687742  0  0  0.074099  0  3.945641  0  0  0.068547  0  3.96935  0  0.20744  0  0.082889  0.077266  0  3.929756  0
C  C51  1  0.45134213  0.42262714  0.85147891  1  0  0.081564  0  3.687624  0  0  0.074154  0  3.945525  0  0  0.068604  0  3.969234  0  0.207597  0  0.082926  0.077321  0  3.929642  0
C  C52  1  0.30213465  0.50411901  0.11258458  1  0  0.066322  0  3.691407  0  0  0.06369  0  3.951637  0  0  0.058167  0  3.974497  0  0.110547  0  0.081825  0.06685  0  3.936049  0
C  C53  1  0.69786678  0.49588026  0.88741525  1  0  0.066304  0  3.691428  0  0  0.063709  0  3.951605  0  0  0.058186  0  3.974469  0  0.110711  0  0.081811  0.066871  0  3.936013  0
C  C54  1  0.40345426  0.60330145  0.14728517  1  0  -0.085054  0  3.64665  0  0  -0.129165  0  3.914077  0  0  -0.12393  0  3.927479  0  0.078868  0  -0.052346  -0.132613  0  3.905679  0
C  C55  1  0.59654624  0.39669965  0.85271511  1  0  -0.085058  0  3.646709  0  0  -0.129184  0  3.914119  0  0  -0.123949  0  3.927522  0  0.07876  0  -0.052322  -0.132634  0  3.905727  0
C  C56  1  0.48189731  0.96479600  0.80015650  1  0  0.731816  0  3.841002  0  0  0.685561  0  4.13369  0  0  0.721322  0  4.121892  0  1.628701  0  0.237293  0.66022  0  4.136794  0
C  C57  1  0.51810218  0.03520601  0.19984255  1  0  0.731846  0  3.840922  0  0  0.685533  0  4.133705  0  0  0.721293  0  4.121907  0  1.628251  0  0.237272  0.660192  0  4.136807  0
C  C58  1  0.48817766  0.91896070  0.68519542  1  0  -0.029716  0  3.672445  0  0  -0.004493  0  3.906886  0  0  -0.013395  0  3.927544  0  0.044927  0  0.001759  0.000849  0  3.894989  0
C  C59  1  0.51182059  0.08103949  0.31480389  1  0  -0.029719  0  3.672375  0  0  -0.004468  0  3.906811  0  0  -0.013369  0  3.927467  0  0.044948  0  0.001743  0.000875  0  3.894914  0
C  C60  1  0.61867619  0.87552141  0.64226787  1  0  -0.053863  0  3.623193  0  0  -0.097122  0  3.878908  0  0  -0.092395  0  3.893395  0  -0.020191  0  -0.054106  -0.1011  0  3.870947  0
C  C61  1  0.38132423  0.12447877  0.35773291  1  0  -0.053959  0  3.62323  0  0  -0.09722  0  3.878916  0  0  -0.092495  0  3.893404  0  -0.020202  0  -0.05413  -0.101197  0  3.870956  0
C  C62  1  0.36838320  0.91835234  0.62179557  1  0  -0.051546  0  3.609448  0  0  -0.095899  0  3.866419  0  0  -0.091715  0  3.882053  0  -0.023719  0  -0.05204  -0.099351  0  3.857398  0
C  C63  1  0.63161793  0.08164328  0.37820187  1  0  -0.051606  0  3.609402  0  0  -0.095973  0  3.866397  0  0  -0.091783  0  3.882024  0  -0.023666  0  -0.052041  -0.099423  0  3.857371  0
C  C64  1  0.38317017  0.87656664  0.51595802  1  0  0.068682  0  3.702364  0  0  0.066454  0  3.963216  0  0  0.061711  0  3.9863  0  0.216322  0  0.078739  0.069049  0  3.947447  0
C  C65  1  0.61682988  0.12342898  0.48404014  1  0  0.068708  0  3.702337  0  0  0.066477  0  3.963212  0  0  0.061734  0  3.986299  0  0.216292  0  0.078728  0.069072  0  3.947444  0
C  C66  1  0.62699153  0.83157592  0.53643212  1  0  0.078367  0  3.680632  0  0  0.074159  0  3.939696  0  0  0.069285  0  3.962513  0  0.209138  0  0.081446  0.076828  0  3.924142  0
C  C67  1  0.37300781  0.16842426  0.46356865  1  0  0.078395  0  3.680594  0  0  0.07422  0  3.939615  0  0  0.069347  0  3.962432  0  0.209137  0  0.081476  0.076886  0  3.924064  0
C  C68  1  0.51088897  0.83162426  0.47108366  1  0  -0.104132  0  3.678984  0  0  -0.148939  0  3.947049  0  0  -0.144902  0  3.96205  0  0.039307  0  -0.062767  -0.149677  0  3.935277  0
C  C69  1  0.48911231  0.16837319  0.52891424  1  0  -0.104112  0  3.679007  0  0  -0.14894  0  3.947114  0  0  -0.144907  0  3.962119  0  0.039328  0  -0.062761  -0.14968  0  3.935347  0
N  N70  1  0.67886285  0.43418766  0.36176172  1  0  0.502489  0  3.893557  0  0  0.529297  0  4.194668  0  0  0.550411  0  4.203419  0  0.38117  0  0.059675  0.515336  0  4.188341  0
N  N71  1  0.32113649  0.56581252  0.63823760  1  0  0.50246  0  3.893643  0  0  0.529274  0  4.19476  0  0  0.550388  0  4.203512  0  0.381208  0  0.059648  0.515313  0  4.188433  0
N  N72  1  0.20051294  0.56439607  0.39387812  1  0  0.475991  0  3.940223  0  0  0.533017  0  4.191945  0  0  0.554192  0  4.201098  0  0.390443  0  0.058528  0.518928  0  4.185733  0
N  N73  1  0.79948741  0.43560320  0.60612170  1  0  0.476022  0  3.940111  0  0  0.533013  0  4.191868  0  0  0.554188  0  4.20102  0  0.390426  0  0.058511  0.518925  0  4.185654  0
N  N74  1  0.14764341  0.52808646  0.10671856  1  0  0.505812  0  3.891271  0  0  0.530407  0  4.194659  0  0  0.550771  0  4.204714  0  0.399024  0  0.062773  0.517225  0  4.18675  0
N  N75  1  0.85235810  0.47191372  0.89328150  1  0  0.505835  0  3.891187  0  0  0.530407  0  4.194577  0  0  0.55077  0  4.20463  0  0.399017  0  0.062784  0.517226  0  4.186666  0
N  N76  1  0.66129481  0.67875814  0.17652002  1  0  0.464396  0  3.932996  0  0  0.504687  0  4.213983  0  0  0.524032  0  4.225874  0  0.372135  0  0.059009  0.491924  0  4.205942  0
N  N77  1  0.33870670  0.32124205  0.82348076  1  0  0.464377  0  3.932637  0  0  0.504662  0  4.21364  0  0  0.524007  0  4.22553  0  0.372074  0  0.058965  0.491897  0  4.205605  0
N  N78  1  0.26074318  0.88329957  0.44814834  1  0  0.496081  0  3.923  0  0  0.521235  0  4.230183  0  0  0.541672  0  4.240181  0  0.420086  0  0.055931  0.507773  0  4.223126  0
N  N79  1  0.73925500  0.11669970  0.55185292  1  0  0.496083  0  3.922843  0  0  0.521236  0  4.230034  0  0  0.541672  0  4.240032  0  0.420081  0  0.055945  0.507774  0  4.222978  0
N  N80  1  0.76431939  0.78482763  0.49178279  1  0  0.508553  0  3.901922  0  0  0.534691  0  4.203629  0  0  0.555759  0  4.212908  0  0.381898  0  0.060398  0.520866  0  4.196776  0
N  N81  1  0.23568009  0.21517437  0.50821844  1  0  0.508497  0  3.902051  0  0  0.534629  0  4.203758  0  0  0.555699  0  4.213037  0  0.38192  0  0.060332  0.520805  0  4.196902  0
O  O82  1  0.93010098  0.11069462  0.08636305  1  0  -0.748532  0  2.098946  0  0  -0.709884  0  2.361667  0  0  -0.735245  0  2.348307  0  -1.204361  0  -0.411013  -0.678559  0  2.372454  0
O  O83  1  0.06989937  0.88930465  0.91363604  1  0  -0.748511  0  2.098959  0  0  -0.709859  0  2.361673  0  0  -0.735222  0  2.348313  0  -1.204263  0  -0.411009  -0.678533  0  2.37246  0
O  O84  1  0.16220354  0.13154551  0.14284707  1  0  -0.70831  0  2.009484  0  0  -0.668952  0  2.25598  0  0  -0.694944  0  2.245869  0  -1.191017  0  -0.383836  -0.641264  0  2.266663  0
O  O85  1  0.83779464  0.86845376  0.85715201  1  0  -0.708269  0  2.009369  0  0  -0.668899  0  2.255851  0  0  -0.69489  0  2.245745  0  -1.190618  0  -0.383807  -0.641214  0  2.266532  0
O  O86  1  0.31869871  0.55332533  0.35095915  1  0  -0.335077  0  1.778796  0  0  -0.334934  0  1.979795  0  0  -0.347074  0  1.977728  0  -0.444968  0  -0.121779  -0.326949  0  1.981428  0
O  O87  1  0.68130272  0.44667394  0.64904140  1  0  -0.335073  0  1.778793  0  0  -0.33494  0  1.979815  0  0  -0.347075  0  1.977745  0  -0.444934  0  -0.121766  -0.326955  0  1.981448  0
O  O88  1  0.58124131  0.36009817  0.31269388  1  0  -0.351783  0  1.743598  0  0  -0.330515  0  1.943901  0  0  -0.344694  0  1.943322  0  -0.457053  0  -0.122981  -0.320201  0  1.943852  0
O  O89  1  0.41875818  0.63990384  0.68730589  1  0  -0.351769  0  1.743621  0  0  -0.330503  0  1.943929  0  0  -0.344682  0  1.943351  0  -0.457056  0  -0.122962  -0.320188  0  1.943879  0
O  O90  1  0.17432654  0.64858768  0.47128695  1  0  -0.343265  0  1.804047  0  0  -0.337987  0  2.003179  0  0  -0.353124  0  2.003801  0  -0.470039  0  -0.122388  -0.327881  0  2.002777  0
O  O91  1  0.82567380  0.35141159  0.52871214  1  0  -0.34329  0  1.803922  0  0  -0.337981  0  2.003045  0  0  -0.353116  0  2.003664  0  -0.470073  0  -0.122379  -0.327878  0  2.002649  0
O  O92  1  0.16987032  0.13267283  0.92944274  1  0  -0.89889  0  1.908112  0  0  -0.860061  0  2.097945  0  0  -0.878889  0  2.067304  0  -1.242589  0  -0.629393  -0.837418  0  2.125454  0
O  O93  1  0.83013017  0.86732826  0.07055754  1  0  -0.898867  0  1.90814  0  0  -0.860035  0  2.097988  0  0  -0.878869  0  2.067358  0  -1.242584  0  -0.629367  -0.837391  0  2.125491  0
O  O94  1  0.67042264  0.21953043  0.03641385  1  0  -0.704221  0  2.009529  0  0  -0.667313  0  2.25513  0  0  -0.692514  0  2.24536  0  -1.172377  0  -0.374013  -0.640837  0  2.264563  0
O  O95  1  0.32957786  0.78047066  0.96358570  1  0  -0.704218  0  2.009529  0  0  -0.667326  0  2.255138  0  0  -0.692521  0  2.245366  0  -1.172368  0  -0.373996  -0.640849  0  2.264575  0
O  O96  1  0.43929941  0.14607848  0.03338538  1  0  -0.768695  0  2.157359  0  0  -0.73135  0  2.422638  0  0  -0.756442  0  2.410506  0  -1.213535  0  -0.404002  -0.697823  0  2.429776  0
O  O97  1  0.56070109  0.85392261  0.96661417  1  0  -0.768743  0  2.157349  0  0  -0.731399  0  2.42263  0  0  -0.756493  0  2.410501  0  -1.213585  0  -0.404021  -0.697873  0  2.429767  0
O  O98  1  0.12217187  0.87548675  0.11446316  1  0  -0.84934  0  1.88357  0  0  -0.803809  0  2.060826  0  0  -0.82139  0  2.034263  0  -1.245412  0  -0.569919  -0.783338  0  2.084189  0
O  O99  1  0.87782971  0.12451434  0.88553640  1  0  -0.849377  0  1.883547  0  0  -0.803921  0  2.060678  0  0  -0.821493  0  2.034106  0  -1.245403  0  -0.569924  -0.783449  0  2.084038  0
O  O100  1  0.65859414  0.52584823  0.43413688  1  0  -0.337331  0  1.756108  0  0  -0.32928  0  1.967699  0  0  -0.341493  0  1.964895  0  -0.449825  0  -0.125945  -0.321095  0  1.969877  0
O  O101  1  0.34140853  0.47415286  0.56586342  1  0  -0.337314  0  1.756131  0  0  -0.329276  0  1.967749  0  0  -0.341487  0  1.964945  0  -0.449822  0  -0.125935  -0.321091  0  1.969926  0
O  O102  1  0.36099336  0.95143687  0.84022938  1  0  -0.726194  0  2.05094  0  0  -0.68798  0  2.304202  0  0  -0.713622  0  2.292912  0  -1.185646  0  -0.376652  -0.659528  0  2.314025  0
O  O103  1  0.63900590  0.04856240  0.15976970  1  0  -0.726176  0  2.050942  0  0  -0.687928  0  2.304203  0  0  -0.71357  0  2.292914  0  -1.185684  0  -0.376625  -0.659478  0  2.314023  0
O  O104  1  0.05777160  0.43948498  0.08093974  1  0  -0.322979  0  1.750738  0  0  -0.308233  0  1.955969  0  0  -0.320428  0  1.954486  0  -0.441942  0  -0.105865  -0.299539  0  1.95668  0
O  O105  1  0.94222666  0.56051520  0.91906103  1  0  -0.322981  0  1.750758  0  0  -0.308243  0  1.956009  0  0  -0.320433  0  1.954523  0  -0.441929  0  -0.105884  -0.299554  0  1.956726  0
O  O106  1  0.78940209  0.65385673  0.17528044  1  0  -0.292555  0  1.77242  0  0  -0.28963  0  1.977162  0  0  -0.298382  0  1.972908  0  -0.429282  0  -0.100195  -0.284623  0  1.98107  0
O  O107  1  0.21059834  0.34614346  0.82471961  1  0  -0.292632  0  1.772256  0  0  -0.2897  0  1.977007  0  0  -0.298449  0  1.97275  0  -0.429273  0  -0.100245  -0.284694  0  1.980917  0
O  O108  1  0.62043298  0.78447101  0.19577868  1  0  -0.35233  0  1.781788  0  0  -0.327022  0  1.979792  0  0  -0.342998  0  1.97821  0  -0.47756  0  -0.114194  -0.316941  0  1.981582  0
O  O109  1  0.37956737  0.21552826  0.80422259  1  0  -0.352293  0  1.781741  0  0  -0.326997  0  1.97975  0  0  -0.342973  0  1.978167  0  -0.477508  0  -0.114166  -0.316907  0  1.981533  0
O  O110  1  0.11644966  0.63613698  0.12884633  1  0  -0.361167  0  1.786071  0  0  -0.343912  0  1.996323  0  0  -0.357178  0  1.991003  0  -0.472154  0  -0.120425  -0.334695  0  2.000434  0
O  O111  1  0.88354960  0.36386229  0.87115348  1  0  -0.361195  0  1.785998  0  0  -0.343915  0  1.996242  0  0  -0.357183  0  1.990922  0  -0.472174  0  -0.120419  -0.334694  0  2.000355  0
O  O112  1  0.15256757  0.93331581  0.48867113  1  0  -0.320425  0  1.739421  0  0  -0.313191  0  1.943779  0  0  -0.323268  0  1.938995  0  -0.431626  0  -0.116127  -0.306133  0  1.946727  0
O  O113  1  0.84743293  0.06668529  0.51133353  1  0  -0.320468  0  1.739226  0  0  -0.313215  0  1.943569  0  0  -0.323289  0  1.938783  0  -0.431544  0  -0.116194  -0.306159  0  1.946518  0
O  O114  1  0.85951736  0.77087475  0.55085260  1  0  -0.346356  0  1.749449  0  0  -0.32757  0  1.95484  0  0  -0.341528  0  1.952565  0  -0.449516  0  -0.118956  -0.317484  0  1.955597  0
O  O115  1  0.14048313  0.22912635  0.44914768  1  0  -0.346345  0  1.749437  0  0  -0.327563  0  1.954839  0  0  -0.341515  0  1.952555  0  -0.449512  0  -0.118951  -0.317479  0  1.955598  0
O  O116  1  0.27544660  0.84080792  0.35422279  1  0  -0.372609  0  1.734072  0  0  -0.359308  0  1.945659  0  0  -0.372716  0  1.941819  0  -0.494043  0  -0.142529  -0.350188  0  1.948568  0
O  O117  1  0.72454862  0.15919500  0.64577792  1  0  -0.372582  0  1.734139  0  0  -0.359285  0  1.945709  0  0  -0.372697  0  1.941874  0  -0.494095  0  -0.142475  -0.350158  0  1.948612  0
O  O118  1  0.77614463  0.76112469  0.39813936  1  0  -0.344701  0  1.757246  0  0  -0.338034  0  1.971711  0  0  -0.350838  0  1.968536  0  -0.441662  0  -0.127938  -0.329208  0  1.973767  0
O  O119  1  0.22385486  0.23887732  0.60186187  1  0  -0.344661  0  1.757346  0  0  -0.337986  0  1.971796  0  0  -0.350792  0  1.968621  0  -0.441702  0  -0.127886  -0.32916  0  1.973851  0
O  O120  1  0.60036772  0.01186424  0.84737945  1  0  -0.746257  0  2.081486  0  0  -0.710055  0  2.337006  0  0  -0.735385  0  2.325205  0  -1.1903  0  -0.39453  -0.681446  0  2.347115  0
O  O121  1  0.39963162  0.98813594  0.15262132  1  0  -0.746278  0  2.081436  0  0  -0.710059  0  2.336985  0  0  -0.735389  0  2.325183  0  -1.189838  0  -0.394529  -0.681449  0  2.347094  0
