# generated using pymatgen
data_CdH28C26N4O5
_symmetry_space_group_name_H-M   'P 1'
_cell_length_a   9.85470974
_cell_length_b   12.19338358
_cell_length_c   13.12600000
_cell_angle_alpha   64.43741158
_cell_angle_beta   68.72740142
_cell_angle_gamma   73.05667277
_symmetry_Int_Tables_number   1
_chemical_formula_structural   CdH28C26N4O5
_chemical_formula_sum   'Cd2 H56 C52 N8 O10'
_cell_volume   1308.73600090
_cell_formula_units_Z   2
loop_
 _symmetry_equiv_pos_site_id
 _symmetry_equiv_pos_as_xyz
  1  'x, y, z'
loop_
 _atom_site_type_symbol
 _atom_site_label
 _atom_site_symmetry_multiplicity
 _atom_site_fract_x
 _atom_site_fract_y
 _atom_site_fract_z
 _atom_site_occupancy
 _atom_site_hle17_bader_spin_density
 _atom_site_hle17_ddec_charge
 _atom_site_hle17_ddec_spin_density
 _atom_site_hle17_ddec_sum_bond_order
 _atom_site_hle17_magmom
 _atom_site_hse06_10hf_bader_spin_density
 _atom_site_hse06_10hf_ddec_charge
 _atom_site_hse06_10hf_ddec_spin_density
 _atom_site_hse06_10hf_ddec_sum_bond_order
 _atom_site_hse06_10hf_magmom
 _atom_site_hse06_bader_spin_density
 _atom_site_hse06_ddec_charge
 _atom_site_hse06_ddec_spin_density
 _atom_site_hse06_ddec_sum_bond_order
 _atom_site_hse06_magmom
 _atom_site_pbe_bader_charge
 _atom_site_pbe_bader_spin_density
 _atom_site_pbe_cm5_charge
 _atom_site_pbe_ddec_charge
 _atom_site_pbe_ddec_spin_density
 _atom_site_pbe_ddec_sum_bond_order
 _atom_site_pbe_magmom
Cd  Cd0  1  0.18767495  0.88354074  0.02104380  1  0  1.091509  0  1.733876  0  0  0.898108  0  2.187686  0  0  0.958647  0  2.134474  0  1.266668  0  0.760973  0.855338  0  2.224106  0
Cd  Cd1  1  0.81232595  0.11645869  0.97895618  1  0  1.091514  0  1.73387  0  0  0.898125  0  2.187672  0  0  0.958664  0  2.134461  0  1.266663  0  0.760988  0.855354  0  2.224096  0
H  H2  1  0.60784819  0.35946696  0.63271080  1  0  0.272819  0  0.879651  0  0  0.263271  0  0.931013  0  0  0.270281  0  0.926641  0  0.464304  0  0.331058  0.258245  0  0.934207  0
H  H3  1  0.39215018  0.64053432  0.36728913  1  0  0.272838  0  0.879623  0  0  0.263295  0  0.930984  0  0  0.270306  0  0.926609  0  0.464351  0  0.331069  0.258269  0  0.934178  0
H  H4  1  0.06498278  0.79454922  0.82933934  1  0  0.11162  0  0.92335  0  0  0.127358  0  0.980608  0  0  0.130282  0  0.978538  0  0.085009  0  0.100705  0.125196  0  0.982357  0
H  H5  1  0.93501812  0.20545022  0.17066064  1  0  0.111616  0  0.92337  0  0  0.127369  0  0.980627  0  0  0.130293  0  0.978559  0  0.085083  0  0.100698  0.125206  0  0.982378  0
H  H6  1  0.07547651  0.92554279  0.70024829  1  0  0.104058  0  0.918329  0  0  0.1216  0  0.975789  0  0  0.12389  0  0.974749  0  0.061248  0  0.102318  0.119889  0  0.976865  0
H  H7  1  0.92452330  0.07445664  0.29975199  1  0  0.104057  0  0.918339  0  0  0.121608  0  0.975812  0  0  0.123895  0  0.974776  0  0.061235  0  0.102313  0.119895  0  0.976889  0
H  H8  1  0.83387260  0.68342149  0.91072914  1  0  0.064047  0  0.929919  0  0  0.080715  0  0.991028  0  0  0.081855  0  0.990768  0  -0.002513  0  0.082971  0.079897  0  0.991289  0
H  H9  1  0.16612721  0.31657794  0.08927114  1  0  0.064065  0  0.929913  0  0  0.080736  0  0.991045  0  0  0.081875  0  0.990789  0  -0.002514  0  0.082994  0.079917  0  0.991305  0
H  H10  1  0.70622499  0.82278269  0.89400190  1  0  0.082631  0  0.946461  0  0  0.09692  0  1.012253  0  0  0.098415  0  1.012069  0  0.033165  0  0.086941  0.095814  0  1.01246  0
H  H11  1  0.29377483  0.17721674  0.10599838  1  0  0.08263  0  0.946472  0  0  0.096938  0  1.012263  0  0  0.098432  0  1.012083  0  0.032811  0  0.086953  0.095831  0  1.01247  0
H  H12  1  0.98505822  0.62787190  0.59853337  1  0  0.011793  0  0.992301  0  0  0.027695  0  1.056182  0  0  0.026992  0  1.058428  0  -0.023138  0  0.075403  0.02825  0  1.054636  0
H  H13  1  0.01494142  0.37212845  0.40146582  1  0  0.011784  0  0.992309  0  0  0.027689  0  1.056176  0  0  0.026985  0  1.058423  0  -0.023139  0  0.075402  0.028245  0  1.054629  0
H  H14  1  0.84568848  0.54452081  0.80861936  1  0  0.066564  0  0.941323  0  0  0.083336  0  1.003825  0  0  0.083919  0  1.00506  0  -0.001859  0  0.083693  0.082756  0  1.003269  0
H  H15  1  0.15431243  0.45547863  0.19137986  1  0  0.066553  0  0.941324  0  0  0.083324  0  1.00382  0  0  0.083907  0  1.005056  0  -0.001856  0  0.083695  0.08274  0  1.003267  0
H  H16  1  0.72820407  0.58807112  0.71773419  1  0  0.059143  0  0.936941  0  0  0.074471  0  1.002572  0  0  0.075908  0  1.001637  0  -0.016514  0  0.080526  0.073423  0  1.003324  0
H  H17  1  0.27179574  0.41192831  0.28226532  1  0  0.059093  0  0.936921  0  0  0.074398  0  1.002584  0  0  0.075835  0  1.001648  0  -0.016499  0  0.080494  0.07335  0  1.003335  0
H  H18  1  0.08596148  0.78823551  0.60535968  1  0  0.072061  0  0.931964  0  0  0.088741  0  0.994007  0  0  0.08986  0  0.994117  0  0.007226  0  0.085602  0.087827  0  0.994093  0
H  H19  1  0.91403725  0.21176392  0.39464090  1  0  0.072081  0  0.931909  0  0  0.088762  0  0.993954  0  0  0.089882  0  0.994066  0  0.007222  0  0.085599  0.087848  0  0.99404  0
H  H20  1  0.05760632  0.66403918  0.74143820  1  0  0.069263  0  0.933556  0  0  0.08614  0  0.996355  0  0  0.087312  0  0.995983  0  -0.011479  0  0.087051  0.085142  0  0.996848  0
H  H21  1  0.94239349  0.33596025  0.25856131  1  0  0.069263  0  0.933542  0  0  0.086137  0  0.996347  0  0  0.087308  0  0.995978  0  -0.011488  0  0.087049  0.085137  0  0.996842  0
H  H22  1  0.54627586  0.78806235  0.69072984  1  0  0.0847  0  0.925191  0  0  0.102646  0  0.983356  0  0  0.104173  0  0.982623  0  0.035534  0  0.089463  0.101437  0  0.984185  0
H  H23  1  0.45372377  0.21193800  0.30926936  1  0  0.084718  0  0.9252  0  0  0.102662  0  0.983367  0  0  0.104193  0  0.982626  0  0.035553  0  0.089475  0.101453  0  0.984197  0
H  H24  1  0.53905604  0.88480256  0.76179748  1  0  0.067968  0  0.973531  0  0  0.084332  0  1.03785  0  0  0.084212  0  1.040624  0  0.012561  0  0.084287  0.084378  0  1.036076  0
H  H25  1  0.46094377  0.11519687  0.23820280  1  0  0.06796  0  0.973527  0  0  0.084324  0  1.03785  0  0  0.084205  0  1.040626  0  0.012556  0  0.084279  0.084371  0  1.036074  0
H  H26  1  0.67636953  0.96793445  0.55043350  1  0  0.036868  0  0.919446  0  0  0.053661  0  0.973367  0  0  0.053877  0  0.974312  0  0.023519  0  0.085845  0.053452  0  0.972861  0
H  H27  1  0.32362920  0.03206498  0.44956631  1  0  0.036882  0  0.919435  0  0  0.05368  0  0.973363  0  0  0.053897  0  0.974307  0  0.023532  0  0.085852  0.05347  0  0.972857  0
H  H28  1  0.91733336  0.84837554  0.47432268  1  0  0.059833  0  0.938756  0  0  0.079119  0  1.000706  0  0  0.079865  0  1.001057  0  -0.000291  0  0.082595  0.078525  0  1.000504  0
H  H29  1  0.08266519  0.15162481  0.52567757  1  0  0.059835  0  0.938736  0  0  0.079115  0  1.000685  0  0  0.079862  0  1.001034  0  -0.000308  0  0.082587  0.07852  0  1.000484  0
H  H30  1  0.77021339  0.76590404  0.52246915  1  0  0.051135  0  0.975135  0  0  0.066785  0  1.04645  0  0  0.06722  0  1.047275  0  -0.022305  0  0.079226  0.066527  0  1.045831  0
H  H31  1  0.22978642  0.23409539  0.47753037  1  0  0.051138  0  0.975156  0  0  0.066773  0  1.046481  0  0  0.067208  0  1.047306  0  -0.022295  0  0.079222  0.066517  0  1.045858  0
H  H32  1  0.74902276  0.00347968  0.69613043  1  0  0.07735  0  0.970448  0  0  0.089788  0  1.039425  0  0  0.091476  0  1.039355  0  0.067616  0  0.081265  0.088602  0  1.039456  0
H  H33  1  0.25097579  0.99652068  0.30386983  1  0  0.077347  0  0.970461  0  0  0.089784  0  1.039438  0  0  0.09147  0  1.039371  0  0.067769  0  0.081265  0.088597  0  1.039469  0
H  H34  1  0.90434521  0.98861081  0.57817019  1  0  0.058002  0  0.955117  0  0  0.072087  0  1.026423  0  0  0.073253  0  1.025966  0  0.003946  0  0.079793  0.071159  0  1.02691  0
H  H35  1  0.09565351  0.01138862  0.42182962  1  0  0.057996  0  0.955121  0  0  0.072083  0  1.026426  0  0  0.073247  0  1.025972  0  0.003619  0  0.079785  0.071156  0  1.026912  0
H  H36  1  0.53171974  0.58599511  0.88361960  1  0  0.101462  0  0.934228  0  0  0.11698  0  0.991394  0  0  0.119166  0  0.990334  0  0.043456  0  0.096087  0.115432  0  0.992239  0
H  H37  1  0.46828116  0.41400433  0.11638039  1  0  0.101458  0  0.934237  0  0  0.116962  0  0.991407  0  0  0.119146  0  0.990347  0  0.04345  0  0.096084  0.115415  0  0.992253  0
H  H38  1  0.62542615  0.57343308  0.98234970  1  0  0.101862  0  0.926484  0  0  0.116247  0  0.984726  0  0  0.118696  0  0.98326  0  0.041996  0  0.095362  0.114495  0  0.985928  0
H  H39  1  0.37457349  0.42656727  0.01765026  1  0  0.101762  0  0.926407  0  0  0.116143  0  0.984657  0  0  0.118591  0  0.983191  0  0.042003  0  0.095305  0.114389  0  0.985864  0
H  H40  1  0.23409255  0.99674909  0.75402003  1  0  0.08948  0  0.93599  0  0  0.099004  0  0.995964  0  0  0.101123  0  0.99452  0  0.09855  0  0.12322  0.097274  0  0.997436  0
H  H41  1  0.76590691  0.00325218  0.24597884  1  0  0.08944  0  0.936022  0  0  0.098966  0  0.995991  0  0  0.101084  0  0.994547  0  0.098546  0  0.123204  0.097238  0  0.997461  0
H  H42  1  0.38916107  0.13318657  0.56597872  1  0  0.116909  0  0.959028  0  0  0.126382  0  1.018784  0  0  0.130051  0  1.016935  0  0.126875  0  0.115559  0.123681  0  1.020298  0
H  H43  1  0.61083965  0.86681379  0.43402094  1  0  0.116942  0  0.959006  0  0  0.126397  0  1.018776  0  0  0.130068  0  1.016927  0  0.126883  0  0.115563  0.123696  0  1.020289  0
H  H44  1  0.55527457  0.21686923  0.78473071  1  0  0.121292  0  0.954349  0  0  0.129848  0  1.016837  0  0  0.134027  0  1.013358  0  0.113038  0  0.113477  0.126789  0  1.019614  0
H  H45  1  0.44472524  0.78313020  0.21527033  1  0  0.121301  0  0.954353  0  0  0.12985  0  1.016841  0  0  0.134029  0  1.013362  0  0.112771  0  0.113477  0.12679  0  1.01962  0
H  H46  1  0.39795924  0.08098034  0.95633463  1  0  0.094277  0  0.929172  0  0  0.10157  0  0.993492  0  0  0.104302  0  0.991335  0  0.123376  0  0.124529  0.099486  0  0.995216  0
H  H47  1  0.60203821  0.91902001  0.04366516  1  0  0.094328  0  0.929158  0  0  0.101623  0  0.993471  0  0  0.104354  0  0.991313  0  0.123366  0  0.124558  0.099539  0  0.995195  0
H  H48  1  0.75442389  0.50542739  0.55412741  1  0  0.07706  0  0.921948  0  0  0.088439  0  0.985573  0  0  0.092119  0  0.982178  0  0.058307  0  0.116903  0.085537  0  0.988722  0
H  H49  1  0.24557683  0.49457297  0.44587225  1  0  0.077083  0  0.92194  0  0  0.088459  0  0.985567  0  0  0.092137  0  0.982175  0  0.058309  0  0.116905  0.085556  0  0.988716  0
H  H50  1  0.95436721  0.62321053  0.46830987  1  0  0.100591  0  0.999025  0  0  0.110294  0  1.062262  0  0  0.113145  0  1.062112  0  0.071506  0  0.105122  0.108076  0  1.062919  0
H  H51  1  0.04563351  0.37678982  0.53168903  1  0  0.100582  0  0.999007  0  0  0.110284  0  1.062248  0  0  0.113135  0  1.0621  0  0.071847  0  0.105124  0.108066  0  1.062907  0
H  H52  1  0.11260623  0.76584510  0.29195277  1  0  0.085202  0  0.939276  0  0  0.092718  0  1.00226  0  0  0.095808  0  0.999513  0  0.096559  0  0.116591  0.090504  0  1.004197  0
H  H53  1  0.88739467  0.23415434  0.70804645  1  0  0.085208  0  0.939257  0  0  0.092723  0  1.002236  0  0  0.095812  0  0.99949  0  0.096561  0  0.116597  0.090509  0  1.004172  0
H  H54  1  0.95075546  0.72007324  0.06554888  1  0  0.089318  0  0.924464  0  0  0.099486  0  0.983421  0  0  0.101765  0  0.981509  0  0.085275  0  0.123559  0.097816  0  0.98482  0
H  H55  1  0.04924327  0.27992619  0.93445170  1  0  0.089304  0  0.924445  0  0  0.099477  0  0.983408  0  0  0.101757  0  0.981493  0  0.085271  0  0.123561  0.097807  0  0.984806  0
H  H56  1  0.78265273  0.57702421  0.23237381  1  0  0.122195  0  0.926175  0  0  0.131182  0  0.983415  0  0  0.135195  0  0.981439  0  0.097598  0  0.118384  0.128154  0  0.985295  0
H  H57  1  0.21734690  0.42297615  0.76762615  1  0  0.122161  0  0.92617  0  0  0.13115  0  0.983413  0  0  0.135165  0  0.981436  0  0.097608  0  0.11837  0.128123  0  0.985292  0
C  C58  1  0.92509680  0.95753318  0.85078927  1  0  0.695422  0  3.84866  0  0  0.647057  0  4.149245  0  0  0.681266  0  4.142981  0  1.534105  0  0.196344  0.623946  0  4.152301  0
C  C59  1  0.07490301  0.04246626  0.14921025  1  0  0.695389  0  3.848635  0  0  0.647015  0  4.149253  0  0  0.68122  0  4.142993  0  1.534125  0  0.196359  0.623904  0  4.15231  0
C  C60  1  0.99626623  0.87430366  0.78017896  1  0  -0.317069  0  3.65493  0  0  -0.359561  0  3.901599  0  0  -0.366099  0  3.909818  0  -0.096798  0  -0.160762  -0.355068  0  3.89603  0
C  C61  1  0.00373358  0.12569577  0.21982208  1  0  -0.317084  0  3.654992  0  0  -0.35963  0  3.901767  0  0  -0.366166  0  3.90998  0  -0.096867  0  -0.160798  -0.355131  0  3.896179  0
C  C62  1  0.89801402  0.83082979  0.74184810  1  0  0.167096  0  3.542919  0  0  0.192241  0  3.771853  0  0  0.192798  0  3.79189  0  0.058012  0  -0.015359  0.191949  0  3.757971  0
C  C63  1  0.10198579  0.16916964  0.25815142  1  0  0.167026  0  3.543024  0  0  0.192173  0  3.772024  0  0  0.192752  0  3.792001  0  0.058163  0  -0.01538  0.191882  0  3.75814  0
C  C64  1  0.77970513  0.76154385  0.84764929  1  0  -0.211699  0  3.582231  0  0  -0.252631  0  3.813623  0  0  -0.255804  0  3.829208  0  -0.041726  0  -0.162132  -0.250267  0  3.802733  0
C  C65  1  0.22029468  0.23845558  0.15234947  1  0  -0.211605  0  3.582127  0  0  -0.252623  0  3.813651  0  0  -0.255799  0  3.82923  0  -0.041393  0  -0.16213  -0.25026  0  3.802761  0
C  C66  1  0.90969253  0.69260423  0.64026392  1  0  0.037312  0  3.650978  0  0  0.036658  0  3.889126  0  0  0.036272  0  3.907395  0  0.031964  0  -0.098569  0.036983  0  3.876346  0
C  C67  1  0.09030602  0.30739613  0.35973557  1  0  0.037309  0  3.650964  0  0  0.036676  0  3.889054  0  0  0.036289  0  3.907327  0  0.031956  0  -0.098565  0.036997  0  3.876273  0
C  C68  1  0.68737641  0.71203719  0.80836250  1  0  0.165809  0  3.525892  0  0  0.193224  0  3.753515  0  0  0.193857  0  3.773174  0  0.047464  0  -0.0116  0.193006  0  3.739836  0
C  C69  1  0.31262340  0.28796224  0.19163778  1  0  0.1658  0  3.525879  0  0  0.193245  0  3.753442  0  0  0.193879  0  3.773105  0  0.047662  0  -0.011585  0.193027  0  3.739763  0
C  C70  1  0.79280145  0.62436643  0.74619357  1  0  -0.186225  0  3.633164  0  0  -0.229763  0  3.878011  0  0  -0.232096  0  3.893325  0  -0.002098  0  -0.16367  -0.227912  0  3.867289  0
C  C71  1  0.20719727  0.37563300  0.25380701  1  0  -0.18616  0  3.633102  0  0  -0.22968  0  3.87791  0  0  -0.232014  0  3.893225  0  -0.002218  0  -0.163661  -0.227825  0  3.867189  0
C  C72  1  0.99961826  0.74112907  0.68074051  1  0  -0.1895  0  3.632243  0  0  -0.234192  0  3.878604  0  0  -0.236672  0  3.893813  0  0.010739  0  -0.164234  -0.232178  0  3.867958  0
C  C73  1  0.00038137  0.25887129  0.31925869  1  0  -0.189484  0  3.632172  0  0  -0.234178  0  3.878541  0  0  -0.236662  0  3.893754  0  0.010588  0  -0.164209  -0.232161  0  3.867894  0
C  C74  1  0.61422047  0.82126482  0.71887802  1  0  -0.198061  0  3.617991  0  0  -0.240365  0  3.854403  0  0  -0.242892  0  3.869505  0  -0.025578  0  -0.167343  -0.238439  0  3.843982  0
C  C75  1  0.38577826  0.17873461  0.28112179  1  0  -0.198135  0  3.61813  0  0  -0.240409  0  3.854488  0  0  -0.242938  0  3.869593  0  -0.025635  0  -0.167374  -0.238484  0  3.844068  0
C  C76  1  0.73111886  0.88966287  0.61279529  1  0  0.040328  0  3.641128  0  0  0.042344  0  3.878649  0  0  0.042072  0  3.8964  0  -0.002494  0  -0.095596  0.042638  0  3.866348  0
C  C77  1  0.26887987  0.11033656  0.38720452  1  0  0.040306  0  3.641149  0  0  0.042286  0  3.87872  0  0  0.04201  0  3.896475  0  -0.002487  0  -0.095602  0.04258  0  3.866419  0
C  C78  1  0.83407228  0.80063082  0.55261701  1  0  -0.173917  0  3.6701  0  0  -0.221703  0  3.925066  0  0  -0.223358  0  3.939603  0  -0.016465  0  -0.170954  -0.220335  0  3.914779  0
C  C79  1  0.16592736  0.19936953  0.44738295  1  0  -0.173885  0  3.670067  0  0  -0.221642  0  3.925014  0  0  -0.223297  0  3.939553  0  -0.01644  0  -0.170914  -0.220271  0  3.914722  0
C  C80  1  0.82066672  0.93833508  0.65397778  1  0  -0.194992  0  3.622808  0  0  -0.23854  0  3.865186  0  0  -0.241163  0  3.879514  0  -0.074225  0  -0.170265  -0.236601  0  3.855295  0
C  C81  1  0.17933309  0.06166435  0.34602174  1  0  -0.19498  0  3.622856  0  0  -0.238516  0  3.86525  0  0  -0.241141  0  3.879582  0  -0.074403  0  -0.170274  -0.236578  0  3.85536  0
C  C82  1  0.57150965  0.63895105  0.91372966  1  0  -0.308385  0  3.628693  0  0  -0.349903  0  3.869691  0  0  -0.356777  0  3.878985  0  -0.027267  0  -0.163203  -0.34516  0  3.86304  0
C  C83  1  0.42849234  0.36104838  0.08627003  1  0  -0.308312  0  3.628652  0  0  -0.349787  0  3.869558  0  0  -0.356655  0  3.87885  0  -0.027277  0  -0.163148  -0.345043  0  3.862906  0
C  C84  1  0.43741915  0.71859405  0.96547394  1  0  0.693436  0  3.867444  0  0  0.651509  0  4.163606  0  0  0.685337  0  4.157873  0  1.514584  0  0.183979  0.628538  0  4.166524  0
C  C85  1  0.56257957  0.28140538  0.03452663  1  0  0.693433  0  3.867469  0  0  0.651513  0  4.163606  0  0  0.685335  0  4.157882  0  1.514572  0  0.183979  0.628542  0  4.166526  0
C  C86  1  0.30597487  0.04949101  0.75448821  1  0  0.134888  0  3.69511  0  0  0.104449  0  3.950073  0  0  0.110903  0  3.968049  0  0.52556  0  0.054752  0.100046  0  3.938204  0
C  C87  1  0.69402585  0.95050935  0.24551145  1  0  0.134912  0  3.695068  0  0  0.104476  0  3.950016  0  0  0.11093  0  3.967993  0  0.525571  0  0.054749  0.100069  0  3.938152  0
C  C88  1  0.39071996  0.12448000  0.65159164  1  0  -0.115678  0  3.702983  0  0  -0.138925  0  3.952364  0  0  -0.1441  0  3.972557  0  -0.038444  0  -0.070032  -0.135359  0  3.938995  0
C  C89  1  0.60928094  0.87551943  0.34840758  1  0  -0.115684  0  3.702919  0  0  -0.13891  0  3.952296  0  0  -0.144087  0  3.97249  0  -0.038433  0  -0.070011  -0.135344  0  3.938929  0
C  C90  1  0.48079923  0.18962956  0.65845339  1  0  -0.014208  0  3.761274  0  0  0.001277  0  3.998897  0  0  -0.000663  0  4.020673  0  -0.078631  0  0.003909  0.00262  0  3.984228  0
C  C91  1  0.51920149  0.81037079  0.34154551  1  0  -0.014214  0  3.761289  0  0  0.001249  0  3.998911  0  0  -0.000689  0  4.020688  0  -0.078656  0  0.003882  0.002591  0  3.984241  0
C  C92  1  0.48543970  0.17392588  0.76943863  1  0  -0.121572  0  3.677456  0  0  -0.146781  0  3.931204  0  0  -0.150628  0  3.948866  0  -0.004356  0  -0.070797  -0.144278  0  3.919519  0
C  C93  1  0.51455994  0.82607447  0.23056209  1  0  -0.121578  0  3.677575  0  0  -0.146768  0  3.931317  0  0  -0.150615  0  3.948977  0  -0.004099  0  -0.070784  -0.144264  0  3.919632  0
C  C94  1  0.39755303  0.09580904  0.86835905  1  0  0.149032  0  3.662002  0  0  0.117786  0  3.916949  0  0  0.124191  0  3.934324  0  0.510708  0  0.06272  0.113468  0  3.905275  0
C  C95  1  0.60244551  0.90419131  0.13164120  1  0  0.149023  0  3.662015  0  0  0.117759  0  3.91697  0  0  0.124167  0  3.93434  0  0.510722  0  0.062721  0.113443  0  3.905295  0
C  C96  1  0.56446409  0.27218304  0.54354649  1  0  0.501022  0  3.847378  0  0  0.455646  0  4.137543  0  0  0.482995  0  4.138557  0  1.381362  0  0.243386  0.43701  0  4.136534  0
C  C97  1  0.43553773  0.72781732  0.45645287  1  0  0.501067  0  3.84729  0  0  0.455719  0  4.137416  0  0  0.483062  0  4.13844  0  1.381369  0  0.243408  0.437085  0  4.136407  0
C  C98  1  0.76299587  0.50729801  0.46724870  1  0  0.018481  0  3.684066  0  0  -0.019057  0  3.961567  0  0  -0.016208  0  3.972572  0  0.622396  0  0.057624  -0.021037  0  3.954789  0
C  C99  1  0.23700630  0.49270050  0.53275206  1  0  0.018393  0  3.684131  0  0  -0.019143  0  3.961634  0  0  -0.0163  0  3.972639  0  0.622404  0  0.057592  -0.021122  0  3.954856  0
C  C100  1  0.85469086  0.58950426  0.36441223  1  0  0.101876  0  3.817099  0  0  0.115832  0  4.056669  0  0  0.119966  0  4.078724  0  -0.056962  0  0.009028  0.113279  0  4.041896  0
C  C101  1  0.14531005  0.41049517  0.63558775  1  0  0.10193  0  3.817162  0  0  0.115876  0  4.056741  0  0  0.120022  0  4.07878  0  -0.056993  0  0.009057  0.113323  0  4.041967  0
C  C102  1  0.95035684  0.64229902  0.38046712  1  0  -0.168055  0  3.728956  0  0  -0.190784  0  3.98234  0  0  -0.198927  0  4.004267  0  -0.006333  0  -0.084972  -0.18554  0  3.968129  0
C  C103  1  0.04964388  0.35770133  0.61953254  1  0  -0.168052  0  3.728977  0  0  -0.19078  0  3.982372  0  0  -0.198929  0  4.004299  0  -0.006667  0  -0.084993  -0.185537  0  3.968163  0
C  C104  1  0.03943418  0.71997008  0.28337760  1  0  0.12238  0  3.725153  0  0  0.092389  0  3.978093  0  0  0.099363  0  3.996516  0  0.474697  0  0.04538  0.087958  0  3.965589  0
C  C105  1  0.96056654  0.28003027  0.71662130  1  0  0.122351  0  3.725137  0  0  0.09237  0  3.978069  0  0  0.099343  0  3.996497  0  0.474676  0  0.04538  0.08794  0  3.965563  0
C  C106  1  0.94789050  0.69488103  0.15667333  1  0  0.142349  0  3.692439  0  0  0.110472  0  3.948839  0  0  0.118124  0  3.966257  0  0.550786  0  0.056696  0.105431  0  3.937248  0
C  C107  1  0.05210932  0.30511840  0.84332618  1  0  0.142359  0  3.692416  0  0  0.11046  0  3.948843  0  0  0.118111  0  3.966261  0  0.550819  0  0.05668  0.105417  0  3.937252  0
C  C108  1  0.85492235  0.61643814  0.24884330  1  0  -0.143928  0  3.677824  0  0  -0.166717  0  3.930783  0  0  -0.1738  0  3.95114  0  -0.014953  0  -0.07106  -0.162468  0  3.917678  0
C  C109  1  0.14507855  0.38356129  0.75115516  1  0  -0.143949  0  3.677806  0  0  -0.166736  0  3.930789  0  0  -0.173822  0  3.95114  0  -0.014948  0  -0.071082  -0.162487  0  3.917683  0
N  N110  1  0.30893602  0.03610005  0.86081445  1  0  -0.312538  0  3.25952  0  0  -0.238839  0  3.524909  0  0  -0.257526  0  3.543854  0  -1.203842  0  -0.323329  -0.225955  0  3.51199  0
N  N111  1  0.69106453  0.96390123  0.13918489  1  0  -0.312602  0  3.259474  0  0  -0.238893  0  3.524857  0  0  -0.257579  0  3.543798  0  -1.203856  0  -0.323366  -0.22601  0  3.511941  0
N  N112  1  0.62416061  0.35688253  0.55211925  1  0  -0.292694  0  3.432532  0  0  -0.243067  0  3.684916  0  0  -0.265353  0  3.699675  0  -0.796887  0  -0.279868  -0.227152  0  3.673919  0
N  N113  1  0.37583903  0.64311783  0.44788147  1  0  -0.292738  0  3.432509  0  0  -0.243138  0  3.684907  0  0  -0.265423  0  3.699664  0  -0.796899  0  -0.279892  -0.227223  0  3.673912  0
N  N114  1  0.70115002  0.43573159  0.45480776  1  0  -0.086092  0  3.112751  0  0  -0.0719  0  3.402141  0  0  -0.071611  0  3.416721  0  -0.694056  0  -0.186096  -0.07171  0  3.391848  0
N  N115  1  0.29884979  0.56426784  0.54519252  1  0  -0.086044  0  3.112765  0  0  -0.071839  0  3.402143  0  0  -0.071549  0  3.416721  0  -0.694075  0  -0.186073  -0.071649  0  3.391849  0
N  N116  1  0.03785421  0.74634029  0.17343889  1  0  -0.310955  0  3.255389  0  0  -0.236231  0  3.519741  0  0  -0.255546  0  3.538067  0  -1.20745  0  -0.324932  -0.223116  0  3.50723  0
N  N117  1  0.96214543  0.25366006  0.82656107  1  0  -0.310899  0  3.2554  0  0  -0.236167  0  3.519751  0  0  -0.25548  0  3.538075  0  -1.207449  0  -0.324895  -0.223051  0  3.507241  0
O  O118  1  0.99157945  0.95065027  0.92181894  1  0  -0.691869  0  2.053341  0  0  -0.621814  0  2.327222  0  0  -0.65406  0  2.316836  0  -1.18909  0  -0.343432  -0.599015  0  2.333292  0
O  O119  1  0.00842036  0.04934917  0.07818134  1  0  -0.691811  0  2.053303  0  0  -0.621782  0  2.327249  0  0  -0.654033  0  2.316866  0  -1.189119  0  -0.343425  -0.598985  0  2.333319  0
O  O120  1  0.80764547  0.03402771  0.83770120  1  0  -0.643305  0  1.927005  0  0  -0.583012  0  2.164078  0  0  -0.610338  0  2.154754  0  -1.178629  0  -0.330782  -0.563956  0  2.169833  0
O  O121  1  0.19235543  0.96597172  0.16229878  1  0  -0.643327  0  1.92708  0  0  -0.582986  0  2.16412  0  0  -0.610313  0  2.154799  0  -1.178638  0  -0.330778  -0.563929  0  2.169875  0
O  O122  1  0.44329787  0.76002783  0.03762172  1  0  -0.683129  0  1.867484  0  0  -0.630333  0  2.097578  0  0  -0.657461  0  2.087394  0  -1.191079  0  -0.361319  -0.611204  0  2.103913  0
O  O123  1  0.55670067  0.23997253  0.96237778  1  0  -0.683139  0  1.867466  0  0  -0.630357  0  2.097559  0  0  -0.657483  0  2.087378  0  -1.191096  0  -0.361336  -0.611227  0  2.103896  0
O  O124  1  0.32210861  0.74368771  0.93052095  1  0  -0.664812  0  1.904391  0  0  -0.605057  0  2.138501  0  0  -0.634528  0  2.128518  0  -1.159877  0  -0.35738  -0.584612  0  2.144961  0
O  O125  1  0.67789011  0.25631173  0.06947887  1  0  -0.66477  0  1.904407  0  0  -0.605029  0  2.138515  0  0  -0.634499  0  2.128537  0  -1.159841  0  -0.357354  -0.584583  0  2.144978  0
O  O126  1  0.57625649  0.26735956  0.44910008  1  0  -0.481765  0  1.885978  0  0  -0.450636  0  2.08909  0  0  -0.468372  0  2.083178  0  -1.094208  0  -0.274646  -0.438618  0  2.093423  0
O  O127  1  0.42374677  0.73263895  0.55090040  1  0  -0.481779  0  1.885942  0  0  -0.450655  0  2.089037  0  0  -0.468389  0  2.083129  0  -1.09421  0  -0.274639  -0.438637  0  2.09337  0
