# generated using pymatgen
data_Hg3H8C6(S2Cl3)2
_symmetry_space_group_name_H-M   'P 1'
_cell_length_a   6.61043374
_cell_length_b   7.24693634
_cell_length_c   9.91960889
_cell_angle_alpha   101.24493393
_cell_angle_beta   91.88766096
_cell_angle_gamma   91.37806933
_symmetry_Int_Tables_number   1
_chemical_formula_structural   Hg3H8C6(S2Cl3)2
_chemical_formula_sum   'Hg3 H8 C6 S4 Cl6'
_cell_volume   465.60200720
_cell_formula_units_Z   1
loop_
 _symmetry_equiv_pos_site_id
 _symmetry_equiv_pos_as_xyz
  1  'x, y, z'
loop_
 _atom_site_type_symbol
 _atom_site_label
 _atom_site_symmetry_multiplicity
 _atom_site_fract_x
 _atom_site_fract_y
 _atom_site_fract_z
 _atom_site_occupancy
 _atom_site_hle17_bader_spin_density
 _atom_site_hle17_ddec_charge
 _atom_site_hle17_ddec_spin_density
 _atom_site_hle17_ddec_sum_bond_order
 _atom_site_hle17_magmom
 _atom_site_hse06_10hf_bader_spin_density
 _atom_site_hse06_10hf_ddec_charge
 _atom_site_hse06_10hf_ddec_spin_density
 _atom_site_hse06_10hf_ddec_sum_bond_order
 _atom_site_hse06_10hf_magmom
 _atom_site_hse06_bader_spin_density
 _atom_site_hse06_ddec_charge
 _atom_site_hse06_ddec_spin_density
 _atom_site_hse06_ddec_sum_bond_order
 _atom_site_hse06_magmom
 _atom_site_pbe_bader_spin_density
 _atom_site_pbe_cm5_charge
 _atom_site_pbe_ddec_charge
 _atom_site_pbe_ddec_spin_density
 _atom_site_pbe_ddec_sum_bond_order
 _atom_site_pbe_magmom
Hg  Hg0  1  0.00000181  0.00001129  0.00000565  1  0  0.765062  0  2.120449  0  0  0.637152  0  2.622416  0  0  0.684211  0  2.585876  0  0  0.453268  0.605056  0  2.647003  0
Hg  Hg1  1  0.50689368  0.32098666  0.14244256  1  0  0.651635  0  2.158689  0  0  0.518111  0  2.649317  0  0  0.565497  0  2.620307  0  0  0.435672  0.485635  0  2.668695  0
Hg  Hg2  1  0.49310914  0.67903467  0.85756925  1  0  0.651667  0  2.158663  0  0  0.518142  0  2.6493  0  0  0.565529  0  2.620286  0  0  0.43567  0.485663  0  2.668686  0
H  H3  1  0.98849033  0.82979132  0.52232929  1  0  0.111647  0  0.936417  0  0  0.129338  0  0.993957  0  0  0.130004  0  0.9946  0  0  0.097608  0.128851  0  0.993607  0
H  H4  1  0.01151792  0.17020884  0.47766050  1  0  0.11166  0  0.936302  0  0  0.12937  0  0.993834  0  0  0.130036  0  0.994473  0  0  0.09765  0.128887  0  0.993472  0
H  H5  1  0.23238540  0.94542551  0.56468352  1  0  0.095727  0  0.948766  0  0  0.104427  0  1.022932  0  0  0.105734  0  1.022804  0  0  0.086691  0.103465  0  1.023127  0
H  H6  1  0.76761554  0.05458447  0.43531154  1  0  0.095728  0  0.948719  0  0  0.104423  0  1.022896  0  0  0.105728  0  1.022764  0  0  0.086685  0.103463  0  1.023092  0
H  H7  1  0.10601868  0.65288460  0.30085838  1  0  0.107418  0  0.933244  0  0  0.118633  0  0.998938  0  0  0.119459  0  0.999511  0  0  0.090268  0.11802  0  0.998641  0
H  H8  1  0.89397645  0.34707190  0.69913613  1  0  0.10744  0  0.933248  0  0  0.118708  0  0.998921  0  0  0.119542  0  0.999497  0  0  0.090302  0.118094  0  0.998623  0
H  H9  1  0.19952410  0.89007365  0.31007837  1  0  0.109466  0  0.963165  0  0  0.123998  0  1.02689  0  0  0.125092  0  1.026655  0  0  0.086917  0.123208  0  1.027149  0
H  H10  1  0.80046974  0.10989405  0.68990862  1  0  0.109472  0  0.963314  0  0  0.124082  0  1.026961  0  0  0.125182  0  1.02673  0  0  0.086986  0.123289  0  1.02722  0
C  C11  1  0.43469588  0.56633423  0.48863902  1  0  -0.112099  0  3.888446  0  0  -0.103579  0  4.176254  0  0  -0.101953  0  4.19815  0  0  -0.053705  -0.104503  0  4.160875  0
C  C12  1  0.56530348  0.43367293  0.51135662  1  0  -0.111866  0  3.888327  0  0  -0.103397  0  4.176201  0  0  -0.101768  0  4.198094  0  0  -0.053665  -0.104343  0  4.160845  0
C  C13  1  0.15208817  0.81653633  0.50995847  1  0  -0.132128  0  3.626821  0  0  -0.170166  0  3.889743  0  0  -0.169414  0  3.90079  0  0  -0.150254  -0.170666  0  3.882081  0
C  C14  1  0.84790043  0.18346234  0.49004383  1  0  -0.132089  0  3.626791  0  0  -0.17009  0  3.889689  0  0  -0.169317  0  3.900727  0  0  -0.150271  -0.170592  0  3.882019  0
C  C15  1  0.20423098  0.76702771  0.35931444  1  0  -0.13406  0  3.62502  0  0  -0.170893  0  3.883725  0  0  -0.170329  0  3.895391  0  0  -0.15187  -0.171209  0  3.875543  0
C  C16  1  0.79576602  0.23294288  0.64068410  1  0  -0.13416  0  3.625143  0  0  -0.171128  0  3.883845  0  0  -0.1706  0  3.895551  0  0  -0.151963  -0.171437  0  3.875655  0
S  S17  1  0.46440568  0.69094002  0.35595960  1  0  0.076134  0  2.518947  0  0  0.092872  0  2.86941  0  0  0.084568  0  2.871187  0  0  0.024592  0.098963  0  2.868115  0
S  S18  1  0.53559375  0.30906857  0.64404027  1  0  0.07607  0  2.51876  0  0  0.092817  0  2.869299  0  0  0.084523  0  2.871087  0  0  0.024559  0.09891  0  2.868003  0
S  S19  1  0.22467127  0.62096125  0.58949200  1  0  0.061156  0  2.575816  0  0  0.070832  0  2.941504  0  0  0.062044  0  2.943954  0  0  0.023887  0.077263  0  2.939664  0
S  S20  1  0.77533414  0.37904457  0.41050861  1  0  0.061077  0  2.575798  0  0  0.070781  0  2.941441  0  0  0.061989  0  2.943885  0  0  0.023902  0.077216  0  2.93961  0
Cl  Cl21  1  0.73211281  0.92075466  0.13308540  1  0  -0.421173  0  1.150978  0  0  -0.358744  0  1.457368  0  0  -0.380325  0  1.440914  0  0  -0.247314  -0.3441  0  1.468298  0
Cl  Cl22  1  0.26789464  0.07927092  0.86692508  1  0  -0.421144  0  1.150842  0  0  -0.358735  0  1.457276  0  0  -0.380323  0  1.440832  0  0  -0.247287  -0.34406  0  1.468136  0
Cl  Cl23  1  0.77098946  0.38301170  0.99943308  1  0  -0.396737  0  1.176352  0  0  -0.33413  0  1.490742  0  0  -0.35436  0  1.47335  0  0  -0.244384  -0.320605  0  1.502643  0
Cl  Cl24  1  0.22900270  0.61700949  0.00056741  1  0  -0.396756  0  1.176393  0  0  -0.334177  0  1.490855  0  0  -0.354409  0  1.473462  0  0  -0.244386  -0.320655  0  1.502762  0
Cl  Cl25  1  0.21836481  0.21715187  0.25033601  1  0  -0.399581  0  1.201166  0  0  -0.339339  0  1.512385  0  0  -0.358184  0  1.495653  0  0  -0.224791  -0.326921  0  1.523924  0
Cl  Cl26  1  0.78164647  0.78284420  0.74967242  1  0  -0.399565  0  1.201165  0  0  -0.339309  0  1.512343  0  0  -0.358155  0  1.495615  0  0  -0.22477  -0.32689  0  1.523881  0
