# generated using pymatgen
data_Cu3H50C46(NO3)4
_symmetry_space_group_name_H-M   'P 1'
_cell_length_a   9.69557411
_cell_length_b   10.95927918
_cell_length_c   11.99827128
_cell_angle_alpha   81.07599695
_cell_angle_beta   69.28284817
_cell_angle_gamma   76.24020605
_symmetry_Int_Tables_number   1
_chemical_formula_structural   Cu3H50C46(NO3)4
_chemical_formula_sum   'Cu3 H50 C46 N4 O12'
_cell_volume   1154.69478908
_cell_formula_units_Z   1
loop_
 _symmetry_equiv_pos_site_id
 _symmetry_equiv_pos_as_xyz
  1  'x, y, z'
loop_
 _atom_site_type_symbol
 _atom_site_label
 _atom_site_symmetry_multiplicity
 _atom_site_fract_x
 _atom_site_fract_y
 _atom_site_fract_z
 _atom_site_occupancy
 _atom_site_pbe_cm5_charge
 _atom_site_pbe_ddec_charge
 _atom_site_pbe_ddec_spin_density
 _atom_site_pbe_ddec_sum_bond_order
 _atom_site_pbe_magmom
Cu  Cu0  1  0.45180839  0.40968029  0.97697333  1  0.687589  0.85335  0.734895  2.290384  0.56
Cu  Cu1  1  0.54820275  0.59032072  0.02302855  1  0.687636  0.853311  -0.720326  2.29028  -0.56
Cu  Cu2  1  0.49999449  0.00000175  0.00000383  1  0.755279  0.751783  -0.727662  2.192773  -0.561
H  H3  1  0.69275786  0.17311215  0.00641484  1  0.322616  0.270047  6.6e-05  0.99932  0.0
H  H4  1  0.30723589  0.82688323  0.99359398  1  0.322545  0.269998  -0.000149  0.999292  0.0
H  H5  1  0.24735624  0.59272934  0.71413455  1  0.105055  0.106218  0.000278  1.029112  0.0
H  H6  1  0.75266388  0.40726129  0.28586363  1  0.105069  0.106232  -0.000359  1.029061  0.0
H  H7  1  0.19313186  0.72183291  0.53830794  1  0.097653  0.096503  -8.3e-05  1.043797  0.0
H  H8  1  0.80687821  0.27816339  0.46169580  1  0.09768  0.096591  8.8e-05  1.043695  0.0
H  H9  1  0.36824031  0.01995421  0.60368002  1  0.100114  0.102047  5.4e-05  1.013484  0.0
H  H10  1  0.63176667  0.98004681  0.39633146  1  0.100157  0.102103  -0.000163  1.01347  0.0
H  H11  1  0.42082595  0.89271365  0.77736664  1  0.105726  0.115958  -0.000236  1.040147  0.0
H  H12  1  0.57917581  0.10728077  0.22264239  1  0.105736  0.116007  0.000156  1.039988  0.0
H  H13  1  0.13306060  0.96572431  0.45424835  1  0.091213  0.127156  -1.8e-05  1.008992  0.0
H  H14  1  0.86694330  0.03426541  0.54575822  1  0.091213  0.127148  8e-06  1.009017  0.0
H  H15  1  0.27485409  0.05004361  0.44062503  1  0.091739  0.124953  -9e-06  1.030907  0.0
H  H16  1  0.72514757  0.94995553  0.55938001  1  0.09173  0.124925  -1e-05  1.03089  0.0
H  H17  1  0.32147477  0.91120335  0.36638402  1  0.09761  0.146931  -0.000109  1.002008  0.0
H  H18  1  0.67853915  0.08878635  0.63362285  1  0.097616  0.146962  -9.3e-05  1.002084  0.0
H  H19  1  0.81714136  0.26223491  0.67836020  1  0.104762  0.109361  0.000299  1.011502  0.0
H  H20  1  0.18286382  0.73777175  0.32163516  1  0.104739  0.109336  -0.00028  1.011669  0.0
H  H21  1  0.05482165  0.20600814  0.50960188  1  0.096635  0.094637  -0.0001  1.032534  0.0
H  H22  1  0.94517512  0.79399569  0.49038811  1  0.096641  0.094666  0.000109  1.032605  0.0
H  H23  1  0.21789440  0.51044154  0.57411831  1  0.09904  0.096703  8.2e-05  1.034773  0.0
H  H24  1  0.78211714  0.48956414  0.42585942  1  0.099091  0.096794  -0.000128  1.034631  0.0
H  H25  1  0.97941290  0.56665748  0.74427668  1  0.106349  0.109696  -0.000263  1.011401  0.0
H  H26  1  0.02060639  0.43334444  0.25570760  1  0.106313  0.109637  0.000273  1.011144  0.0
H  H27  1  0.37186365  0.23759985  0.45879208  1  0.087238  0.120633  1.2e-05  1.035766  0.0
H  H28  1  0.62813327  0.76239833  0.54119619  1  0.087197  0.120589  1.2e-05  1.035726  0.0
H  H29  1  0.36121941  0.39769116  0.40452812  1  0.091373  0.134287  1.5e-05  0.995142  0.0
H  H30  1  0.63878861  0.60230229  0.59545998  1  0.091376  0.134168  -2.7e-05  0.995182  0.0
H  H31  1  0.28093628  0.29841585  0.35175269  1  0.094406  0.141013  -2.3e-05  1.00608  0.0
H  H32  1  0.71906804  0.70158421  0.64823722  1  0.09442  0.140984  3e-06  1.005968  0.0
H  H33  1  0.12327871  0.12446845  0.89737527  1  0.100108  0.154292  -0.000165  0.987621  0.0
H  H34  1  0.87671221  0.87553256  0.10262024  1  0.100097  0.154272  -0.000167  0.987611  0.0
H  H35  1  0.96270445  0.20151048  0.00723986  1  0.095536  0.139534  4.3e-05  0.999473  0.0
H  H36  1  0.03728702  0.79849712  0.99275118  1  0.095498  0.139481  3.7e-05  0.999485  0.0
H  H37  1  0.00612858  0.26086824  0.85466960  1  0.092049  0.136036  0.000122  1.029587  0.0
H  H38  1  0.99386418  0.73912899  0.14532090  1  0.092082  0.136044  0.000118  1.029457  0.0
H  H39  1  0.06905566  0.95629040  0.76481196  1  0.096134  0.132579  -0.000519  1.073984  -0.001
H  H40  1  0.93092760  0.04371438  0.23518031  1  0.096109  0.132536  -0.00052  1.07401  -0.001
H  H41  1  0.79380946  0.75977105  0.85303755  1  0.099794  0.161254  0.000129  1.007127  0.0
H  H42  1  0.20617259  0.24023092  0.14696635  1  0.099736  0.161179  0.000134  1.007096  0.0
H  H43  1  0.90075773  0.81744764  0.70858636  1  0.087957  0.124471  5.4e-05  1.024081  0.0
H  H44  1  0.09923021  0.18254868  0.29142158  1  0.08794  0.124376  4.8e-05  1.024149  0.0
H  H45  1  0.70095475  0.86838584  0.76535953  1  0.097  0.139542  6.5e-05  1.015776  0.0
H  H46  1  0.29903831  0.13161141  0.23464089  1  0.097008  0.139486  7.6e-05  1.015778  0.0
H  H47  1  0.29943012  0.35197577  0.77675337  1  0.099144  0.159294  -0.000676  1.002608  -0.001
H  H48  1  0.70056837  0.64804974  0.22323958  1  0.099108  0.159289  -0.000698  1.002772  -0.001
H  H49  1  0.36384008  0.21804428  0.68862186  1  0.09185  0.143628  -3.3e-05  1.014007  0.0
H  H50  1  0.63609497  0.78195681  0.31140308  1  0.091843  0.143559  -4.1e-05  1.014192  0.0
H  H51  1  0.49273728  0.30685967  0.69553073  1  0.101314  0.160286  -9.9e-05  0.982113  0.0
H  H52  1  0.50726096  0.69311305  0.30445254  1  0.101285  0.160327  -7.3e-05  0.982197  0.0
C  C53  1  0.38339060  0.64912875  0.85339729  1  0.215828  0.566492  -0.000503  4.166478  -0.001
C  C54  1  0.61662545  0.35086566  0.14660574  1  0.215759  0.566362  0.000592  4.166653  0.001
C  C55  1  0.33824422  0.73303105  0.75642399  1  -0.023153  -0.050935  0.000725  3.988746  0.001
C  C56  1  0.66176772  0.26695772  0.24358362  1  -0.023064  -0.050932  -0.000692  3.988939  -0.001
C  C57  1  0.27259822  0.68687621  0.68875848  1  -0.08216  -0.084599  -0.000699  3.979206  -0.001
C  C58  1  0.72742342  0.31311820  0.31124536  1  -0.082207  -0.084512  0.000659  3.979227  0.001
C  C59  1  0.24356330  0.75916856  0.59061366  1  -0.096356  -0.160869  -0.000304  3.972286  0.0
C  C60  1  0.75644395  0.24083057  0.40939218  1  -0.096441  -0.161073  0.000328  3.972531  0.0
C  C61  1  0.27920832  0.87957680  0.55698145  1  -0.002217  0.178404  -0.000239  3.974908  0.0
C  C62  1  0.72080415  0.12042422  0.44302753  1  -0.002291  0.178295  0.000206  3.974682  0.0
C  C63  1  0.34169061  0.92591663  0.62694148  1  -0.092105  -0.15434  0.000367  3.963522  0.001
C  C64  1  0.65831290  0.07407968  0.37306591  1  -0.09224  -0.154429  -0.000629  3.963485  -0.001
C  C65  1  0.37098391  0.85421483  0.72572822  1  -0.080276  -0.086843  0.00034  3.965752  0.001
C  C66  1  0.62902638  0.14578148  0.27428294  1  -0.080203  -0.086871  -0.000661  3.966144  -0.001
C  C67  1  0.25060179  0.95572625  0.44941267  1  -0.237709  -0.419494  -0.000137  3.949006  0.0
C  C68  1  0.74940559  0.04426817  0.55059799  1  -0.237653  -0.41943  -0.000129  3.948971  0.0
C  C69  1  0.74133039  0.45024765  0.82284393  1  0.211172  0.566086  8.7e-05  4.179191  0.0
C  C70  1  0.25868511  0.54975901  0.17716163  1  0.211366  0.566346  3.7e-05  4.179366  0.0
C  C71  1  0.88321882  0.41863768  0.72077950  1  -0.022215  -0.043691  0.000405  3.982854  0.0
C  C72  1  0.11679292  0.58136426  0.27921290  1  -0.022255  -0.043689  -0.000345  3.982773  0.0
C  C73  1  0.90525798  0.31685296  0.65424672  1  -0.085567  -0.093885  -0.000654  3.998567  -0.001
C  C74  1  0.09475386  0.68315369  0.34574829  1  -0.08553  -0.093808  0.00064  3.998206  0.001
C  C75  1  0.03869428  0.28547091  0.56069470  1  -0.095574  -0.155944  -0.000408  3.976711  0.0
C  C76  1  0.96130387  0.71453293  0.43930404  1  -0.095587  -0.156007  0.000457  3.976537  0.001
C  C77  1  0.15323493  0.35472324  0.53052406  1  -0.001926  0.185299  -3.1e-05  3.969651  0.0
C  C78  1  0.84676747  0.64527963  0.46946103  1  -0.001991  0.185207  8e-06  3.969535  0.0
C  C79  1  0.12949478  0.45615357  0.59760555  1  -0.093344  -0.154579  0.00043  3.983216  0.001
C  C80  1  0.87052169  0.54384552  0.40237416  1  -0.093377  -0.154666  -0.000493  3.983252  -0.001
C  C81  1  0.99685613  0.48818524  0.69183570  1  -0.081914  -0.086198  0.000726  3.974514  0.001
C  C82  1  0.00315756  0.51183176  0.30815305  1  -0.081814  -0.086125  -0.000749  3.974755  -0.001
C  C83  1  0.29861981  0.32080794  0.43110995  1  -0.241409  -0.424474  -6e-06  3.961506  0.0
C  C84  1  0.70139181  0.67918833  0.56887165  1  -0.241325  -0.424203  -2e-06  3.961387  0.0
C  C85  1  0.41636645  0.18780258  0.85331628  1  0.201896  0.67843  0.000611  4.127023  0.004
C  C86  1  0.58359964  0.81220599  0.14668899  1  0.202128  0.678564  0.001339  4.126778  0.005
C  C87  1  0.00630779  0.17452273  0.91495961  1  -0.233468  -0.425121  -0.000528  3.925506  -0.001
C  C88  1  0.99368351  0.82548111  0.08503370  1  -0.233448  -0.425043  -0.00052  3.925267  -0.001
C  C89  1  0.91602623  0.09199908  0.89607454  1  0.102393  0.263109  -0.000159  3.994777  -0.001
C  C90  1  0.08396213  0.90800383  0.10392480  1  0.102319  0.26298  -0.000233  3.994923  -0.001
C  C91  1  0.95691937  0.99321566  0.82285562  1  -0.127023  -0.360442  -0.002373  3.949013  -0.003
C  C92  1  0.04306936  0.00679007  0.17714070  1  -0.127037  -0.360351  -0.002358  3.949318  -0.003
C  C93  1  0.82459356  0.94964261  0.84092321  1  0.098524  0.269292  -0.000957  4.018116  -0.002
C  C94  1  0.17538913  0.05036125  0.15907938  1  0.098526  0.269269  -0.001023  4.018126  -0.002
C  C95  1  0.80428887  0.84303680  0.78891269  1  -0.239712  -0.445961  -0.000146  3.948537  0.0
C  C96  1  0.19570044  0.15696233  0.21108859  1  -0.239646  -0.445673  -5.8e-05  3.948404  0.0
C  C97  1  0.38984146  0.27052630  0.74678707  1  -0.244293  -0.518224  -0.007716  3.882979  -0.008
C  C98  1  0.61013225  0.72947004  0.25322851  1  -0.244231  -0.51812  -0.007707  3.88294  -0.008
N  N99  1  0.70887520  0.01921268  0.92061078  1  -0.285291  -0.234886  -0.048888  3.52431  -0.062
N  N100  1  0.29111637  0.98078174  0.07939217  1  -0.285307  -0.235049  -0.048857  3.524207  -0.062
N  N101  1  0.76609808  0.10349514  0.95366988  1  -0.285786  -0.14383  -0.00185  3.665835  -0.002
N  N102  1  0.23388356  0.89650966  0.04634206  1  -0.285613  -0.14364  -0.002211  3.665904  -0.002
O  O103  1  0.40299183  0.23565055  0.94690851  1  -0.33415  -0.591064  -0.002144  2.298093  -0.004
O  O104  1  0.59695554  0.76436842  0.05310924  1  -0.334186  -0.59107  -0.000925  2.298572  -0.004
O  O105  1  0.45512841  0.06791575  0.84410509  1  -0.323809  -0.554066  -0.080782  2.245523  -0.112
O  O106  1  0.54485468  0.93210226  0.15590948  1  -0.323869  -0.55411  -0.080503  2.245192  -0.112
O  O107  1  0.36560216  0.53583445  0.86762523  1  -0.303003  -0.50665  0.057211  2.354068  0.078
O  O108  1  0.63444176  0.46414862  0.13236601  1  -0.30296  -0.506519  -0.056142  2.354162  -0.078
O  O109  1  0.64342552  0.38257021  0.84195088  1  -0.314175  -0.526917  0.059784  2.384054  0.081
O  O110  1  0.35659928  0.61740820  0.15807102  1  -0.314148  -0.52696  -0.058516  2.384361  -0.081
O  O111  1  0.27085256  0.45904709  0.11681471  1  -0.312649  -0.524078  0.055157  2.358338  0.075
O  O112  1  0.72916831  0.54096708  0.88316895  1  -0.312432  -0.523812  -0.054017  2.358445  -0.075
O  O113  1  0.55873220  0.30281859  0.08671926  1  -0.308455  -0.53658  0.049698  2.409436  0.067
O  O114  1  0.44125815  0.69717302  0.91329531  1  -0.308461  -0.536559  -0.048658  2.409565  -0.068
