# generated using pymatgen
data_ZnH8C4(NO3)2
_symmetry_space_group_name_H-M   'P 1'
_cell_length_a   7.54461957
_cell_length_b   7.98097722
_cell_length_c   8.29494341
_cell_angle_alpha   90.00074114
_cell_angle_beta   116.42074595
_cell_angle_gamma   89.99928832
_symmetry_Int_Tables_number   1
_chemical_formula_structural   ZnH8C4(NO3)2
_chemical_formula_sum   'Zn2 H16 C8 N4 O12'
_cell_volume   447.29807019
_cell_formula_units_Z   2
loop_
 _symmetry_equiv_pos_site_id
 _symmetry_equiv_pos_as_xyz
  1  'x, y, z'
loop_
 _atom_site_type_symbol
 _atom_site_label
 _atom_site_symmetry_multiplicity
 _atom_site_fract_x
 _atom_site_fract_y
 _atom_site_fract_z
 _atom_site_occupancy
 _atom_site_pbe_bader_spin_density
 _atom_site_pbe_cm5_charge
 _atom_site_pbe_ddec_charge
 _atom_site_pbe_ddec_spin_density
 _atom_site_pbe_ddec_sum_bond_order
 _atom_site_pbe_magmom
Zn  Zn0  1  0.99999896  0.50000137  0.50000023  1  0  0.665448  0.918169  0  2.283267  0
Zn  Zn1  1  0.50000148  0.00000126  0.99999893  1  0  0.665337  0.918205  0  2.28347  0
H  H2  1  0.52921084  0.45252407  0.35969212  1  0  0.30041  0.309104  0  0.98048  0
H  H3  1  0.97078692  0.95252140  0.14031054  1  0  0.300459  0.30914  0  0.980385  0
H  H4  1  0.47079051  0.54747458  0.64031027  1  0  0.30042  0.309105  0  0.980495  0
H  H5  1  0.02921292  0.04747725  0.85968521  1  0  0.300463  0.309164  0  0.980409  0
H  H6  1  0.38826574  0.36737094  0.13880276  1  0  0.297244  0.315025  0  0.992056  0
H  H7  1  0.11173470  0.86736548  0.36119927  1  0  0.297229  0.314968  0  0.991912  0
H  H8  1  0.61173413  0.63262896  0.86119903  1  0  0.297231  0.315015  0  0.992048  0
H  H9  1  0.88826810  0.13263192  0.63879767  1  0  0.297258  0.315054  0  0.991906  0
H  H10  1  0.09918168  0.37022971  0.17846944  1  0  0.127021  0.047665  0  0.957976  0
H  H11  1  0.40081132  0.87022906  0.32152724  1  0  0.127065  0.047828  0  0.957962  0
H  H12  1  0.90081968  0.62976894  0.82153416  1  0  0.127014  0.047616  0  0.958012  0
H  H13  1  0.59918852  0.12976959  0.67846852  1  0  0.127051  0.047806  0  0.957971  0
H  H14  1  0.27932653  0.23513329  0.68190822  1  0  0.109121  0.019014  0  1.030061  0
H  H15  1  0.22068710  0.73512846  0.81809247  1  0  0.109145  0.019034  0  1.030108  0
H  H16  1  0.72067185  0.76487162  0.31809177  1  0  0.109102  0.019017  0  1.030061  0
H  H17  1  0.77931424  0.26487520  0.18190871  1  0  0.109153  0.01904  0  1.030092  0
C  C18  1  0.23934946  0.41221322  0.29041327  1  0  0.185309  0.460384  0  4.108316  0
C  C19  1  0.26064924  0.91221021  0.20961033  1  0  0.185472  0.460377  0  4.1078  0
C  C20  1  0.76065190  0.58778418  0.70959033  1  0  0.185355  0.460532  0  4.108331  0
C  C21  1  0.73935208  0.08778844  0.79038602  1  0  0.185534  0.46052  0  4.107628  0
C  C22  1  0.28597715  0.30834311  0.79768104  1  0  0.141179  0.491612  0  4.18228  0
C  C23  1  0.21401069  0.80834056  0.70230901  1  0  0.14103  0.49141  0  4.18263  0
C  C24  1  0.71401979  0.69165804  0.20232319  1  0  0.141171  0.491492  0  4.182444  0
C  C25  1  0.78599064  0.19166184  0.29768975  1  0  0.141026  0.491432  0  4.182625  0
N  N26  1  0.39586560  0.41346631  0.25861605  1  0  -0.553997  -0.557986  0  3.377836  0
N  N27  1  0.10414028  0.91346809  0.24137668  1  0  -0.55396  -0.557821  0  3.378105  0
N  N28  1  0.60413427  0.58653360  0.74138574  1  0  -0.553988  -0.558004  0  3.377811  0
N  N29  1  0.89586102  0.08652930  0.75861845  1  0  -0.554013  -0.557997  0  3.378142  0
O  O30  1  0.18227938  0.44006548  0.76719363  1  0  -0.32326  -0.517388  0  2.356673  0
O  O31  1  0.31772659  0.94007841  0.73281256  1  0  -0.323336  -0.517532  0  2.356438  0
O  O32  1  0.81771461  0.55993191  0.23281183  1  0  -0.323245  -0.517302  0  2.356694  0
O  O33  1  0.68227326  0.05992400  0.26718682  1  0  -0.323325  -0.517527  0  2.356475  0
O  O34  1  0.39668370  0.25345800  0.95484095  1  0  -0.31205  -0.518223  0  2.383821  0
O  O35  1  0.10332541  0.75346718  0.54517021  1  0  -0.311846  -0.51791  0  2.384356  0
O  O36  1  0.60331321  0.74654065  0.04515845  1  0  -0.312032  -0.518187  0  2.383878  0
O  O37  1  0.89667740  0.24653272  0.45482915  1  0  -0.311866  -0.517969  0  2.384356  0
O  O38  1  0.24432559  0.45653958  0.43867257  1  0  -0.303686  -0.508287  0  2.395875  0
O  O39  1  0.25567843  0.95654968  0.06131633  1  0  -0.303947  -0.508583  0  2.394823  0
O  O40  1  0.75567429  0.54345656  0.56133044  1  0  -0.303719  -0.508362  0  2.395972  0
O  O41  1  0.74432290  0.04345398  0.93868243  1  0  -0.303976  -0.508651  0  2.394765  0
