# generated using pymatgen
data_KYbH8(CO3)4
_symmetry_space_group_name_H-M   'P 1'
_cell_length_a   8.74616940
_cell_length_b   9.14889983
_cell_length_c   9.14896173
_cell_angle_alpha   76.79189574
_cell_angle_beta   61.44481650
_cell_angle_gamma   61.44469231
_symmetry_Int_Tables_number   1
_chemical_formula_structural   KYbH8(CO3)4
_chemical_formula_sum   'K2 Yb2 H16 C8 O24'
_cell_volume   564.80733052
_cell_formula_units_Z   2
loop_
 _symmetry_equiv_pos_site_id
 _symmetry_equiv_pos_as_xyz
  1  'x, y, z'
loop_
 _atom_site_type_symbol
 _atom_site_label
 _atom_site_symmetry_multiplicity
 _atom_site_fract_x
 _atom_site_fract_y
 _atom_site_fract_z
 _atom_site_occupancy
 _atom_site_hle17_bader_spin_density
 _atom_site_hle17_ddec_charge
 _atom_site_hle17_ddec_spin_density
 _atom_site_hle17_ddec_sum_bond_order
 _atom_site_hle17_magmom
 _atom_site_hse06_10hf_bader_spin_density
 _atom_site_hse06_10hf_ddec_charge
 _atom_site_hse06_10hf_ddec_spin_density
 _atom_site_hse06_10hf_ddec_sum_bond_order
 _atom_site_hse06_10hf_magmom
 _atom_site_hse06_bader_spin_density
 _atom_site_hse06_ddec_charge
 _atom_site_hse06_ddec_spin_density
 _atom_site_hse06_ddec_sum_bond_order
 _atom_site_hse06_magmom
 _atom_site_pbe_bader_spin_density
 _atom_site_pbe_cm5_charge
 _atom_site_pbe_ddec_charge
 _atom_site_pbe_ddec_spin_density
 _atom_site_pbe_ddec_sum_bond_order
 _atom_site_pbe_magmom
C  C0  1  0.39441384  0.51882456  0.52854160  1  0  0.57526  0  3.920955  0  0  0.530953  0  4.220482  0  0  0.561451  0  4.209783  0  0  0.225481  0.510302  0  4.226918  0
C  C1  1  0.41324303  0.02853061  0.48117980  1  0  0.575224  0  3.921107  0  0  0.530936  0  4.22056  0  0  0.561436  0  4.209859  0  0  0.225579  0.510289  0  4.226995  0
C  C2  1  0.94177518  0.98118103  0.97146305  1  0  0.575195  0  3.921266  0  0  0.530893  0  4.220762  0  0  0.561381  0  4.210073  0  0  0.225502  0.510243  0  4.227199  0
C  C3  1  0.42295463  0.47146660  0.01881927  1  0  0.575149  0  3.921165  0  0  0.530895  0  4.220595  0  0  0.56139  0  4.209898  0  0  0.225556  0.510244  0  4.227033  0
C  C4  1  0.60557338  0.48118338  0.47146935  1  0  0.575314  0  3.920958  0  0  0.530938  0  4.220521  0  0  0.561437  0  4.209822  0  0  0.225455  0.510288  0  4.226959  0
C  C5  1  0.58676069  0.97146488  0.51881746  1  0  0.575413  0  3.920869  0  0  0.531042  0  4.220452  0  0  0.561543  0  4.209747  0  0  0.225636  0.510393  0  4.226891  0
C  C6  1  0.05822458  0.01881571  0.02853173  1  0  0.575334  0  3.921009  0  0  0.530973  0  4.220547  0  0  0.561474  0  4.209846  0  0  0.22552  0.510324  0  4.226987  0
C  C7  1  0.57704067  0.52853636  0.98118048  1  0  0.575405  0  3.920918  0  0  0.530994  0  4.220544  0  0  0.561495  0  4.209842  0  0  0.225618  0.510343  0  4.226983  0
H  H8  1  0.83264573  0.67389075  0.17101797  1  0  0.427141  0  0.869307  0  0  0.39813  0  0.929562  0  0  0.408268  0  0.914696  0  0  0.28839  0.390938  0  0.940099  0
H  H9  1  0.00653536  0.67102307  0.32610528  1  0  0.427155  0  0.86926  0  0  0.398123  0  0.929557  0  0  0.408262  0  0.914688  0  0  0.288375  0.390932  0  0.940093  0
H  H10  1  0.17755891  0.82610513  0.32898210  1  0  0.427123  0  0.869324  0  0  0.398098  0  0.929612  0  0  0.408237  0  0.914745  0  0  0.288381  0.390905  0  0.940151  0
H  H11  1  0.50366502  0.82898197  0.17389067  1  0  0.427032  0  0.869477  0  0  0.398068  0  0.929664  0  0  0.408206  0  0.914798  0  0  0.288365  0.390875  0  0.940202  0
H  H12  1  0.16735488  0.32610972  0.82898053  1  0  0.427147  0  0.869292  0  0  0.398139  0  0.929545  0  0  0.408275  0  0.914683  0  0  0.288394  0.390948  0  0.940081  0
H  H13  1  0.99346400  0.32897865  0.67389447  1  0  0.427221  0  0.869178  0  0  0.398193  0  0.929464  0  0  0.408331  0  0.914598  0  0  0.288385  0.391  0  0.940002  0
H  H14  1  0.82244335  0.17389534  0.67101765  1  0  0.427055  0  0.869431  0  0  0.398076  0  0.929645  0  0  0.408214  0  0.914779  0  0  0.28837  0.390882  0  0.940184  0
H  H15  1  0.49633382  0.17101850  0.82610908  1  0  0.427142  0  0.869328  0  0  0.39814  0  0.929568  0  0  0.408276  0  0.914706  0  0  0.2884  0.390947  0  0.940106  0
H  H16  1  0.75989317  0.59113720  0.09843674  1  0  0.412037  0  0.891216  0  0  0.38437  0  0.950675  0  0  0.394818  0  0.935159  0  0  0.295082  0.376993  0  0.961618  0
H  H17  1  0.85102988  0.59843415  0.40886473  1  0  0.412043  0  0.891237  0  0  0.384377  0  0.950697  0  0  0.394824  0  0.935183  0  0  0.295063  0.376999  0  0.961639  0
H  H18  1  0.94946440  0.90886355  0.40156762  1  0  0.412017  0  0.891283  0  0  0.384351  0  0.950739  0  0  0.394798  0  0.935226  0  0  0.29508  0.376974  0  0.96168  0
H  H19  1  0.35832705  0.90156954  0.09113676  1  0  0.412067  0  0.891187  0  0  0.3844  0  0.950645  0  0  0.394849  0  0.93513  0  0  0.29506  0.377023  0  0.961587  0
H  H20  1  0.24010847  0.40886327  0.90156426  1  0  0.412056  0  0.891181  0  0  0.38439  0  0.95064  0  0  0.394836  0  0.935127  0  0  0.295088  0.377012  0  0.961585  0
H  H21  1  0.14896895  0.40156632  0.59113502  1  0  0.412039  0  0.891242  0  0  0.384372  0  0.950703  0  0  0.39482  0  0.935188  0  0  0.295058  0.376994  0  0.961647  0
H  H22  1  0.05053859  0.09113443  0.59843088  1  0  0.412058  0  0.891234  0  0  0.384393  0  0.950687  0  0  0.394839  0  0.935176  0  0  0.295094  0.377015  0  0.961628  0
H  H23  1  0.64167407  0.09843342  0.90886051  1  0  0.412064  0  0.891193  0  0  0.384398  0  0.950651  0  0  0.394847  0  0.935134  0  0  0.295057  0.37702  0  0.961594  0
K  K24  1  0.87500403  0.75000055  0.74999182  1  0  0.929454  0  0.462288  0  0  0.88309  0  0.640112  0  0  0.898536  0  0.615772  0  0  0.779577  0.871063  0  0.658098  0
K  K25  1  0.12499210  0.24999494  0.25000917  1  0  0.929473  0  0.462244  0  0  0.883113  0  0.640071  0  0  0.898567  0  0.615722  0  0  0.779541  0.871076  0  0.658062  0
O  O26  1  0.26955420  0.62466604  0.64276835  1  0  -0.649539  0  2.117386  0  0  -0.610659  0  2.366874  0  0  -0.63372  0  2.358586  0  0  -0.411408  -0.594313  0  2.372076  0
O  O27  1  0.39423112  0.14275065  0.37534089  1  0  -0.649431  0  2.117598  0  0  -0.610592  0  2.367114  0  0  -0.633647  0  2.358827  0  0  -0.411277  -0.594249  0  2.372317  0
O  O28  1  0.03698773  0.87533329  0.85724208  1  0  -0.649421  0  2.117391  0  0  -0.610593  0  2.366975  0  0  -0.63365  0  2.358692  0  0  -0.411338  -0.59425  0  2.372179  0
O  O29  1  0.41231615  0.35725186  0.12466598  1  0  -0.649417  0  2.117621  0  0  -0.610583  0  2.367117  0  0  -0.633637  0  2.358832  0  0  -0.411265  -0.594237  0  2.372319  0
O  O30  1  0.73042866  0.37534314  0.35725006  1  0  -0.64944  0  2.11749  0  0  -0.610612  0  2.367129  0  0  -0.633669  0  2.358841  0  0  -0.411327  -0.594266  0  2.372333  0
O  O31  1  0.60577884  0.85723862  0.62466383  1  0  -0.649566  0  2.117314  0  0  -0.610694  0  2.366866  0  0  -0.633752  0  2.358574  0  0  -0.411381  -0.59435  0  2.372073  0
O  O32  1  0.96302159  0.12465972  0.14274647  1  0  -0.649434  0  2.117476  0  0  -0.610613  0  2.367119  0  0  -0.633665  0  2.358829  0  0  -0.411323  -0.59427  0  2.372324  0
O  O33  1  0.58768228  0.64275981  0.87533252  1  0  -0.649517  0  2.1173  0  0  -0.610667  0  2.366945  0  0  -0.633729  0  2.358659  0  0  -0.411346  -0.594319  0  2.37215  0
O  O34  1  0.36515123  0.43874599  0.45532272  1  0  -0.663806  0  2.104027  0  0  -0.618661  0  2.343084  0  0  -0.643662  0  2.334966  0  0  -0.369065  -0.600953  0  2.348107  0
O  O35  1  0.30388025  0.95532294  0.56126305  1  0  -0.663933  0  2.103951  0  0  -0.618773  0  2.342995  0  0  -0.643783  0  2.334878  0  0  -0.369067  -0.601067  0  2.348016  0
O  O36  1  0.75921054  0.06126304  0.04467547  1  0  -0.663856  0  2.104216  0  0  -0.618711  0  2.343296  0  0  -0.643708  0  2.335184  0  0  -0.369229  -0.601005  0  2.348319  0
O  O37  1  0.32047304  0.54466921  0.93873123  1  0  -0.66386  0  2.103979  0  0  -0.618736  0  2.343063  0  0  -0.643744  0  2.334949  0  0  -0.369063  -0.601027  0  2.348082  0
O  O38  1  0.63485593  0.56126444  0.54467329  1  0  -0.663915  0  2.10384  0  0  -0.618744  0  2.342962  0  0  -0.643755  0  2.334848  0  0  -0.36912  -0.601036  0  2.347983  0
O  O39  1  0.69610322  0.04468251  0.43874417  1  0  -0.663898  0  2.104049  0  0  -0.618745  0  2.343159  0  0  -0.643747  0  2.335038  0  0  -0.369064  -0.60104  0  2.348181  0
O  O40  1  0.24079889  0.93872997  0.95532428  1  0  -0.66392  0  2.103876  0  0  -0.618769  0  2.343027  0  0  -0.643782  0  2.334917  0  0  -0.369258  -0.601062  0  2.348047  0
O  O41  1  0.67952505  0.45532006  0.06125607  1  0  -0.663919  0  2.104077  0  0  -0.618734  0  2.343178  0  0  -0.64373  0  2.335048  0  0  -0.369065  -0.601028  0  2.348203  0
O  O42  1  0.75631340  0.69769470  0.10851333  1  0  -0.857751  0  1.796267  0  0  -0.80606  0  1.946233  0  0  -0.824697  0  1.915916  0  0  -0.620092  -0.792796  0  1.967415  0
O  O43  1  0.95400675  0.60851569  0.30230312  1  0  -0.857803  0  1.796238  0  0  -0.806086  0  1.94621  0  0  -0.824731  0  1.9159  0  0  -0.620123  -0.792808  0  1.967365  0
O  O44  1  0.06252270  0.80230201  0.39148399  1  0  -0.857759  0  1.796337  0  0  -0.806036  0  1.946294  0  0  -0.824679  0  1.915977  0  0  -0.620091  -0.792765  0  1.967467  0
O  O45  1  0.36482178  0.89148182  0.19769833  1  0  -0.857729  0  1.796375  0  0  -0.806045  0  1.946289  0  0  -0.824686  0  1.915972  0  0  -0.620091  -0.792765  0  1.967451  0
O  O46  1  0.24369312  0.30230452  0.89148144  1  0  -0.857806  0  1.796204  0  0  -0.806108  0  1.946172  0  0  -0.824746  0  1.915862  0  0  -0.62011  -0.792837  0  1.967338  0
O  O47  1  0.04599209  0.39148602  0.69769538  1  0  -0.857844  0  1.796168  0  0  -0.806136  0  1.946149  0  0  -0.824774  0  1.915832  0  0  -0.620113  -0.792869  0  1.967332  0
O  O48  1  0.93748009  0.19769597  0.60851949  1  0  -0.857757  0  1.796379  0  0  -0.806061  0  1.946291  0  0  -0.824702  0  1.915978  0  0  -0.620103  -0.792785  0  1.967464  0
O  O49  1  0.63517539  0.10851616  0.80230266  1  0  -0.857798  0  1.796263  0  0  -0.806109  0  1.946225  0  0  -0.824746  0  1.915908  0  0  -0.620137  -0.792838  0  1.967406  0
Yb  Yb50  1  0.37500787  0.74999601  0.74999890  1  0  2.097239  0  1.812148  0  0  2.004788  0  2.173843  0  0  2.051836  0  2.140564  0  0  1.586649  1.968406  0  2.201293  0
Yb  Yb51  1  0.62500115  0.25000445  0.25000334  1  0  2.097261  0  1.812078  0  0  2.004891  0  2.173645  0  0  2.051893  0  2.140429  0  0  1.586699  1.968504  0  2.201101  0
