# generated using pymatgen
data_CaH10(CO)8
_symmetry_space_group_name_H-M   'P 1'
_cell_length_a   6.57103101
_cell_length_b   9.23973477
_cell_length_c   18.68432117
_cell_angle_alpha   89.99993562
_cell_angle_beta   90.00013345
_cell_angle_gamma   105.69159953
_symmetry_Int_Tables_number   1
_chemical_formula_structural   CaH10(CO)8
_chemical_formula_sum   'Ca4 H40 C32 O32'
_cell_volume   1092.13289103
_cell_formula_units_Z   4
loop_
 _symmetry_equiv_pos_site_id
 _symmetry_equiv_pos_as_xyz
  1  'x, y, z'
loop_
 _atom_site_type_symbol
 _atom_site_label
 _atom_site_symmetry_multiplicity
 _atom_site_fract_x
 _atom_site_fract_y
 _atom_site_fract_z
 _atom_site_occupancy
 _atom_site_hle17_bader_spin_density
 _atom_site_hle17_ddec_charge
 _atom_site_hle17_ddec_spin_density
 _atom_site_hle17_ddec_sum_bond_order
 _atom_site_hle17_magmom
 _atom_site_hse06_10hf_bader_spin_density
 _atom_site_hse06_10hf_ddec_charge
 _atom_site_hse06_10hf_ddec_spin_density
 _atom_site_hse06_10hf_ddec_sum_bond_order
 _atom_site_hse06_10hf_magmom
 _atom_site_hse06_bader_spin_density
 _atom_site_hse06_ddec_charge
 _atom_site_hse06_ddec_spin_density
 _atom_site_hse06_ddec_sum_bond_order
 _atom_site_hse06_magmom
 _atom_site_pbe_bader_spin_density
 _atom_site_pbe_cm5_charge
 _atom_site_pbe_ddec_charge
 _atom_site_pbe_ddec_spin_density
 _atom_site_pbe_ddec_sum_bond_order
 _atom_site_pbe_magmom
Ca  Ca0  1  0.59633190  0.81017607  0.48525823  1  0  1.534596  0  1.060121  0  0  1.406767  0  1.39147  0  0  1.449572  0  1.349013  0  0  0.852843  1.374847  0  1.421362  0
Ca  Ca1  1  0.90366903  0.18982481  0.98525905  1  0  1.534585  0  1.060125  0  0  1.406759  0  1.39149  0  0  1.449555  0  1.349035  0  0  0.852825  1.374831  0  1.421389  0
Ca  Ca2  1  0.40367031  0.18982493  0.51474187  1  0  1.534611  0  1.060111  0  0  1.406776  0  1.39147  0  0  1.449575  0  1.349014  0  0  0.852822  1.374849  0  1.421366  0
Ca  Ca3  1  0.09633083  0.81017393  0.01474105  1  0  1.53458  0  1.060141  0  0  1.406748  0  1.391501  0  0  1.449546  0  1.349048  0  0  0.852831  1.374822  0  1.421404  0
H  H4  1  0.43566540  0.35314066  0.80131366  1  0  0.404232  0  0.791026  0  0  0.394136  0  0.831418  0  0  0.401207  0  0.824646  0  0  0.355746  0.38888  0  0.836798  0
H  H5  1  0.06433513  0.64686011  0.30131290  1  0  0.404194  0  0.791045  0  0  0.394098  0  0.831436  0  0  0.40117  0  0.824664  0  0  0.35573  0.388843  0  0.836816  0
H  H6  1  0.56433528  0.64686033  0.19868751  1  0  0.404229  0  0.790976  0  0  0.394131  0  0.831368  0  0  0.401199  0  0.824596  0  0  0.355707  0.388876  0  0.836749  0
H  H7  1  0.93566361  0.35313975  0.69868612  1  0  0.404238  0  0.791026  0  0  0.394138  0  0.831417  0  0  0.401209  0  0.824645  0  0  0.355742  0.38888  0  0.836799  0
H  H8  1  0.26452251  0.52435718  0.49320922  1  0  0.427175  0  0.865002  0  0  0.399373  0  0.927966  0  0  0.410078  0  0.912197  0  0  0.305103  0.391695  0  0.939287  0
H  H9  1  0.23547648  0.47564447  0.99321079  1  0  0.427123  0  0.865064  0  0  0.399316  0  0.92805  0  0  0.41002  0  0.912283  0  0  0.305062  0.391639  0  0.93937  0
H  H10  1  0.73547471  0.47564267  0.50678820  1  0  0.427124  0  0.865073  0  0  0.399318  0  0.928045  0  0  0.410022  0  0.912278  0  0  0.305062  0.391641  0  0.939366  0
H  H11  1  0.76452379  0.52435539  0.00678930  1  0  0.427106  0  0.86509  0  0  0.399303  0  0.928068  0  0  0.410007  0  0.912299  0  0  0.305051  0.391625  0  0.939388  0
H  H12  1  0.18417291  0.59647975  0.42558294  1  0  0.424194  0  0.867514  0  0  0.394492  0  0.928209  0  0  0.404557  0  0.913313  0  0  0.305982  0.387285  0  0.938913  0
H  H13  1  0.31582639  0.40351974  0.92558463  1  0  0.424242  0  0.867458  0  0  0.394548  0  0.928133  0  0  0.404613  0  0.913233  0  0  0.305999  0.387342  0  0.938835  0
H  H14  1  0.81582736  0.40352011  0.57441448  1  0  0.424221  0  0.867498  0  0  0.39453  0  0.928163  0  0  0.404595  0  0.913264  0  0  0.305978  0.387324  0  0.938866  0
H  H15  1  0.68417347  0.59647900  0.07441493  1  0  0.424277  0  0.867402  0  0  0.394565  0  0.928114  0  0  0.40463  0  0.913218  0  0  0.306006  0.387359  0  0.938818  0
H  H16  1  0.83434707  0.96903691  0.73875853  1  0  0.116715  0  0.929279  0  0  0.122817  0  0.994326  0  0  0.128079  0  0.989326  0  0  0.109788  0.118831  0  0.998439  0
H  H17  1  0.66565288  0.03096537  0.23875822  1  0  0.116725  0  0.929281  0  0  0.122818  0  0.994333  0  0  0.128079  0  0.989334  0  0  0.109782  0.118834  0  0.998447  0
H  H18  1  0.16564752  0.03096404  0.26124049  1  0  0.116702  0  0.929263  0  0  0.122798  0  0.994318  0  0  0.128059  0  0.989321  0  0  0.109786  0.118815  0  0.998429  0
H  H19  1  0.33434892  0.96903450  0.76124294  1  0  0.116691  0  0.929288  0  0  0.122796  0  0.994339  0  0  0.128056  0  0.98934  0  0  0.10978  0.118811  0  0.998447  0
H  H20  1  0.63862496  0.66586414  0.91642300  1  0  0.130749  0  0.958875  0  0  0.138797  0  1.022947  0  0  0.143313  0  1.019115  0  0  0.119217  0.135584  0  1.02562  0
H  H21  1  0.86137335  0.33413905  0.41642323  1  0  0.130731  0  0.958842  0  0  0.138768  0  1.022938  0  0  0.143283  0  1.019106  0  0  0.119187  0.135554  0  1.025612  0
H  H22  1  0.36137267  0.33413683  0.08357709  1  0  0.130759  0  0.958853  0  0  0.13881  0  1.022928  0  0  0.143324  0  1.019103  0  0  0.119198  0.135598  0  1.025601  0
H  H23  1  0.13863274  0.66586422  0.58357740  1  0  0.130727  0  0.958872  0  0  0.138773  0  1.022953  0  0  0.143289  0  1.019121  0  0  0.119189  0.135557  0  1.025636  0
H  H24  1  0.53831592  0.49988764  0.69966212  1  0  0.109943  0  0.954605  0  0  0.118192  0  1.021535  0  0  0.123057  0  1.016833  0  0  0.108648  0.114613  0  1.025168  0
H  H25  1  0.96168756  0.50011248  0.19966180  1  0  0.109955  0  0.954578  0  0  0.118213  0  1.021506  0  0  0.123068  0  1.016815  0  0  0.108647  0.114632  0  1.02514  0
H  H26  1  0.46169157  0.50011116  0.30033904  1  0  0.109966  0  0.954564  0  0  0.118226  0  1.021487  0  0  0.123077  0  1.016798  0  0  0.108651  0.114644  0  1.025121  0
H  H27  1  0.03830508  0.49988734  0.80033829  1  0  0.109932  0  0.954599  0  0  0.118207  0  1.021503  0  0  0.123056  0  1.016818  0  0  0.108664  0.114629  0  1.025133  0
H  H28  1  0.56523923  0.50101902  0.41256527  1  0  0.428783  0  0.882218  0  0  0.394516  0  0.951817  0  0  0.405891  0  0.935315  0  0  0.299472  0.386418  0  0.963556  0
H  H29  1  0.93476046  0.49897970  0.91256594  1  0  0.428731  0  0.882299  0  0  0.394442  0  0.951939  0  0  0.405815  0  0.935438  0  0  0.299431  0.386342  0  0.963681  0
H  H30  1  0.43476104  0.49898084  0.58743375  1  0  0.428748  0  0.882267  0  0  0.394479  0  0.951873  0  0  0.405852  0  0.935374  0  0  0.299448  0.38638  0  0.963613  0
H  H31  1  0.06523939  0.50101905  0.08743416  1  0  0.428741  0  0.882276  0  0  0.394466  0  0.951889  0  0  0.405839  0  0.935391  0  0  0.299442  0.386367  0  0.96363  0
H  H32  1  0.79920171  0.61450538  0.40245954  1  0  0.423024  0  0.872025  0  0  0.390137  0  0.93995  0  0  0.400289  0  0.924859  0  0  0.305608  0.382908  0  0.950689  0
H  H33  1  0.70079640  0.38549334  0.90245953  1  0  0.422946  0  0.872098  0  0  0.390111  0  0.939941  0  0  0.400261  0  0.924854  0  0  0.305616  0.382889  0  0.950666  0
H  H34  1  0.20079898  0.38549561  0.59754002  1  0  0.423063  0  0.871942  0  0  0.390152  0  0.939937  0  0  0.400304  0  0.924845  0  0  0.305611  0.382919  0  0.950683  0
H  H35  1  0.29920304  0.61450428  0.09754056  1  0  0.422995  0  0.871991  0  0  0.390128  0  0.939931  0  0  0.400279  0  0.924842  0  0  0.305615  0.382905  0  0.950659  0
H  H36  1  0.07818637  0.85112676  0.49136846  1  0  0.428609  0  0.861708  0  0  0.401607  0  0.922492  0  0  0.411384  0  0.908149  0  0  0.310859  0.394541  0  0.932891  0
H  H37  1  0.42181289  0.14887153  0.99136878  1  0  0.428634  0  0.86166  0  0  0.401624  0  0.922479  0  0  0.411401  0  0.908135  0  0  0.310853  0.394556  0  0.932874  0
H  H38  1  0.92181501  0.14887199  0.50863110  1  0  0.42865  0  0.861643  0  0  0.401636  0  0.922463  0  0  0.411412  0  0.908121  0  0  0.310858  0.394567  0  0.932862  0
H  H39  1  0.57818585  0.85112833  0.00863131  1  0  0.428633  0  0.861668  0  0  0.401621  0  0.922485  0  0  0.411398  0  0.908142  0  0  0.310848  0.394552  0  0.932885  0
H  H40  1  0.04617092  0.94090597  0.42473929  1  0  0.435698  0  0.861437  0  0  0.406907  0  0.921903  0  0  0.417319  0  0.906448  0  0  0.307521  0.39942  0  0.93302  0
H  H41  1  0.45382838  0.05909352  0.92473916  1  0  0.435685  0  0.861457  0  0  0.406894  0  0.921924  0  0  0.417305  0  0.906469  0  0  0.307516  0.399405  0  0.933043  0
H  H42  1  0.95382935  0.05909389  0.57526080  1  0  0.435694  0  0.86144  0  0  0.406906  0  0.921901  0  0  0.417318  0  0.906446  0  0  0.307527  0.399418  0  0.933019  0
H  H43  1  0.54617148  0.94090522  0.07526094  1  0  0.435693  0  0.861447  0  0  0.406907  0  0.921903  0  0  0.417318  0  0.906449  0  0  0.307528  0.39942  0  0.933021  0
C  C44  1  0.68743280  0.73780118  0.71126168  1  0  -0.047759  0  3.781516  0  0  -0.019719  0  4.012834  0  0  -0.027462  0  4.037674  0  0  -0.015015  -0.014596  0  3.995875  0
C  C45  1  0.81256616  0.26219889  0.21126244  1  0  -0.047844  0  3.78167  0  0  -0.019706  0  4.012857  0  0  -0.027448  0  4.037696  0  0  -0.015015  -0.014583  0  3.995895  0
C  C46  1  0.31256512  0.26219643  0.28873841  1  0  -0.047756  0  3.781515  0  0  -0.019657  0  4.012734  0  0  -0.027402  0  4.037574  0  0  -0.014974  -0.014543  0  3.995794  0
C  C47  1  0.18743106  0.73780096  0.78873872  1  0  -0.047738  0  3.78145  0  0  -0.019662  0  4.012768  0  0  -0.027406  0  4.037603  0  0  -0.014987  -0.014555  0  3.995854  0
C  C48  1  0.76305139  0.85641215  0.75905630  1  0  -0.062443  0  3.675859  0  0  -0.102893  0  3.929346  0  0  -0.101467  0  3.947896  0  0  -0.071782  -0.103608  0  3.917059  0
C  C49  1  0.73694937  0.14358787  0.25905653  1  0  -0.062444  0  3.675921  0  0  -0.102904  0  3.929379  0  0  -0.101473  0  3.947919  0  0  -0.071766  -0.10361  0  3.917101  0
C  C50  1  0.23694472  0.14358880  0.24094326  1  0  -0.062478  0  3.675957  0  0  -0.102935  0  3.929456  0  0  -0.101506  0  3.948001  0  0  -0.071819  -0.103637  0  3.917186  0
C  C51  1  0.26305354  0.85641089  0.74094464  1  0  -0.062422  0  3.67582  0  0  -0.102887  0  3.929319  0  0  -0.10146  0  3.947872  0  0  -0.071802  -0.103592  0  3.917039  0
C  C52  1  0.74678545  0.83021946  0.83274108  1  0  -0.043402  0  3.741829  0  0  -0.01886  0  3.97943  0  0  -0.026234  0  4.001876  0  0  -0.011243  -0.014478  0  3.964768  0
C  C53  1  0.75321502  0.16978272  0.33274130  1  0  -0.043386  0  3.741839  0  0  -0.018864  0  3.979466  0  0  -0.026236  0  4.00191  0  0  -0.011246  -0.01451  0  3.964847  0
C  C54  1  0.25320913  0.16978149  0.16725795  1  0  -0.043286  0  3.741611  0  0  -0.01877  0  3.97925  0  0  -0.026138  0  4.001686  0  0  -0.011183  -0.014437  0  3.96466  0
C  C55  1  0.24678954  0.83022054  0.66725933  1  0  -0.043384  0  3.74168  0  0  -0.018849  0  3.979273  0  0  -0.026221  0  4.00171  0  0  -0.011196  -0.014497  0  3.964657  0
C  C56  1  0.65188177  0.68564023  0.85885816  1  0  -0.160672  0  3.655193  0  0  -0.198419  0  3.913052  0  0  -0.199145  0  3.929859  0  0  -0.085591  -0.19738  0  3.901649  0
C  C57  1  0.84811885  0.31436192  0.35885785  1  0  -0.160552  0  3.655134  0  0  -0.198317  0  3.912982  0  0  -0.199043  0  3.92979  0  0  -0.085541  -0.197276  0  3.901596  0
C  C58  1  0.34811697  0.31435963  0.14114140  1  0  -0.160736  0  3.655078  0  0  -0.198487  0  3.912967  0  0  -0.199217  0  3.929777  0  0  -0.08561  -0.197442  0  3.901589  0
C  C59  1  0.15188377  0.68564021  0.64114224  1  0  -0.160592  0  3.655171  0  0  -0.198337  0  3.91302  0  0  -0.199062  0  3.929825  0  0  -0.085567  -0.197295  0  3.901631  0
C  C60  1  0.57744425  0.56832582  0.81066000  1  0  0.300608  0  3.818845  0  0  0.290854  0  4.095316  0  0  0.298025  0  4.112599  0  0  0.071514  0.285624  0  4.083516  0
C  C61  1  0.92255569  0.43167526  0.31065915  1  0  0.300398  0  3.818939  0  0  0.290728  0  4.095303  0  0  0.297902  0  4.112584  0  0  0.071486  0.2855  0  4.083503  0
C  C62  1  0.42255561  0.43167292  0.18934063  1  0  0.300707  0  3.818791  0  0  0.290959  0  4.095246  0  0  0.298123  0  4.112532  0  0  0.071559  0.285731  0  4.083445  0
C  C63  1  0.07744347  0.56832572  0.68933934  1  0  0.300511  0  3.81891  0  0  0.290771  0  4.095359  0  0  0.297942  0  4.112639  0  0  0.071482  0.285542  0  4.083557  0
C  C64  1  0.59568169  0.59245353  0.73718770  1  0  -0.199919  0  3.748931  0  0  -0.237066  0  4.010351  0  0  -0.238761  0  4.029097  0  0  -0.09827  -0.23558  0  3.997626  0
C  C65  1  0.90432089  0.40754766  0.23718792  1  0  -0.199875  0  3.748977  0  0  -0.237083  0  4.010344  0  0  -0.238769  0  4.029086  0  0  -0.098282  -0.235598  0  3.997624  0
C  C66  1  0.40432122  0.40754524  0.26281239  1  0  -0.200012  0  3.748826  0  0  -0.237182  0  4.010217  0  0  -0.238876  0  4.028986  0  0  -0.098319  -0.235693  0  3.997489  0
C  C67  1  0.09567674  0.59245331  0.76281217  1  0  -0.199924  0  3.748899  0  0  -0.237106  0  4.010308  0  0  -0.23879  0  4.029064  0  0  -0.098306  -0.235619  0  3.997579  0
C  C68  1  0.69578612  0.76641201  0.63236291  1  0  0.646482  0  3.934508  0  0  0.594155  0  4.230649  0  0  0.626636  0  4.226035  0  0  0.208347  0.572071  0  4.233062  0
C  C69  1  0.80421392  0.23358816  0.13236367  1  0  0.646604  0  3.934438  0  0  0.594228  0  4.230602  0  0  0.626706  0  4.225992  0  0  0.208375  0.572144  0  4.233018  0
C  C70  1  0.30421415  0.23358786  0.36763772  1  0  0.646391  0  3.934665  0  0  0.594061  0  4.230776  0  0  0.626542  0  4.226168  0  0  0.208289  0.571977  0  4.233189  0
C  C71  1  0.19578359  0.76640833  0.86763749  1  0  0.646503  0  3.934338  0  0  0.594106  0  4.230573  0  0  0.626585  0  4.22596  0  0  0.2083  0.572021  0  4.232977  0
C  C72  1  0.83006497  0.95591193  0.88473976  1  0  0.65868  0  3.911867  0  0  0.609815  0  4.204104  0  0  0.643524  0  4.197412  0  0  0.21082  0.586972  0  4.207856  0
C  C73  1  0.66993539  0.04408907  0.38473944  1  0  0.658752  0  3.911759  0  0  0.609889  0  4.203998  0  0  0.643596  0  4.19731  0  0  0.210889  0.587054  0  4.207757  0
C  C74  1  0.16993267  0.04408904  0.11525980  1  0  0.658792  0  3.911687  0  0  0.60993  0  4.203938  0  0  0.643637  0  4.197246  0  0  0.210867  0.5871  0  4.207697  0
C  C75  1  0.33007139  0.95591196  0.61526012  1  0  0.658771  0  3.911694  0  0  0.609923  0  4.203932  0  0  0.64363  0  4.197237  0  0  0.210796  0.587089  0  4.20769  0
O  O76  1  0.62058979  0.65561006  0.58984919  1  0  -0.706095  0  2.029688  0  0  -0.637486  0  2.264361  0  0  -0.665753  0  2.256844  0  0  -0.358495  -0.617424  0  2.269025  0
O  O77  1  0.87940779  0.34439238  0.08985103  1  0  -0.706157  0  2.029595  0  0  -0.637555  0  2.264319  0  0  -0.665807  0  2.256768  0  0  -0.358517  -0.61749  0  2.268977  0
O  O78  1  0.37941048  0.34438981  0.41015091  1  0  -0.706037  0  2.029716  0  0  -0.637447  0  2.264413  0  0  -0.665702  0  2.256869  0  0  -0.35847  -0.617376  0  2.269056  0
O  O79  1  0.12059055  0.65560635  0.91015067  1  0  -0.706051  0  2.029627  0  0  -0.637395  0  2.264296  0  0  -0.665663  0  2.25679  0  0  -0.358424  -0.617345  0  2.268994  0
O  O80  1  0.76846100  0.89886433  0.60860127  1  0  -0.669997  0  1.982703  0  0  -0.613428  0  2.212325  0  0  -0.638942  0  2.20396  0  0  -0.325725  -0.595221  0  2.217532  0
O  O81  1  0.73153932  0.10113699  0.10860098  1  0  -0.670038  0  1.982704  0  0  -0.613446  0  2.21232  0  0  -0.638964  0  2.203967  0  0  -0.325729  -0.59524  0  2.21753  0
O  O82  1  0.23154039  0.10113443  0.39139990  1  0  -0.669959  0  1.982777  0  0  -0.613386  0  2.21238  0  0  -0.638902  0  2.204016  0  0  -0.3257  -0.595178  0  2.217588  0
O  O83  1  0.26845748  0.89886173  0.89139965  1  0  -0.670062  0  1.98262  0  0  -0.613453  0  2.212244  0  0  -0.638968  0  2.203886  0  0  -0.325743  -0.595241  0  2.217452  0
O  O84  1  0.89472292  0.09001684  0.86303413  1  0  -0.651874  0  1.856168  0  0  -0.604096  0  2.068118  0  0  -0.627488  0  2.05777  0  0  -0.357418  -0.587813  0  2.075252  0
O  O85  1  0.60527885  0.90998419  0.36303434  1  0  -0.6519  0  1.856045  0  0  -0.604124  0  2.067995  0  0  -0.627516  0  2.057649  0  0  -0.357474  -0.587841  0  2.075127  0
O  O86  1  0.10526556  0.90998407  0.13696596  1  0  -0.651907  0  1.856036  0  0  -0.604123  0  2.067976  0  0  -0.627521  0  2.057639  0  0  -0.357434  -0.587838  0  2.075107  0
O  O87  1  0.39473792  0.09001915  0.63696683  1  0  -0.651905  0  1.856013  0  0  -0.604134  0  2.067958  0  0  -0.627531  0  2.057615  0  0  -0.357355  -0.58785  0  2.075091  0
O  O88  1  0.82934400  0.92128745  0.95211069  1  0  -0.778455  0  2.016974  0  0  -0.709426  0  2.255107  0  0  -0.738445  0  2.246076  0  0  -0.383174  -0.688658  0  2.260425  0
O  O89  1  0.67065563  0.07871459  0.45211089  1  0  -0.778528  0  2.01701  0  0  -0.709477  0  2.25511  0  0  -0.7385  0  2.246081  0  0  -0.383178  -0.688709  0  2.260426  0
O  O90  1  0.17065405  0.07871465  0.04788887  1  0  -0.778525  0  2.016962  0  0  -0.709506  0  2.255129  0  0  -0.738527  0  2.246099  0  0  -0.38318  -0.688736  0  2.260441  0
O  O91  1  0.32934963  0.92128643  0.54788974  1  0  -0.778502  0  2.016917  0  0  -0.70948  0  2.255037  0  0  -0.738499  0  2.246005  0  0  -0.383186  -0.688712  0  2.260352  0
O  O92  1  0.48460290  0.42666278  0.83934287  1  0  -0.532064  0  2.136222  0  0  -0.468535  0  2.330792  0  0  -0.485261  0  2.319312  0  0  -0.330882  -0.456713  0  2.339029  0
O  O93  1  0.01539522  0.57333904  0.33934265  1  0  -0.531942  0  2.136235  0  0  -0.468413  0  2.330778  0  0  -0.485144  0  2.319298  0  0  -0.33085  -0.456591  0  2.339018  0
O  O94  1  0.51539890  0.57333709  0.16065776  1  0  -0.532112  0  2.136132  0  0  -0.468556  0  2.330692  0  0  -0.485271  0  2.319207  0  0  -0.330862  -0.456736  0  2.338933  0
O  O95  1  0.98460242  0.42666193  0.66065691  1  0  -0.532076  0  2.136196  0  0  -0.468515  0  2.33076  0  0  -0.485243  0  2.319281  0  0  -0.330869  -0.456683  0  2.338996  0
O  O96  1  0.25614084  0.62045274  0.47167081  1  0  -0.859346  0  1.834029  0  0  -0.806243  0  2.012945  0  0  -0.825617  0  1.981067  0  0  -0.61315  -0.792312  0  2.035525  0
O  O97  1  0.24385456  0.37954779  0.97167244  1  0  -0.85935  0  1.834048  0  0  -0.806249  0  2.013002  0  0  -0.82561  0  1.981109  0  0  -0.613113  -0.792317  0  2.035582  0
O  O98  1  0.74385485  0.37954709  0.52832715  1  0  -0.859329  0  1.834107  0  0  -0.806218  0  2.013051  0  0  -0.825582  0  1.981158  0  0  -0.6131  -0.792288  0  2.035632  0
O  O99  1  0.75614530  0.62045096  0.02832765  1  0  -0.859367  0  1.834019  0  0  -0.806259  0  2.01296  0  0  -0.825625  0  1.981063  0  0  -0.613115  -0.792325  0  2.03554  0
O  O100  1  0.67210582  0.59096201  0.43229895  1  0  -0.884211  0  1.905853  0  0  -0.824474  0  2.098108  0  0  -0.846483  0  2.06571  0  0  -0.611408  -0.808545  0  2.120635  0
O  O101  1  0.82789245  0.40903668  0.93229904  1  0  -0.884069  0  1.90592  0  0  -0.82434  0  2.098248  0  0  -0.846348  0  2.065852  0  0  -0.611388  -0.808408  0  2.120777  0
O  O102  1  0.32789445  0.40903786  0.56770061  1  0  -0.88421  0  1.905785  0  0  -0.824458  0  2.098055  0  0  -0.846467  0  2.065661  0  0  -0.611388  -0.808525  0  2.120586  0
O  O103  1  0.17210588  0.59096205  0.06770106  1  0  -0.884144  0  1.905851  0  0  -0.8244  0  2.098196  0  0  -0.84641  0  2.065801  0  0  -0.611397  -0.808468  0  2.120724  0
O  O104  1  0.97364402  0.85293909  0.45383257  1  0  -0.873238  0  1.799151  0  0  -0.821943  0  1.972532  0  0  -0.841887  0  1.942233  0  0  -0.609315  -0.807377  0  1.993952  0
O  O105  1  0.52635479  0.14706070  0.95383254  1  0  -0.873249  0  1.799088  0  0  -0.821964  0  1.972479  0  0  -0.841909  0  1.94218  0  0  -0.609313  -0.807393  0  1.99391  0
O  O106  1  0.02635625  0.14706078  0.54616752  1  0  -0.873274  0  1.799073  0  0  -0.821975  0  1.97246  0  0  -0.84192  0  1.942163  0  0  -0.609323  -0.807403  0  1.993887  0
O  O107  1  0.47364548  0.85293917  0.04616755  1  0  -0.87325  0  1.799086  0  0  -0.821964  0  1.972471  0  0  -0.841906  0  1.942173  0  0  -0.609315  -0.80739  0  1.9939  0
