# generated using pymatgen
data_AgH4C6N2O3
_symmetry_space_group_name_H-M   'P 1'
_cell_length_a   4.92010093
_cell_length_b   7.40821874
_cell_length_c   19.28858907
_cell_angle_alpha   89.99989081
_cell_angle_beta   90.00006000
_cell_angle_gamma   103.26975690
_symmetry_Int_Tables_number   1
_chemical_formula_structural   AgH4C6N2O3
_chemical_formula_sum   'Ag4 H16 C24 N8 O12'
_cell_volume   684.28192408
_cell_formula_units_Z   4
loop_
 _symmetry_equiv_pos_site_id
 _symmetry_equiv_pos_as_xyz
  1  'x, y, z'
loop_
 _atom_site_type_symbol
 _atom_site_label
 _atom_site_symmetry_multiplicity
 _atom_site_fract_x
 _atom_site_fract_y
 _atom_site_fract_z
 _atom_site_occupancy
 _atom_site_pbe_bader_spin_density
 _atom_site_pbe_cm5_charge
 _atom_site_pbe_ddec_charge
 _atom_site_pbe_ddec_spin_density
 _atom_site_pbe_ddec_sum_bond_order
 _atom_site_pbe_magmom
Ag  Ag0  1  0.27019609  0.21654352  0.33796610  1  0  0.47205  0.460438  0  1.709015  0
Ag  Ag1  1  0.22980136  0.28345993  0.83796687  1  0  0.472059  0.460425  0  1.709067  0
Ag  Ag2  1  0.72979757  0.78344440  0.66203217  1  0  0.472047  0.460409  0  1.709116  0
Ag  Ag3  1  0.77019953  0.71654880  0.16203296  1  0  0.472039  0.460415  0  1.709067  0
H  H4  1  0.33576348  0.73225050  0.33192868  1  0  0.105149  0.11346  0  1.030702  0
H  H5  1  0.16424226  0.76775074  0.83192996  1  0  0.105132  0.113472  0  1.030747  0
H  H6  1  0.66423163  0.26774159  0.66807115  1  0  0.105176  0.113464  0  1.030755  0
H  H7  1  0.83576532  0.23225382  0.16806987  1  0  0.105123  0.113425  0  1.030825  0
H  H8  1  0.78174906  0.97254949  0.32865418  1  0  0.102735  0.117102  0  1.062107  0
H  H9  1  0.71825995  0.52745261  0.82865513  1  0  0.102689  0.116985  0  1.062123  0
H  H10  1  0.21825107  0.02744536  0.67134513  1  0  0.102732  0.117086  0  1.062084  0
H  H11  1  0.28174559  0.47255195  0.17134470  1  0  0.102732  0.117091  0  1.062092  0
H  H12  1  0.57910988  0.33088096  0.44697667  1  0  0.097607  0.105813  0  1.067316  0
H  H13  1  0.92089267  0.16912144  0.94697653  1  0  0.09761  0.105815  0  1.067332  0
H  H14  1  0.42087689  0.66912223  0.55302472  1  0  0.09759  0.105815  0  1.067256  0
H  H15  1  0.07912110  0.83087757  0.05302589  1  0  0.097583  0.105781  0  1.067327  0
H  H16  1  0.15751537  0.58090504  0.44240128  1  0  0.104234  0.110556  0  0.995935  0
H  H17  1  0.34249508  0.91910260  0.94240302  1  0  0.104218  0.110503  0  0.995975  0
H  H18  1  0.84248050  0.41910092  0.55759855  1  0  0.104217  0.110532  0  0.996009  0
H  H19  1  0.65751918  0.08089779  0.05759784  1  0  0.104207  0.110534  0  0.995963  0
C  C20  1  0.45462205  0.77362952  0.37928881  1  0  -0.079801  -0.04611  0  3.949761  0
C  C21  1  0.04538225  0.72637287  0.87928957  1  0  -0.079826  -0.046216  0  3.949948  0
C  C22  1  0.54536589  0.22636534  0.62071362  1  0  -0.079872  -0.046227  0  3.949728  0
C  C23  1  0.95462735  0.27363168  0.12071233  1  0  -0.079797  -0.046123  0  3.949821  0
C  C24  1  0.70129163  0.90593711  0.37730161  1  0  -0.090603  -0.166626  0  3.943283  0
C  C25  1  0.79871392  0.59406615  0.87730253  1  0  -0.090538  -0.166448  0  3.94318  0
C  C26  1  0.29869680  0.09405914  0.62269822  1  0  -0.0906  -0.16656  0  3.943231  0
C  C27  1  0.20129520  0.40593701  0.12269782  1  0  -0.090623  -0.166617  0  3.943153  0
C  C28  1  0.85812684  0.95742412  0.43890021  1  0  0.116546  0.171518  0  3.986368  0
C  C29  1  0.64187838  0.54257747  0.93890112  1  0  0.116639  0.171612  0  3.98623  0
C  C30  1  0.14187164  0.04257767  0.56109859  1  0  0.116583  0.171676  0  3.986171  0
C  C31  1  0.35812978  0.45742293  0.06109819  1  0  0.116587  0.171581  0  3.986082  0
C  C32  1  0.24568107  0.13115729  0.49643391  1  0  0.118779  0.167469  0  3.990798  0
C  C33  1  0.25431580  0.36884264  0.99643411  1  0  0.118765  0.167544  0  3.990719  0
C  C34  1  0.75430426  0.86884175  0.50356592  1  0  0.118868  0.167658  0  3.99053  0
C  C35  1  0.74569845  0.63115775  0.00356623  1  0  0.118839  0.167616  0  3.990676  0
C  C36  1  0.50274326  0.26642311  0.49633073  1  0  -0.093684  -0.167542  0  3.964726  0
C  C37  1  0.99725283  0.23357767  0.99633109  1  0  -0.093672  -0.167601  0  3.96479  0
C  C38  1  0.49723752  0.73357454  0.50366910  1  0  -0.093774  -0.167707  0  3.964706  0
C  C39  1  0.00276191  0.76642410  0.00367029  1  0  -0.093727  -0.167642  0  3.964606  0
C  C40  1  0.35248462  0.68668390  0.44293837  1  0  -0.079533  -0.048187  0  3.948751  0
C  C41  1  0.14752187  0.81331819  0.94293910  1  0  -0.079535  -0.048156  0  3.948654  0
C  C42  1  0.64749916  0.31331652  0.55706146  1  0  -0.07954  -0.048234  0  3.948675  0
C  C43  1  0.85249490  0.18668358  0.05706177  1  0  -0.079545  -0.048209  0  3.948719  0
N  N44  1  0.10138681  0.08711030  0.43680435  1  0  -0.315136  -0.251662  0  3.520675  0
N  N45  1  0.39861804  0.41288990  0.93680404  1  0  -0.315175  -0.251724  0  3.520535  0
N  N46  1  0.89860819  0.91288733  0.56319859  1  0  -0.315067  -0.251702  0  3.520343  0
N  N47  1  0.60139563  0.58711466  0.06319734  1  0  -0.315056  -0.251637  0  3.520336  0
N  N48  1  0.79659229  0.48358027  0.29350559  1  0  0.092798  0.698904  0  4.388327  0
N  N49  1  0.70340689  0.01642009  0.79350655  1  0  0.092794  0.698767  0  4.388302  0
N  N50  1  0.20339255  0.51641738  0.70649216  1  0  0.092726  0.698582  0  4.388227  0
N  N51  1  0.29659769  0.98358169  0.20649173  1  0  0.092781  0.698792  0  4.388312  0
O  O52  1  0.54161949  0.47381600  0.27748158  1  0  -0.187182  -0.426487  0  2.153267  0
O  O53  1  0.95838778  0.02618442  0.77748467  1  0  -0.187184  -0.426422  0  2.153198  0
O  O54  1  0.45837764  0.52617608  0.72251566  1  0  -0.187179  -0.426329  0  2.153235  0
O  O55  1  0.04161873  0.97382291  0.22251516  1  0  -0.187193  -0.42641  0  2.153275  0
O  O56  1  0.85612797  0.39298100  0.34475148  1  0  -0.189178  -0.444959  0  2.061525  0
O  O57  1  0.64386272  0.10701773  0.84475339  1  0  -0.189148  -0.44489  0  2.061513  0
O  O58  1  0.14385532  0.60701803  0.65524472  1  0  -0.189178  -0.444855  0  2.06137  0
O  O59  1  0.35613325  0.89298268  0.15524489  1  0  -0.189166  -0.444905  0  2.061438  0
O  O60  1  0.48736702  0.08484975  0.24246049  1  0  -0.17477  -0.393674  0  2.089131  0
O  O61  1  0.01262266  0.41515000  0.74246266  1  0  -0.174719  -0.39357  0  2.089081  0
O  O62  1  0.51264221  0.91514787  0.75753779  1  0  -0.174836  -0.393701  0  2.089113  0
O  O63  1  0.98735754  0.58485181  0.25753976  1  0  -0.174801  -0.393708  0  2.089147  0
