# generated using pymatgen
data_Zn4H25C49N5O17
_symmetry_space_group_name_H-M   'P 1'
_cell_length_a   19.16619845
_cell_length_b   19.22207741
_cell_length_c   19.52459750
_cell_angle_alpha   89.93194587
_cell_angle_beta   85.22870918
_cell_angle_gamma   85.53452251
_symmetry_Int_Tables_number   1
_chemical_formula_structural   Zn4H25C49N5O17
_chemical_formula_sum   'Zn4 H25 C49 N5 O17'
_cell_volume   7146.35047592
_cell_formula_units_Z   1
loop_
 _symmetry_equiv_pos_site_id
 _symmetry_equiv_pos_as_xyz
  1  'x, y, z'
loop_
 _atom_site_type_symbol
 _atom_site_label
 _atom_site_symmetry_multiplicity
 _atom_site_fract_x
 _atom_site_fract_y
 _atom_site_fract_z
 _atom_site_occupancy
 _atom_site_pbe_bader_charge
 _atom_site_pbe_bader_spin_density
 _atom_site_pbe_cm5_charge
 _atom_site_pbe_ddec_charge
 _atom_site_pbe_ddec_spin_density
 _atom_site_pbe_ddec_sum_bond_order
 _atom_site_pbe_magmom
Zn  Zn0  1  0.43939564  0.56099907  0.44214851  1  1.318312  0  0.674934  0.967018  0  2.351372  0
Zn  Zn1  1  0.44228971  0.44728035  0.56276080  1  1.310509  0  0.676662  0.968399  0  2.378101  0
Zn  Zn2  1  0.55288455  0.56333675  0.55299302  1  1.318388  0  0.678244  0.975492  0  2.358154  0
Zn  Zn3  1  0.56550696  0.43814928  0.44250098  1  1.31538  0  0.672229  0.967497  0  2.35817  0
H  H4  1  0.39720934  0.53185828  0.23528675  1  0.144411  0  0.119998  0.130772  0  0.983373  0
H  H5  1  0.55266561  0.77542030  0.56921136  1  0.087329  0  0.110171  0.116947  0  0.988776  0
H  H6  1  0.22188569  0.56708301  0.42414247  1  0.145387  0  0.117058  0.128098  0  0.985919  0
H  H7  1  0.91615192  0.43491865  0.39516320  1  0.102467  0  0.11446  0.11957  0  0.981072  0
H  H8  1  0.78443317  0.43166586  0.40078818  1  0.105443  0  0.110624  0.115867  0  0.989005  0
H  H9  1  0.22736691  0.46408837  0.61997130  1  0.112559  0  0.114932  0.12165  0  0.979413  0
H  H10  1  0.89596568  0.55998280  0.57912014  1  0.098704  0  0.109879  0.113721  0  1.001637  0
H  H11  1  0.09547043  0.46478183  0.62842243  1  0.086232  0  0.113863  0.120776  0  0.980183  0
H  H12  1  0.76429219  0.56073678  0.58205281  1  0.099708  0  0.111754  0.118194  0  0.985778  0
H  H13  1  0.45647645  0.54880601  0.00813331  1  0.096805  0  0.115787  0.115244  0  0.983145  0
H  H14  1  0.59740698  0.39849727  0.10410216  1  0.064193  0  0.10687  0.107936  0  0.99236  0
H  H15  1  0.37927568  0.55410146  0.90268884  1  0.088363  0  0.122527  0.129878  0  0.966992  0
H  H16  1  0.59293470  0.46326009  0.89100559  1  0.100513  0  0.11392  0.111422  0  1.000141  0
H  H17  1  0.59818279  0.41460574  0.23023778  1  0.115716  0  0.114767  0.120094  0  0.981658  0
H  H18  1  0.66099395  0.44595487  0.78866840  1  0.067646  0  0.105167  0.036868  0  0.948318  0
H  H19  1  0.02932263  0.59826859  0.42965996  1  0.079143  0  0.099835  0.036328  0  0.979426  0
H  H20  1  0.52200273  0.33480125  0.03644431  1  0.064222  0  0.103608  0.037916  0  0.960045  0
H  H21  1  0.36164977  0.48337126  0.05900135  1  0.042107  0  0.095271  0.025532  0  0.978268  0
H  H22  1  0.55902129  0.21991530  0.40635869  1  0.076187  0  0.108906  0.113928  0  0.988585  0
H  H23  1  0.55230595  0.08964623  0.40950839  1  0.095609  0  0.108224  0.112111  0  1.003236  0
H  H24  1  0.44615525  0.90543759  0.37819470  1  0.058077  0  0.111162  0.115938  0  0.986609  0
H  H25  1  0.44260401  0.77488979  0.38613487  1  0.11598  0  0.111541  0.118109  0  0.984733  0
H  H26  1  0.45907532  0.23670000  0.61176205  1  0.083365  0  0.111404  0.11829  0  0.985332  0
H  H27  1  0.55175212  0.90618995  0.56401378  1  0.096768  0  0.108357  0.111637  0  1.005832  0
H  H28  1  0.45871483  0.10577994  0.61727660  1  0.062193  0  0.111589  0.11651  0  0.985962  0
C  C29  1  0.50822620  0.31322679  0.50563144  1  1.534399  0  0.229566  0.606905  0  4.16696  0
C  C30  1  0.50072552  0.44700915  0.02205513  1  0.018996  0  -0.015762  -0.041318  0  3.970433  0
C  C31  1  0.48013226  0.50148550  0.98158371  1  -0.049106  0  -0.047866  -0.098829  0  3.85929  0
C  C32  1  0.49687868  0.69047356  0.48353828  1  1.543751  0  0.227612  0.602843  0  4.168612  0
C  C33  1  0.49174953  0.51183950  0.76096895  1  -0.020731  0  0.029332  -0.023997  0  3.825125  0
C  C34  1  0.49712326  0.76785353  0.47836870  1  -0.029513  0  -0.014094  -0.034518  0  3.960203  0
C  C35  1  0.52856915  0.80462034  0.52829971  1  -0.041825  0  -0.077143  -0.07519  0  3.966863  0
C  C36  1  0.52828563  0.87667712  0.52548438  1  0.008822  0  -0.081385  -0.143593  0  3.954063  0
C  C37  1  0.49778442  0.91278896  0.47134817  1  0.356201  0  0.091091  0.175573  0  4.045777  0
C  C38  1  0.46840589  0.87611983  0.42010549  1  -0.022205  0  -0.078052  -0.141262  0  3.949999  0
C  C39  1  0.46678491  0.80402390  0.42442097  1  0.004842  0  -0.078179  -0.081544  0  3.968499  0
C  C40  1  0.49573758  0.45450375  0.09782586  1  -0.097074  0  0.001401  0.047247  0  3.998405  0
C  C41  1  0.53253435  0.12258236  0.45335501  1  0.007414  0  -0.08227  -0.145019  0  3.950907  0
C  C42  1  0.53591983  0.19444609  0.45171601  1  0.00323  0  -0.077677  -0.077986  0  3.971955  0
C  C43  1  0.50365825  0.09106703  0.51314244  1  0.30468  0  0.09166  0.176293  0  4.050961  0
C  C44  1  0.31084010  0.51223559  0.51526432  1  1.532524  0  0.231402  0.609139  0  4.162267  0
C  C45  1  0.50842906  0.23570342  0.50850189  1  -0.000943  0  -0.014051  -0.033947  0  3.961268  0
C  C46  1  0.47993464  0.20398389  0.56813138  1  -0.02302  0  -0.078044  -0.080259  0  3.969027  0
C  C47  1  0.47927122  0.13184536  0.57113301  1  0.01565  0  -0.077705  -0.14144  0  3.9521  0
C  C48  1  0.76711722  0.49572100  0.49201318  1  -0.005021  0  -0.009198  -0.028612  0  3.94754  0
C  C49  1  0.79822509  0.53242533  0.54220225  1  -0.01932  0  -0.07482  -0.072923  0  3.961029  0
C  C50  1  0.87067942  0.53226210  0.54058847  1  0.019406  0  -0.080797  -0.143239  0  3.951898  0
C  C51  1  0.55260070  0.42653421  0.13291991  1  -0.014892  0  -0.088507  -0.143598  0  3.999232  0
C  C52  1  0.91278222  0.49632347  0.48752371  1  0.351697  0  0.091915  0.169344  0  4.051364  0
C  C53  1  0.88197003  0.46126573  0.43616910  1  -0.034974  0  -0.075414  -0.136015  0  3.943103  0
C  C54  1  0.80935942  0.45983926  0.43924535  1  -0.018861  0  -0.076097  -0.078638  0  3.964716  0
C  C55  1  0.12169412  0.54177323  0.47096881  1  0.009052  0  -0.009891  -0.042827  0  3.94411  0
C  C56  1  0.68894871  0.49615936  0.49469609  1  1.532251  0  0.231012  0.607375  0  4.160241  0
C  C57  1  0.19474420  0.54311693  0.46832598  1  -0.028233  0  -0.060149  -0.085164  0  3.891929  0
C  C58  1  0.08663545  0.51163830  0.52925513  1  0.350218  0  0.104111  0.150337  0  4.037292  0
C  C59  1  0.23257592  0.51407614  0.52091116  1  -0.002426  0  -0.00873  -0.030537  0  3.960273  0
C  C60  1  0.19707545  0.48568809  0.57906814  1  0.022327  0  -0.067135  -0.060772  0  3.943604  0
C  C61  1  0.12445762  0.48609590  0.58384338  1  -0.020036  0  -0.075968  -0.141916  0  3.954882  0
C  C62  1  0.55397802  0.43627315  0.20330153  1  -0.043124  0  -0.067572  -0.058094  0  3.947219  0
C  C63  1  0.49297953  0.51191711  0.68375979  1  1.654392  0  0.230711  0.605655  0  4.221284  0
C  C64  1  0.50099612  0.48647339  0.31624840  1  1.593999  0  0.229183  0.604311  0  4.175412  0
C  C65  1  0.49866315  0.47544386  0.24058579  1  0.038603  0  -0.011957  -0.036167  0  3.964368  0
C  C66  1  0.44136689  0.50272637  0.20674964  1  -0.070812  0  -0.057985  -0.080903  0  3.879785  0
C  C67  1  0.43848935  0.49122339  0.13619207  1  0.005131  0  -0.018035  -0.034806  0  3.971718  0
C  C68  1  0.61651029  0.45819764  0.75595970  1  0.942276  0  0.109129  0.279061  0  3.961135  0
C  C69  1  0.08430258  0.57710805  0.41529719  1  0.940823  0  0.088512  0.261817  0  4.019  0
C  C70  1  0.36974290  0.56249326  0.76783674  1  0.853739  0  0.174621  0.229086  0  4.017758  0
C  C71  1  0.52436854  0.37547578  0.99562537  1  0.92524  0  0.098169  0.267098  0  3.96502  0
C  C72  1  0.37210674  0.51367116  0.10534138  1  0.923484  0  0.090702  0.259394  0  4.014614  0
C  C73  1  0.54670322  0.48328696  0.86620664  1  -0.0126  0  -0.053142  -0.103264  0  3.904682  0
C  C74  1  0.55056633  0.48634310  0.79459576  1  -0.037244  0  -0.010246  -0.007932  0  3.992047  0
C  C75  1  0.43026877  0.53642235  0.80086794  1  0.081997  0  0.017405  0.045921  0  4.056748  0
C  C76  1  0.42756236  0.53449054  0.87305667  1  -0.034792  0  -0.053727  -0.129511  0  3.856862  0
C  C77  1  0.48488636  0.50544849  0.90647049  1  0.09632  0  -0.001812  0.108018  0  4.037845  0
N  N78  1  0.49663474  0.98597377  0.46409635  1  -0.498555  0  -0.145159  -0.133954  0  3.267032  0
N  N79  1  0.49937679  0.01848005  0.52007613  1  -0.485062  0  -0.144131  -0.132107  0  3.28214  0
N  N80  1  0.98674954  0.49511840  0.48103046  1  -0.539102  0  -0.131492  -0.117878  0  3.292573  0
N  N81  1  0.01415974  0.50538272  0.53663945  1  -0.4829  0  -0.143055  -0.128612  0  3.302914  0
N  N82  1  0.32036008  0.58290984  0.74033690  1  -1.094794  0  -0.305808  -0.343432  0  2.665588  0
O  O83  1  0.50017376  0.50243053  0.49935802  1  -1.234128  0  -0.571213  -1.031486  0  2.527563  0
O  O84  1  0.46064022  0.46386603  0.65920613  1  -1.153999  0  -0.300538  -0.525335  0  2.325361  0
O  O85  1  0.55137746  0.45332665  0.34424693  1  -1.18387  0  -0.315311  -0.550218  0  2.331214  0
O  O86  1  0.52270809  0.56084938  0.65244331  1  -1.148037  0  -0.30591  -0.531558  0  2.316219  0
O  O87  1  0.45266740  0.52786836  0.34588090  1  -1.16668  0  -0.308815  -0.535896  0  2.326259  0
O  O88  1  0.62344627  0.44749831  0.69396714  1  -1.051668  0  -0.246499  -0.329181  0  2.127896  0
O  O89  1  0.11228055  0.58644331  0.35761354  1  -1.076049  0  -0.279133  -0.361981  0  2.086744  0
O  O90  1  0.54262629  0.35854096  0.93596795  1  -1.059134  0  -0.251217  -0.334731  0  2.134504  0
O  O91  1  0.32941295  0.55994967  0.12892197  1  -1.058984  0  -0.265028  -0.343969  0  2.083034  0
O  O92  1  0.33967983  0.55172237  0.47057731  1  -1.175518  0  -0.310334  -0.539661  0  2.326891  0
O  O93  1  0.66373608  0.45426773  0.45418234  1  -1.176196  0  -0.314081  -0.5468  0  2.328314  0
O  O94  1  0.46559693  0.34716730  0.54955590  1  -1.170285  0  -0.314159  -0.545033  0  2.345889  0
O  O95  1  0.53495429  0.66113843  0.52761813  1  -1.172029  0  -0.314742  -0.548978  0  2.351683  0
O  O96  1  0.54963660  0.33938882  0.45953596  1  -1.163628  0  -0.315432  -0.549455  0  2.322201  0
O  O97  1  0.45885317  0.65976175  0.44403912  1  -1.168749  0  -0.313752  -0.544895  0  2.32159  0
O  O98  1  0.34214756  0.47019039  0.55551410  1  -1.170067  0  -0.311957  -0.545257  0  2.342427  0
O  O99  1  0.65401367  0.53869606  0.53720919  1  -1.166993  0  -0.310102  -0.542923  0  2.346917  0
