# generated using pymatgen
data_SmH23C38(NO2)4
_symmetry_space_group_name_H-M   'P 1'
_cell_length_a   9.08872624
_cell_length_b   13.60501269
_cell_length_c   14.12800000
_cell_angle_alpha   97.24814235
_cell_angle_beta   96.68188239
_cell_angle_gamma   105.14844392
_symmetry_Int_Tables_number   1
_chemical_formula_structural   SmH23C38(NO2)4
_chemical_formula_sum   'Sm2 H46 C76 N8 O16'
_cell_volume   1652.31456842
_cell_formula_units_Z   2
loop_
 _symmetry_equiv_pos_site_id
 _symmetry_equiv_pos_as_xyz
  1  'x, y, z'
loop_
 _atom_site_type_symbol
 _atom_site_label
 _atom_site_symmetry_multiplicity
 _atom_site_fract_x
 _atom_site_fract_y
 _atom_site_fract_z
 _atom_site_occupancy
 _atom_site_hle17_bader_spin_density
 _atom_site_hle17_ddec_charge
 _atom_site_hle17_ddec_spin_density
 _atom_site_hle17_ddec_sum_bond_order
 _atom_site_hle17_magmom
 _atom_site_hse06_10hf_bader_spin_density
 _atom_site_hse06_10hf_ddec_charge
 _atom_site_hse06_10hf_ddec_spin_density
 _atom_site_hse06_10hf_ddec_sum_bond_order
 _atom_site_hse06_10hf_magmom
 _atom_site_hse06_bader_spin_density
 _atom_site_hse06_ddec_charge
 _atom_site_hse06_ddec_spin_density
 _atom_site_hse06_ddec_sum_bond_order
 _atom_site_hse06_magmom
 _atom_site_pbe_bader_charge
 _atom_site_pbe_bader_spin_density
 _atom_site_pbe_cm5_charge
 _atom_site_pbe_ddec_charge
 _atom_site_pbe_ddec_spin_density
 _atom_site_pbe_ddec_sum_bond_order
 _atom_site_pbe_magmom
Sm  Sm0  1  0.36979735  0.35777634  0.01218125  1  0  2.191341  0  1.691004  0  0  2.00836  0  2.185964  0  0  2.059082  0  2.140252  0  2.186993  0  1.501087  1.969855  0  2.221561  0
Sm  Sm1  1  0.63020056  0.64222727  0.98781868  1  0  2.191261  0  1.691048  0  0  2.008286  0  2.185976  0  0  2.058997  0  2.140274  0  2.186993  0  1.501035  1.969755  0  2.221626  0
H  H2  1  0.28431735  0.90988435  0.33238765  1  0  0.348401  0  0.940327  0  0  0.30676  0  1.040089  0  0  0.320011  0  1.026782  0  0.626546  0  0.285758  0.2975  0  1.049206  0
H  H3  1  0.71568148  0.09011617  0.66761127  1  0  0.348462  0  0.940219  0  0  0.30681  0  1.040005  0  0  0.320062  0  1.026697  0  0.626559  0  0.285789  0.297549  0  1.049125  0
H  H4  1  0.73318789  0.23525420  0.20780756  1  0  0.066652  0  0.966469  0  0  0.073489  0  1.036303  0  0  0.076027  0  1.034583  0  0.082927  0  0.106663  0.071497  0  1.037686  0
H  H5  1  0.26681200  0.76474092  0.79218512  1  0  0.066695  0  0.966292  0  0  0.073523  0  1.036151  0  0  0.076066  0  1.034416  0  0.082991  0  0.106671  0.07153  0  1.037537  0
H  H6  1  0.72184860  0.17611145  0.48749752  1  0  0.081978  0  0.954461  0  0  0.087192  0  1.023101  0  0  0.089831  0  1.021215  0  0.105439  0  0.109877  0.084942  0  1.02486  0
H  H7  1  0.27815407  0.82389293  0.51249861  1  0  0.081971  0  0.954533  0  0  0.087191  0  1.023164  0  0  0.089827  0  1.021283  0  0.105358  0  0.109886  0.084937  0  1.024918  0
H  H8  1  0.31299169  0.21452317  0.32609276  1  0  0.108095  0  0.923066  0  0  0.119847  0  0.981364  0  0  0.123457  0  0.978146  0  0.09722  0  0.111906  0.117991  0  0.982334  0
H  H9  1  0.68701093  0.78547581  0.67390271  1  0  0.108105  0  0.923002  0  0  0.119893  0  0.981266  0  0  0.123507  0  0.978053  0  0.097161  0  0.11192  0.118036  0  0.982237  0
H  H10  1  0.56687998  0.33059422  0.57380593  1  0  0.085123  0  0.956876  0  0  0.096716  0  1.01875  0  0  0.099398  0  1.018586  0  0.043403  0  0.096404  0.094878  0  1.018875  0
H  H11  1  0.43312185  0.66940553  0.42619170  1  0  0.085045  0  0.956816  0  0  0.096639  0  1.018702  0  0  0.099319  0  1.01854  0  0.043408  0  0.096367  0.0948  0  1.018827  0
H  H12  1  0.43186411  0.33216879  0.71650970  1  0  0.084578  0  0.972013  0  0  0.094952  0  1.034076  0  0  0.096909  0  1.033787  0  0.049503  0  0.098747  0.093658  0  1.034019  0
H  H13  1  0.56813948  0.66783250  0.28348825  1  0  0.084589  0  0.971998  0  0  0.094971  0  1.034048  0  0  0.096928  0  1.033759  0  0.049525  0  0.098753  0.093676  0  1.033992  0
H  H14  1  0.20791382  0.18525938  0.72572153  1  0  0.096569  0  0.955586  0  0  0.105361  0  1.01745  0  0  0.1081  0  1.017412  0  0.055824  0  0.101566  0.103507  0  1.017305  0
H  H15  1  0.79209009  0.81474269  0.27427724  1  0  0.096614  0  0.955571  0  0  0.105374  0  1.017475  0  0  0.108112  0  1.01744  0  0.05576  0  0.101559  0.103524  0  1.017332  0
H  H16  1  0.12957085  0.03151681  0.59368306  1  0  0.109159  0  0.952024  0  0  0.116553  0  1.014025  0  0  0.120103  0  1.011449  0  0.126227  0  0.107322  0.113957  0  1.016029  0
H  H17  1  0.87043416  0.96848526  0.40631580  1  0  0.109203  0  0.951908  0  0  0.116574  0  1.013924  0  0  0.120124  0  1.011347  0  0.126167  0  0.107352  0.113979  0  1.015926  0
H  H18  1  0.61145596  0.21034516  0.80067194  1  0  0.075078  0  0.965967  0  0  0.084539  0  1.031595  0  0  0.087007  0  1.029191  0  0.096935  0  0.115559  0.08272  0  1.033161  0
H  H19  1  0.38854176  0.78965536  0.19932689  1  0  0.075094  0  0.96595  0  0  0.084549  0  1.031585  0  0  0.087015  0  1.029184  0  0.096946  0  0.11557  0.082727  0  1.033154  0
H  H20  1  0.96458223  0.22230801  0.63955835  1  0  0.098526  0  0.964186  0  0  0.103166  0  1.03384  0  0  0.106696  0  1.030332  0  0.148524  0  0.119135  0.100604  0  1.036171  0
H  H21  1  0.03541946  0.77769405  0.36044238  1  0  0.098566  0  0.964183  0  0  0.103206  0  1.03384  0  0  0.106734  0  1.030333  0  0.148423  0  0.119168  0.100645  0  1.036169  0
H  H22  1  0.94085600  0.50397797  0.80885588  1  0  0.105301  0  0.945626  0  0  0.117664  0  1.004508  0  0  0.120643  0  1.001802  0  0.078705  0  0.112583  0.115558  0  1.00642  0
H  H23  1  0.05913604  0.49602487  0.19114634  1  0  0.10528  0  0.945636  0  0  0.117637  0  1.004525  0  0  0.120617  0  1.001819  0  0.078767  0  0.112575  0.115531  0  1.006437  0
H  H24  1  0.98126708  0.39675923  0.53882297  1  0  0.095022  0  0.954676  0  0  0.104772  0  1.017002  0  0  0.107388  0  1.016772  0  0.059143  0  0.102488  0.102758  0  1.017402  0
H  H25  1  0.01873157  0.60323821  0.46117910  1  0  0.095007  0  0.954744  0  0  0.104771  0  1.017058  0  0  0.107371  0  1.016839  0  0.059231  0  0.102492  0.102758  0  1.017457  0
H  H26  1  0.20056404  0.48351632  0.46239946  1  0  0.087057  0  0.938876  0  0  0.101421  0  0.991443  0  0  0.104346  0  0.989778  0  0.081276  0  0.103902  0.099434  0  0.992503  0
H  H27  1  0.79943512  0.51648497  0.53760595  1  0  0.087038  0  0.938968  0  0  0.101397  0  0.991534  0  0  0.104328  0  0.989863  0  0.081162  0  0.103868  0.09941  0  0.992595  0
H  H28  1  0.45975345  0.56640106  0.56300417  1  0  0.086503  0  0.954954  0  0  0.098091  0  1.015024  0  0  0.100443  0  1.014984  0  0.067  0  0.100545  0.09627  0  1.015398  0
H  H29  1  0.54024773  0.43359715  0.43699535  1  0  0.08648  0  0.954965  0  0  0.098076  0  1.015031  0  0  0.10043  0  1.014988  0  0.066979  0  0.100539  0.096253  0  1.015407  0
H  H30  1  0.49659918  0.55508193  0.73761532  1  0  0.104077  0  0.962573  0  0  0.113357  0  1.023253  0  0  0.116694  0  1.021329  0  0.12425  0  0.110589  0.110991  0  1.024581  0
H  H31  1  0.50340519  0.44491859  0.26238543  1  0  0.104138  0  0.962539  0  0  0.113442  0  1.023191  0  0  0.116779  0  1.021267  0  0.124298  0  0.110631  0.111072  0  1.024526  0
H  H32  1  0.03779771  0.39479410  0.07413412  1  0  0.077287  0  0.984816  0  0  0.084269  0  1.050514  0  0  0.087538  0  1.046859  0  0.111962  0  0.117803  0.081876  0  1.053034  0
H  H33  1  0.96219378  0.60519947  0.92586694  1  0  0.077301  0  0.984674  0  0  0.08425  0  1.050409  0  0  0.087517  0  1.046764  0  0.111892  0  0.117835  0.081858  0  1.052927  0
H  H34  1  0.75482378  0.30971886  0.07442062  1  0  0.124305  0  0.963546  0  0  0.132873  0  1.021849  0  0  0.136587  0  1.020406  0  0.132132  0  0.115223  0.130557  0  1.022598  0
H  H35  1  0.24516674  0.69027240  0.92557938  1  0  0.124332  0  0.963526  0  0  0.132891  0  1.021834  0  0  0.136604  0  1.020392  0  0.132011  0  0.115265  0.130576  0  1.022577  0
H  H36  1  0.64378558  0.12687845  0.99890799  1  0  0.099664  0  0.948233  0  0  0.110665  0  1.010297  0  0  0.113499  0  1.008435  0  0.075586  0  0.109181  0.108854  0  1.01091  0
H  H37  1  0.35621523  0.87311358  0.00108791  1  0  0.099655  0  0.948232  0  0  0.110653  0  1.01029  0  0  0.113484  0  1.008433  0  0.075545  0  0.109167  0.108843  0  1.010903  0
H  H38  1  0.67822333  0.96937520  0.89724007  1  0  0.100165  0  0.940338  0  0  0.113486  0  0.997217  0  0  0.115667  0  0.997423  0  0.087074  0  0.105612  0.110832  0  0.999578  0
H  H39  1  0.32177448  0.03061761  0.10275783  1  0  0.100048  0  0.94033  0  0  0.113402  0  0.997182  0  0  0.115583  0  0.997391  0  0.087175  0  0.105558  0.110747  0  0.999545  0
H  H40  1  0.84961430  0.88261424  0.81735307  1  0  0.109555  0  0.951435  0  0  0.121003  0  1.010717  0  0  0.123717  0  1.009749  0  0.101026  0  0.109093  0.119164  0  1.011193  0
H  H41  1  0.15039048  0.11737933  0.18264827  1  0  0.109478  0  0.951644  0  0  0.120992  0  1.010848  0  0  0.123708  0  1.009881  0  0.101147  0  0.109077  0.119154  0  1.011322  0
H  H42  1  0.11303355  0.88958710  0.77301699  1  0  0.109037  0  0.934678  0  0  0.118571  0  0.996086  0  0  0.12205  0  0.992907  0  0.095409  0  0.115005  0.116652  0  0.99716  0
H  H43  1  0.88697461  0.11041188  0.22698173  1  0  0.109027  0  0.934696  0  0  0.118574  0  0.996079  0  0  0.122054  0  0.992901  0  0.09557  0  0.114991  0.116655  0  0.997155  0
H  H44  1  0.39311911  0.98554075  0.79568364  1  0  0.109232  0  0.944375  0  0  0.121628  0  0.997202  0  0  0.124254  0  0.997827  0  0.098064  0  0.109857  0.118841  0  0.999201  0
H  H45  1  0.60688701  0.01446132  0.20431671  1  0  0.109286  0  0.944262  0  0  0.121655  0  0.997121  0  0  0.124281  0  0.997747  0  0.098135  0  0.109878  0.118867  0  0.999121  0
H  H46  1  0.48295178  0.16345780  0.89520763  1  0  0.071525  0  0.982549  0  0  0.078774  0  1.051972  0  0  0.081739  0  1.048124  0  0.132863  0  0.118814  0.077425  0  1.052945  0
H  H47  1  0.51704672  0.83654195  0.10479329  1  0  0.071494  0  0.98252  0  0  0.078764  0  1.051931  0  0  0.081731  0  1.048081  0  0.132859  0  0.11879  0.077414  0  1.052906  0
C  C48  1  0.44622226  0.25501887  0.16489350  1  0  0.626078  0  3.967569  0  0  0.580527  0  4.261327  0  0  0.614719  0  4.253591  0  1.542071  0  0.184532  0.557568  0  4.265629  0
C  C49  1  0.55377578  0.74498242  0.83510474  1  0  0.62613  0  3.967516  0  0  0.58058  0  4.261265  0  0  0.614772  0  4.253526  0  1.54215  0  0.184558  0.557622  0  4.265567  0
C  C50  1  0.51322774  0.22567172  0.25492579  1  0  -0.114082  0  3.779596  0  0  -0.08697  0  4.014376  0  0  -0.098849  0  4.038646  0  0.0103  0  -0.019911  -0.079504  0  3.998583  0
C  C51  1  0.48676966  0.77432803  0.74507080  1  0  -0.114006  0  3.779555  0  0  -0.086847  0  4.01429  0  0  -0.098727  0  4.038564  0  0.009838  0  -0.019865  -0.079382  0  3.998498  0
C  C52  1  0.66690528  0.22203632  0.26689769  1  0  0.100506  0  3.735998  0  0  0.06481  0  3.996977  0  0  0.071873  0  4.013432  0  0.503718  0  0.041414  0.06042  0  3.985797  0
C  C53  1  0.33309037  0.77796188  0.73309504  1  0  0.100421  0  3.735818  0  0  0.064689  0  3.996839  0  0  0.071754  0  4.013295  0  0.503814  0  0.041396  0.060293  0  3.985671  0
C  C54  1  0.65990595  0.19027407  0.42189189  1  0  0.085994  0  3.6731  0  0  0.052872  0  3.933875  0  0  0.059109  0  3.94878  0  0.51001  0  0.04673  0.049005  0  3.924147  0
C  C55  1  0.34009717  0.80972877  0.57810267  1  0  0.085865  0  3.673252  0  0  0.05273  0  3.934023  0  0  0.058968  0  3.948926  0  0.509778  0  0.046667  0.048877  0  3.924277  0
C  C56  1  0.50485573  0.19056582  0.41731445  1  0  0.020404  0  3.77909  0  0  0.038002  0  4.018976  0  0  0.033812  0  4.041942  0  -0.00591  0  0.001392  0.040175  0  4.004009  0
C  C57  1  0.49514532  0.80943470  0.58268322  1  0  0.020496  0  3.779046  0  0  0.038134  0  4.018898  0  0  0.033952  0  4.041841  0  -0.00566  0  0.001415  0.040302  0  4.003945  0
C  C58  1  0.43153748  0.20969913  0.33194042  1  0  -0.055113  0  3.671599  0  0  -0.094368  0  3.922091  0  0  -0.090327  0  3.938587  0  -0.061906  0  -0.061256  -0.096762  0  3.910705  0
C  C59  1  0.56846389  0.79030217  0.66805807  1  0  -0.055259  0  3.671576  0  0  -0.094564  0  3.922069  0  0  -0.090535  0  3.938576  0  -0.061364  0  -0.061336  -0.096956  0  3.910684  0
C  C60  1  0.42523707  0.18060283  0.50299318  1  0  0.053533  0  3.754497  0  0  0.060811  0  3.9847  0  0  0.063427  0  4.009644  0  -0.031748  0  -0.000262  0.059224  0  3.967823  0
C  C61  1  0.57476730  0.81939769  0.49700544  1  0  0.053396  0  3.754482  0  0  0.06066  0  3.984819  0  0  0.063278  0  4.009764  0  -0.032014  0  -0.000277  0.059074  0  3.96794  0
C  C62  1  0.47111732  0.26460906  0.57887346  1  0  -0.133665  0  3.766851  0  0  -0.154335  0  4.019769  0  0  -0.160067  0  4.042931  0  -0.02657  0  -0.09738  -0.150326  0  4.003694  0
C  C63  1  0.52888816  0.73539146  0.42112666  1  0  -0.133482  0  3.766641  0  0  -0.154127  0  4.019555  0  0  -0.15986  0  4.042718  0  -0.026056  0  -0.097313  -0.15012  0  4.003478  0
C  C64  1  0.39477359  0.26598604  0.65881029  1  0  -0.043644  0  3.777719  0  0  -0.061387  0  4.033813  0  0  -0.060525  0  4.055042  0  -0.034233  0  -0.087728  -0.061736  0  4.019174  0
C  C65  1  0.60522999  0.73401526  0.34118766  1  0  -0.043675  0  3.777722  0  0  -0.061413  0  4.033814  0  0  -0.060548  0  4.055043  0  -0.034705  0  -0.087735  -0.061763  0  4.019176  0
C  C66  1  0.26996133  0.18293766  0.66438533  1  0  -0.076727  0  3.755753  0  0  -0.09012  0  4.011274  0  0  -0.094212  0  4.032632  0  -0.045101  0  -0.092564  -0.087444  0  3.996883  0
C  C67  1  0.73004258  0.81706440  0.33561273  1  0  -0.076886  0  3.755745  0  0  -0.090277  0  4.011284  0  0  -0.09437  0  4.03264  0  -0.045006  0  -0.092583  -0.087604  0  3.996897  0
C  C68  1  0.22570733  0.09786551  0.59111760  1  0  -0.039423  0  3.721025  0  0  -0.064617  0  3.967797  0  0  -0.062785  0  3.987111  0  0.031214  0  -0.075656  -0.065883  0  3.955165  0
C  C69  1  0.77429833  0.90213810  0.40888362  1  0  -0.039359  0  3.720712  0  0  -0.064453  0  3.967472  0  0  -0.062617  0  3.986787  0  0.03114  0  -0.075586  -0.065722  0  3.954843  0
C  C70  1  0.30194825  0.09508455  0.51033998  1  0  -0.114332  0  3.71906  0  0  -0.096359  0  3.948204  0  0  -0.106354  0  3.97157  0  -0.052809  0  -0.015821  -0.089892  0  3.932536  0
C  C71  1  0.69805663  0.90491983  0.48965773  1  0  -0.114131  0  3.718969  0  0  -0.096318  0  3.948364  0  0  -0.106321  0  3.971729  0  -0.052501  0  -0.015856  -0.089849  0  3.932693  0
C  C72  1  0.24533109  0.99699341  0.43934783  1  0  0.640269  0  3.828391  0  0  0.593383  0  4.125384  0  0  0.626601  0  4.11664  0  1.539944  0  0.224477  0.570858  0  4.130747  0
C  C73  1  0.75465233  0.00299940  0.56064970  1  0  0.640074  0  3.827591  0  0  0.59324  0  4.124616  0  0  0.626466  0  4.115872  0  1.539758  0  0.224374  0.570714  0  4.129976  0
C  C74  1  0.76763175  0.36320860  0.81606629  1  0  -0.119859  0  3.729192  0  0  -0.092899  0  3.968024  0  0  -0.105624  0  3.991881  0  0.01919  0  -0.014035  -0.085729  0  3.95303  0
C  C75  1  0.23236518  0.63679269  0.18393682  1  0  -0.120044  0  3.729291  0  0  -0.093025  0  3.968078  0  0  -0.105758  0  3.991935  0  0.019342  0  -0.014095  -0.085857  0  3.953084  0
C  C76  1  0.71581978  0.25737146  0.78051969  1  0  0.12376  0  3.702478  0  0  0.078645  0  3.959701  0  0  0.087045  0  3.977056  0  0.514569  0  0.053252  0.074402  0  3.947015  0
C  C77  1  0.28418062  0.74262752  0.21947987  1  0  0.123832  0  3.702414  0  0  0.078715  0  3.95962  0  0  0.087117  0  3.976974  0  0.514479  0  0.053259  0.074473  0  3.946937  0
C  C78  1  0.91300564  0.26541101  0.69020405  1  0  0.09744  0  3.635636  0  0  0.054028  0  3.894122  0  0  0.06191  0  3.907312  0  0.51594  0  0.058207  0.050033  0  3.88427  0
C  C79  1  0.08699305  0.73459183  0.30979797  1  0  0.097442  0  3.635695  0  0  0.054021  0  3.894225  0  0  0.061906  0  3.907416  0  0.515867  0  0.058151  0.050027  0  3.884371  0
C  C80  1  0.97553599  0.37175989  0.72165124  1  0  0.01985  0  3.763988  0  0  0.038328  0  4.006541  0  0  0.033512  0  4.029448  0  0.019845  0  0.003687  0.040592  0  3.991951  0
C  C81  1  0.02446113  0.62824449  0.27835226  1  0  0.019834  0  3.763814  0  0  0.038309  0  4.006462  0  0  0.033487  0  4.029366  0  0.019697  0  0.003624  0.04057  0  3.991876  0
C  C82  1  0.89966017  0.42082772  0.78506600  1  0  -0.043681  0  3.640871  0  0  -0.081794  0  3.884758  0  0  -0.076989  0  3.901444  0  -0.056055  0  -0.056911  -0.085371  0  3.87462  0
C  C83  1  0.10033520  0.57917512  0.21493719  1  0  -0.043595  0  3.640697  0  0  -0.081713  0  3.884595  0  0  -0.076903  0  3.90128  0  -0.056  0  -0.056846  -0.085288  0  3.874457  0
C  C84  1  0.67892509  0.41126762  0.88326994  1  0  0.712067  0  3.86577  0  0  0.664125  0  4.158668  0  0  0.699814  0  4.14846  0  1.610062  0  0.235336  0.639892  0  4.165132  0
C  C85  1  0.32107407  0.58873367  0.11673334  1  0  0.712203  0  3.865851  0  0  0.66422  0  4.158758  0  0  0.699915  0  4.148546  0  1.609953  0  0.235394  0.639986  0  4.165222  0
C  C86  1  0.11241538  0.42711981  0.68175996  1  0  0.055027  0  3.738282  0  0  0.062063  0  3.968863  0  0  0.063771  0  3.994366  0  -0.009889  0  0.004936  0.060703  0  3.952237  0
C  C87  1  0.88758239  0.57288612  0.31824520  1  0  0.054991  0  3.738291  0  0  0.06191  0  3.969014  0  0  0.063621  0  3.994508  0  -0.009952  0  0.004919  0.06055  0  3.952388  0
C  C88  1  0.09419564  0.43233595  0.58279446  1  0  -0.112714  0  3.733247  0  0  -0.130891  0  3.978063  0  0  -0.135316  0  4.000452  0  -0.013819  0  -0.083779  -0.127579  0  3.962883  0
C  C89  1  0.90580434  0.56766998  0.41721086  1  0  -0.112579  0  3.733207  0  0  -0.13073  0  3.978029  0  0  -0.135135  0  4.000416  0  -0.013989  0  -0.083742  -0.127419  0  3.962849  0
C  C90  1  0.21794770  0.48155429  0.53979512  1  0  -0.050043  0  3.770316  0  0  -0.065338  0  4.020134  0  0  -0.065075  0  4.040139  0  -0.073767  0  -0.083943  -0.065315  0  4.00643  0
C  C91  1  0.78205367  0.51844701  0.46021115  1  0  -0.050217  0  3.770456  0  0  -0.065517  0  4.020285  0  0  -0.065262  0  4.040285  0  -0.073813  0  -0.083982  -0.065495  0  4.006581  0
C  C92  1  0.36242760  0.52744519  0.59571133  1  0  -0.073273  0  3.773487  0  0  -0.088975  0  4.02898  0  0  -0.092378  0  4.05159  0  -0.062841  0  -0.090456  -0.086642  0  4.013793  0
C  C93  1  0.63757474  0.47255842  0.40429105  1  0  -0.073149  0  3.773509  0  0  -0.088859  0  4.029011  0  0  -0.092263  0  4.051627  0  -0.062821  0  -0.090433  -0.086527  0  4.013827  0
C  C94  1  0.38279513  0.52253008  0.69413309  1  0  -0.062465  0  3.725817  0  0  -0.085514  0  3.975336  0  0  -0.085512  0  3.996244  0  -0.040406  0  -0.078824  -0.085388  0  3.961191  0
C  C95  1  0.61720610  0.47747353  0.30587134  1  0  -0.062533  0  3.725903  0  0  -0.085631  0  3.975405  0  0  -0.08563  0  3.996315  0  -0.04043  0  -0.078879  -0.085504  0  3.961259  0
C  C96  1  0.25997481  0.47194711  0.73777604  1  0  -0.105182  0  3.696188  0  0  -0.089297  0  3.931081  0  0  -0.097766  0  3.952973  0  -0.008645  0  -0.013312  -0.083865  0  3.916743  0
C  C97  1  0.74002739  0.52805881  0.26222732  1  0  -0.105151  0  3.69635  0  0  -0.089164  0  3.931165  0  0  -0.097632  0  3.953055  0  -0.008402  0  -0.013225  -0.083732  0  3.916828  0
C  C98  1  0.29627473  0.45220173  0.83841204  1  0  0.694502  0  3.877996  0  0  0.650577  0  4.164224  0  0  0.685755  0  4.153193  0  1.53344  0  0.217851  0.626492  0  4.170739  0
C  C99  1  0.70372045  0.54779802  0.16159004  1  0  0.694497  0  3.878137  0  0  0.650582  0  4.164312  0  0  0.685759  0  4.153281  0  1.533361  0  0.217847  0.626498  0  4.170827  0
C  C100  1  0.98343684  0.31474127  0.04094717  1  0  0.150274  0  3.708309  0  0  0.121549  0  3.962187  0  0  0.128302  0  3.978244  0  0.503482  0  0.060736  0.117646  0  3.951089  0
C  C101  1  0.01655594  0.68525540  0.95905082  1  0  0.150385  0  3.707948  0  0  0.121682  0  3.961844  0  0  0.128438  0  3.977892  0  0.503454  0  0.060721  0.117776  0  3.950751  0
C  C102  1  0.82676447  0.26745872  0.04090846  1  0  -0.114226  0  3.726206  0  0  -0.12817  0  3.98203  0  0  -0.134653  0  4.002676  0  -0.010733  0  -0.082054  -0.124941  0  3.968501  0
C  C103  1  0.17322910  0.73253717  0.95909021  1  0  -0.114292  0  3.726288  0  0  -0.128236  0  3.982131  0  0  -0.134719  0  4.002771  0  -0.010677  0  -0.082089  -0.125006  0  3.968609  0
C  C104  1  0.76424010  0.16593543  0.99704758  1  0  -0.048527  0  3.694127  0  0  -0.075088  0  3.95004  0  0  -0.073482  0  3.968605  0  -0.035586  0  -0.063662  -0.075831  0  3.936681  0
C  C105  1  0.23575914  0.83405815  0.00295123  1  0  -0.04853  0  3.694201  0  0  -0.07505  0  3.950196  0  0  -0.073446  0  3.968769  0  -0.035127  0  -0.063655  -0.075788  0  3.936825  0
C  C106  1  0.85715939  0.11353785  0.95000163  1  0  0.018353  0  3.801222  0  0  0.032799  0  4.035804  0  0  0.030189  0  4.061098  0  -0.092369  0  -0.002807  0.035005  0  4.018116  0
C  C107  1  0.14284207  0.88645572  0.04999947  1  0  0.018444  0  3.801221  0  0  0.032702  0  4.035999  0  0  0.030115  0  4.061311  0  -0.092532  0  -0.002752  0.034893  0  4.018298  0
C  C108  1  0.01522511  0.16776007  0.95484933  1  0  0.147815  0  3.739997  0  0  0.143993  0  3.976655  0  0  0.14806  0  3.997103  0  0.539571  0  0.12658  0.14095  0  3.962963  0
C  C109  1  0.98477511  0.83223582  0.04515266  1  0  0.147557  0  3.740218  0  0  0.14389  0  3.976771  0  0  0.147871  0  3.997341  0  0.539617  0  0.126469  0.140904  0  3.963  0
C  C110  1  0.79959954  0.00981249  0.89933939  1  0  -0.089733  0  3.728843  0  0  -0.113917  0  3.987192  0  0  -0.116774  0  4.010019  0  -0.014591  0  -0.082103  -0.112043  0  3.973054  0
C  C111  1  0.20040049  0.99018032  0.10066010  1  0  -0.089467  0  3.728738  0  0  -0.113623  0  3.987147  0  0  -0.116476  0  4.009968  0  -0.015084  0  -0.082037  -0.111752  0  3.973012  0
C  C112  1  0.89384075  0.96209514  0.85474195  1  0  -0.086251  0  3.717316  0  0  -0.110878  0  3.971847  0  0  -0.113592  0  3.994295  0  -0.05998  0  -0.078655  -0.108978  0  3.95642  0
C  C113  1  0.10616436  0.03789921  0.14525739  1  0  -0.086321  0  3.717513  0  0  -0.111048  0  3.972056  0  0  -0.113761  0  3.994521  0  -0.059799  0  -0.07865  -0.109149  0  3.956627  0
C  C114  1  0.05396639  0.01385310  0.85905933  1  0  0.024015  0  3.779439  0  0  0.042917  0  4.00555  0  0  0.040273  0  4.030362  0  0.041797  0  0.001553  0.044848  0  3.988706  0
C  C115  1  0.94603793  0.98614202  0.14094147  1  0  0.023999  0  3.779397  0  0  0.042978  0  4.005433  0  0  0.040305  0  4.030284  0  0.042034  0  0.001527  0.044914  0  3.988578  0
C  C116  1  0.11562189  0.11629335  0.91043897  1  0  0.147332  0  3.752769  0  0  0.142542  0  3.99108  0  0  0.147206  0  4.011285  0  0.459449  0  0.127788  0.139318  0  3.977407  0
C  C117  1  0.88437929  0.88370486  0.08956480  1  0  0.147508  0  3.752616  0  0  0.142682  0  3.990847  0  0  0.147379  0  4.011073  0  0.459403  0  0.127849  0.139441  0  3.977163  0
C  C118  1  0.15635421  0.96668840  0.81594291  1  0  -0.034544  0  3.665572  0  0  -0.059209  0  3.910235  0  0  -0.057145  0  3.928861  0  0.03397  0  -0.054555  -0.060147  0  3.896902  0
C  C119  1  0.84365187  0.03330827  0.18405961  1  0  -0.034543  0  3.66565  0  0  -0.059238  0  3.910291  0  0  -0.05716  0  3.92892  0  0.033779  0  -0.054524  -0.060179  0  3.896958  0
C  C120  1  0.31124968  0.01952772  0.82835620  1  0  -0.118216  0  3.729853  0  0  -0.129813  0  3.982375  0  0  -0.137253  0  4.004869  0  -0.06284  0  -0.080498  -0.125072  0  3.96855  0
C  C121  1  0.68875769  0.98047203  0.17164467  1  0  -0.118286  0  3.729954  0  0  -0.129874  0  3.982508  0  0  -0.137313  0  4.005002  0  -0.063019  0  -0.08055  -0.125131  0  3.96868  0
C  C122  1  0.36193339  0.11924566  0.88268702  1  0  0.144405  0  3.726516  0  0  0.111912  0  3.990521  0  0  0.120176  0  4.004993  0  0.483889  0  0.059078  0.107151  0  3.978575  0
C  C123  1  0.63806954  0.88075409  0.11731424  1  0  0.144426  0  3.726458  0  0  0.111918  0  3.990468  0  0  0.120181  0  4.00494  0  0.483944  0  0.059104  0.107155  0  3.978521  0
N  N124  1  0.74019437  0.20523245  0.34838494  1  0  -0.312579  0  3.068729  0  0  -0.279965  0  3.344191  0  0  -0.289767  0  3.355712  0  -1.203512  0  -0.331125  -0.273047  0  3.334801  0
N  N125  1  0.25980525  0.79476730  0.65160969  1  0  -0.312435  0  3.068749  0  0  -0.279806  0  3.344217  0  0  -0.289607  0  3.35574  0  -1.203597  0  -0.331062  -0.272887  0  3.334824  0
N  N126  1  0.78635960  0.20961345  0.71916504  1  0  -0.291124  0  3.20422  0  0  -0.226055  0  3.459927  0  0  -0.2409  0  3.475348  0  -1.268903  0  -0.302421  -0.216063  0  3.448401  0
N  N127  1  0.21363812  0.79038707  0.28083662  1  0  -0.29119  0  3.204195  0  0  -0.226138  0  3.459926  0  0  -0.240983  0  3.475346  0  -1.268665  0  -0.302436  -0.216146  0  3.448399  0
N  N128  1  0.07652795  0.26634031  0.00131189  1  0  -0.401053  0  3.235802  0  0  -0.348871  0  3.498311  0  0  -0.361971  0  3.51509  0  -1.232849  0  -0.370477  -0.340436  0  3.486812  0
N  N129  1  0.92346627  0.73365712  0.99868702  1  0  -0.401091  0  3.235924  0  0  -0.348939  0  3.49838  0  0  -0.362013  0  3.515187  0  -1.232964  0  -0.370471  -0.34052  0  3.486866  0
N  N130  1  0.26773352  0.16750382  0.92121728  1  0  -0.420598  0  3.243523  0  0  -0.371042  0  3.5143  0  0  -0.384868  0  3.530612  0  -1.259567  0  -0.37341  -0.361163  0  3.502161  0
N  N131  1  0.73226766  0.83249439  0.07878365  1  0  -0.420578  0  3.243425  0  0  -0.371021  0  3.514204  0  0  -0.384843  0  3.530508  0  -1.259589  0  -0.37341  -0.361142  0  3.502073  0
O  O132  1  0.32885585  0.29052690  0.16517808  1  0  -0.691966  0  1.938165  0  0  -0.646373  0  2.172612  0  0  -0.669793  0  2.162768  0  -1.186775  0  -0.383393  -0.630121  0  2.178679  0
O  O133  1  0.67114012  0.70947208  0.83482114  1  0  -0.691938  0  1.938123  0  0  -0.646357  0  2.172589  0  0  -0.669772  0  2.162739  0  -1.186763  0  -0.383401  -0.630105  0  2.178659  0
O  O134  1  0.51184297  0.24874684  0.09000606  1  0  -0.694102  0  2.023401  0  0  -0.645543  0  2.273593  0  0  -0.670471  0  2.266065  0  -1.182894  0  -0.376742  -0.628052  0  2.277531  0
O  O135  1  0.48815748  0.75125754  0.90999416  1  0  -0.694159  0  2.023387  0  0  -0.645599  0  2.273579  0  0  -0.670525  0  2.266046  0  -1.18289  0  -0.376751  -0.628097  0  2.277491  0
O  O136  1  0.33269780  0.98433127  0.37152214  1  0  -0.550733  0  2.109151  0  0  -0.498915  0  2.332883  0  0  -0.521575  0  2.320888  0  -1.174464  0  -0.339427  -0.482932  0  2.340715  0
O  O137  1  0.66730357  0.01567003  0.62847635  1  0  -0.550689  0  2.109316  0  0  -0.498857  0  2.333038  0  0  -0.52152  0  2.321047  0  -1.174555  0  -0.339416  -0.482875  0  2.340873  0
O  O138  1  0.12647958  0.93061075  0.44607239  1  0  -0.557872  0  1.951062  0  0  -0.515612  0  2.167476  0  0  -0.536068  0  2.159318  0  -1.162202  0  -0.290355  -0.501537  0  2.172976  0
O  O139  1  0.87353753  0.06939904  0.55392406  1  0  -0.557846  0  1.949866  0  0  -0.515593  0  2.166268  0  0  -0.536062  0  2.158116  0  -1.162003  0  -0.290275  -0.501514  0  2.171765  0
O  O140  1  0.56233855  0.35094627  0.90788093  1  0  -0.717297  0  2.035858  0  0  -0.665386  0  2.297507  0  0  -0.690921  0  2.288025  0  -1.202446  0  -0.377743  -0.648122  0  2.30392  0
O  O141  1  0.43765936  0.64905734  0.09212254  1  0  -0.717316  0  2.035966  0  0  -0.665376  0  2.297595  0  0  -0.690906  0  2.288098  0  -1.202417  0  -0.377742  -0.64811  0  2.30401  0
O  O142  1  0.72615950  0.50865613  0.91018312  1  0  -0.719955  0  2.0344  0  0  -0.665512  0  2.285554  0  0  -0.690726  0  2.273989  0  -1.205392  0  -0.382315  -0.64721  0  2.292658  0
O  O143  1  0.27384044  0.49134439  0.08981658  1  0  -0.719984  0  2.034342  0  0  -0.665532  0  2.285492  0  0  -0.690749  0  2.273922  0  -1.205387  0  -0.382331  -0.647235  0  2.292594  0
O  O144  1  0.22236697  0.36729244  0.86014782  1  0  -0.678331  0  2.016187  0  0  -0.632302  0  2.259285  0  0  -0.657568  0  2.254085  0  -1.172485  0  -0.371112  -0.614188  0  2.261887  0
O  O145  1  0.77762489  0.63270731  0.13985331  1  0  -0.678318  0  2.016231  0  0  -0.632292  0  2.259304  0  0  -0.657555  0  2.254101  0  -1.172438  0  -0.371109  -0.614177  0  2.261912  0
O  O146  1  0.40633488  0.51658223  0.89869457  1  0  -0.81457  0  2.130592  0  0  -0.751895  0  2.390724  0  0  -0.777447  0  2.378869  0  -1.225219  0  -0.417579  -0.733297  0  2.398063  0
O  O147  1  0.59365795  0.48341984  0.10130833  1  0  -0.814591  0  2.13072  0  0  -0.751925  0  2.390847  0  0  -0.777481  0  2.378995  0  -1.225236  0  -0.41759  -0.733322  0  2.398172  0
