# generated using pymatgen
data_CdH16C22N4O5
_symmetry_space_group_name_H-M   'P 1'
_cell_length_a   12.66489209
_cell_length_b   13.94217061
_cell_length_c   13.94228653
_cell_angle_alpha   100.48656509
_cell_angle_beta   98.28886430
_cell_angle_gamma   98.28855505
_symmetry_Int_Tables_number   1
_chemical_formula_structural   CdH16C22N4O5
_chemical_formula_sum   'Cd4 H64 C88 N16 O20'
_cell_volume   2358.45030800
_cell_formula_units_Z   4
loop_
 _symmetry_equiv_pos_site_id
 _symmetry_equiv_pos_as_xyz
  1  'x, y, z'
loop_
 _atom_site_type_symbol
 _atom_site_label
 _atom_site_symmetry_multiplicity
 _atom_site_fract_x
 _atom_site_fract_y
 _atom_site_fract_z
 _atom_site_occupancy
 _atom_site_pbe_bader_charge
 _atom_site_pbe_bader_spin_density
 _atom_site_pbe_cm5_charge
 _atom_site_pbe_ddec_charge
 _atom_site_pbe_ddec_spin_density
 _atom_site_pbe_ddec_sum_bond_order
 _atom_site_pbe_magmom
Cd  Cd0  1  0.42341396  0.31619067  0.42002637  1  1.257631  0  0.761157  0.862996  0  2.163658  0
Cd  Cd1  1  0.07659367  0.57997373  0.68381293  1  1.257639  0  0.761226  0.86309  0  2.163522  0
Cd  Cd2  1  0.57658883  0.68381495  0.57997782  1  1.25763  0  0.761176  0.863015  0  2.163622  0
Cd  Cd3  1  0.92341252  0.42002456  0.31619478  1  1.257648  0  0.761211  0.863042  0  2.163655  0
H  H4  1  0.61258920  0.15403731  0.63982413  1  0.114876  0  0.105448  0.115711  0  0.998077  0
H  H5  1  0.68323713  0.05149233  0.75661769  1  0.043025  0  0.098842  0.101768  0  1.002934  0
H  H6  1  0.83992522  0.00024433  0.85013058  1  0.038917  0  0.086296  0.074646  0  1.06636  0
H  H7  1  0.02845364  0.06374711  0.83028064  1  0.049368  0  0.089215  0.082276  0  1.04395  0
H  H8  1  0.06010865  0.17322059  0.71210106  1  0.08702  0  0.102734  0.106205  0  0.988832  0
H  H9  1  0.98613569  0.25338759  0.57925555  1  0.06848  0  0.105468  0.113581  0  1.012182  0
H  H10  1  0.36218919  0.11618928  0.48195409  1  0.15911  0  0.121172  0.108646  0  0.999985  0
H  H11  1  0.20323751  0.99898160  0.51042979  1  0.12115  0  0.113753  0.124123  0  1.008739  0
H  H12  1  0.99393522  0.18272609  0.39019979  1  0.138516  0  0.111485  0.126917  0  1.014168  0
H  H13  1  0.16150552  0.29474468  0.37118745  1  0.138603  0  0.119665  0.101494  0  1.014162  0
H  H14  1  0.59982617  0.19145827  0.32268753  1  0.145864  0  0.119178  0.103257  0  1.032246  0
H  H15  1  0.61487729  0.06928527  0.17164448  1  0.101853  0  0.115567  0.123198  0  1.010468  0
H  H16  1  0.29187553  0.09714411  0.04460481  1  0.103137  0  0.110547  0.112667  0  1.018741  0
H  H17  1  0.28952932  0.21983170  0.20286337  1  0.131014  0  0.116755  0.096257  0  1.030659  0
H  H18  1  0.45873984  0.46582532  0.59239801  1  0.667121  0  0.285118  0.384406  0  0.96124  0
H  H19  1  0.35864960  0.48502515  0.52555061  1  0.626124  0  0.307484  0.4053  0  0.893008  0
H  H20  1  0.88740696  0.36017145  0.84595180  1  0.115253  0  0.105416  0.115699  0  0.998081  0
H  H21  1  0.81676322  0.24338464  0.94849635  1  0.042832  0  0.098853  0.101762  0  1.002895  0
H  H22  1  0.66008120  0.14987691  0.99974820  1  0.038931  0  0.086298  0.074614  0  1.066441  0
H  H23  1  0.47155355  0.16973291  0.93625233  1  0.049551  0  0.089208  0.082251  0  1.044036  0
H  H24  1  0.43988953  0.28791517  0.82678082  1  0.086834  0  0.102743  0.106188  0  0.988762  0
H  H25  1  0.51386724  0.42075467  0.74660797  1  0.068985  0  0.105445  0.113527  0  1.012309  0
H  H26  1  0.13781434  0.51804586  0.88380482  1  0.159198  0  0.121197  0.108748  0  0.999999  0
H  H27  1  0.29676517  0.48956592  0.00101220  1  0.120738  0  0.113736  0.124109  0  1.008591  0
H  H28  1  0.50607201  0.60980474  0.81728076  1  0.138665  0  0.111482  0.126912  0  1.014132  0
H  H29  1  0.33849960  0.62882019  0.70526026  1  0.138718  0  0.119668  0.101449  0  1.014191  0
H  H30  1  0.90018229  0.67731103  0.80853948  1  0.146085  0  0.119148  0.103288  0  1.03228  0
H  H31  1  0.88512208  0.82835014  0.93071110  1  0.101959  0  0.11558  0.123219  0  1.010528  0
H  H32  1  0.20812413  0.95540011  0.90286532  1  0.081243  0  0.11052  0.112631  0  1.018795  0
H  H33  1  0.21047565  0.79714244  0.78017679  1  0.131033  0  0.116788  0.096179  0  1.030741  0
H  H34  1  0.04126756  0.40760302  0.53418254  1  0.667196  0  0.285096  0.384347  0  0.96132  0
H  H35  1  0.14135320  0.47444804  0.51497275  1  0.626087  0  0.307485  0.405241  0  0.893072  0
H  H36  1  0.38740973  0.84595643  0.36017614  1  0.114915  0  0.105443  0.11571  0  0.998113  0
H  H37  1  0.31676260  0.94850141  0.24338268  1  0.043087  0  0.098842  0.101778  0  1.002868  0
H  H38  1  0.16007856  0.99975390  0.14987322  1  0.038774  0  0.086299  0.074602  0  1.066441  0
H  H39  1  0.97154933  0.93625109  0.16972162  1  0.049411  0  0.089184  0.082256  0  1.043976  0
H  H40  1  0.93989069  0.82677536  0.28789820  1  0.087008  0  0.102716  0.106192  0  0.98877  0
H  H41  1  0.01386488  0.74661058  0.42074424  1  0.068472  0  0.105471  0.113577  0  1.012247  0
H  H42  1  0.63781088  0.88381043  0.51804947  1  0.15914  0  0.12117  0.108683  0  0.999981  0
H  H43  1  0.79676073  0.00101279  0.48956477  1  0.12068  0  0.113761  0.124122  0  1.008562  0
H  H44  1  0.00606615  0.81727211  0.60980226  1  0.13855  0  0.111471  0.126892  0  1.014117  0
H  H45  1  0.83849230  0.70525575  0.62881523  1  0.138671  0  0.119649  0.101494  0  1.014112  0
H  H46  1  0.40017262  0.80854729  0.67731254  1  0.145933  0  0.119179  0.103288  0  1.032183  0
H  H47  1  0.38511749  0.93072025  0.82835292  1  0.101676  0  0.115542  0.123174  0  1.010456  0
H  H48  1  0.70811285  0.90285278  0.95540610  1  0.103153  0  0.1106  0.112704  0  1.018729  0
H  H49  1  0.71046120  0.78016810  0.79714472  1  0.131187  0  0.116836  0.096319  0  1.03065  0
H  H50  1  0.54126453  0.53418026  0.40760351  1  0.667165  0  0.285121  0.384329  0  0.961326  0
H  H51  1  0.64135190  0.51497376  0.47444942  1  0.6261  0  0.307478  0.405221  0  0.893095  0
H  H52  1  0.11258769  0.63982508  0.15403763  1  0.114832  0  0.105444  0.115728  0  0.998118  0
H  H53  1  0.18323310  0.75660814  0.05149052  1  0.043013  0  0.098796  0.101716  0  1.00289  0
H  H54  1  0.33991080  0.85012251  0.00023778  1  0.038943  0  0.086283  0.074596  0  1.066456  0
H  H55  1  0.52843933  0.83027104  0.06373954  1  0.049493  0  0.089211  0.082258  0  1.044183  0
H  H56  1  0.56010485  0.71209249  0.17321186  1  0.087033  0  0.102777  0.106272  0  0.988732  0
H  H57  1  0.48612653  0.57924558  0.25338339  1  0.068823  0  0.105486  0.113554  0  1.012178  0
H  H58  1  0.86219460  0.48195443  0.11618995  1  0.159016  0  0.121183  0.108719  0  1.000018  0
H  H59  1  0.70323800  0.51042924  0.99898456  1  0.121124  0  0.113749  0.124132  0  1.008745  0
H  H60  1  0.49393815  0.39019349  0.18272386  1  0.138869  0  0.111491  0.126924  0  1.014151  0
H  H61  1  0.66151379  0.37118244  0.29474264  1  0.138665  0  0.119693  0.101585  0  1.014021  0
H  H62  1  0.09982116  0.32269385  0.19146467  1  0.146007  0  0.11916  0.103312  0  1.032301  0
H  H63  1  0.11487885  0.17165835  0.06928758  1  0.101963  0  0.115557  0.12316  0  1.010507  0
H  H64  1  0.79187927  0.04460034  0.09713880  1  0.102988  0  0.110547  0.112715  0  1.018702  0
H  H65  1  0.78952857  0.20285805  0.21982959  1  0.131057  0  0.11677  0.096217  0  1.030708  0
H  H66  1  0.95873395  0.59239590  0.46581821  1  0.667168  0  0.285108  0.384341  0  0.961323  0
H  H67  1  0.85864793  0.52555309  0.48502761  1  0.626104  0  0.307495  0.405266  0  0.893041  0
C  C68  1  0.61494422  0.27055814  0.51032958  1  1.572174  0  0.189278  0.56283  0  4.229256  0
C  C69  1  0.71083279  0.23230450  0.55717967  1  -0.041835  0  -0.00785  -0.030547  0  3.923264  0
C  C70  1  0.69466491  0.17428397  0.62616939  1  -0.009464  0  -0.079332  -0.139462  0  3.933175  0
C  C71  1  0.78152661  0.14172500  0.67986246  1  -0.027835  0  -0.007515  0.068905  0  4.013355  0
C  C72  1  0.76564804  0.07777026  0.74680031  1  -0.038525  0  -0.088804  -0.121445  0  3.980123  0
C  C73  1  0.85303918  0.04959830  0.79898321  1  -0.038248  0  -0.103435  -0.093535  0  4.037018  0
C  C74  1  0.95987441  0.08530324  0.78773273  1  0.001081  0  -0.102173  -0.086707  0  4.041954  0
C  C75  1  0.97795732  0.14671863  0.72239435  1  -0.103275  0  -0.091151  -0.127499  0  3.986233  0
C  C76  1  0.88968161  0.17511973  0.66623438  1  -0.042356  0  -0.007246  0.073678  0  4.016747  0
C  C77  1  0.90449299  0.23206102  0.59347150  1  0.021812  0  -0.083556  -0.146815  0  3.935204  0
C  C78  1  0.81776313  0.25700885  0.53686171  1  -0.036609  0  -0.01053  -0.038447  0  3.949592  0
C  C79  1  0.83816203  0.29703000  0.44737270  1  1.576628  0  0.203311  0.580397  0  4.214031  0
C  C80  1  0.27895673  0.12803327  0.46407445  1  0.43105  0  0.047895  0.098346  0  3.930087  0
C  C81  1  0.19175631  0.06410277  0.48011740  1  0.035497  0  -0.073561  -0.184731  0  3.928456  0
C  C82  1  0.08739680  0.08434720  0.45423382  1  0.330782  0  0.104489  0.19565  0  4.041269  0
C  C83  1  0.07435707  0.16629515  0.41170137  1  -0.078831  0  -0.072959  -0.180947  0  3.907571  0
C  C84  1  0.16648996  0.22815107  0.40106802  1  0.51565  0  0.051103  0.105133  0  3.923529  0
C  C85  1  0.53255174  0.16797158  0.26027838  1  0.536294  0  0.056608  0.110835  0  3.911953  0
C  C86  1  0.54188372  0.10131889  0.17613114  1  -0.008678  0  -0.073221  -0.182259  0  3.902669  0
C  C87  1  0.45489523  0.07615269  0.09643550  1  0.304241  0  0.103366  0.190812  0  4.041637  0
C  C88  1  0.36098606  0.11673047  0.10526040  1  -0.085487  0  -0.0716  -0.179039  0  3.911667  0
C  C89  1  0.35878813  0.18319378  0.19221709  1  0.512319  0  0.05136  0.097506  0  3.937286  0
C  C90  1  0.88505550  0.48967033  0.72943288  1  1.572341  0  0.189342  0.562987  0  4.229141  0
C  C91  1  0.78916874  0.44281811  0.76768626  1  -0.041815  0  -0.007887  -0.030746  0  3.923291  0
C  C92  1  0.80533091  0.37383010  0.82570896  1  -0.009891  0  -0.079198  -0.139325  0  3.933162  0
C  C93  1  0.71847226  0.32013698  0.85826720  1  -0.028266  0  -0.007664  0.068879  0  4.013368  0
C  C94  1  0.73434840  0.25320129  0.92222076  1  -0.038254  0  -0.088751  -0.121446  0  3.980174  0
C  C95  1  0.64696113  0.20102105  0.95039601  1  -0.038818  0  -0.103402  -0.093454  0  4.036933  0
C  C96  1  0.54012542  0.21227908  0.91469121  1  0.001504  0  -0.10221  -0.086671  0  4.042182  0
C  C97  1  0.52204689  0.27761513  0.85327692  1  -0.103046  0  -0.091173  -0.127538  0  3.986631  0
C  C98  1  0.61031766  0.33377354  0.82487330  1  -0.042397  0  -0.007191  0.073717  0  4.016923  0
C  C99  1  0.59550666  0.40653352  0.76792952  1  0.021167  0  -0.083535  -0.146849  0  3.935443  0
C  C100  1  0.68223832  0.46313786  0.74298002  1  -0.037117  0  -0.010553  -0.038349  0  3.949485  0
C  C101  1  0.66184371  0.55263087  0.70296844  1  1.576877  0  0.203182  0.580327  0  4.213797  0
C  C102  1  0.22104634  0.53592749  0.87196519  1  0.430995  0  0.047802  0.098126  0  3.930181  0
C  C103  1  0.30824561  0.51988188  0.93589332  1  0.036124  0  -0.073547  -0.184741  0  3.928361  0
C  C104  1  0.41260894  0.54576720  0.91565183  1  0.330685  0  0.104539  0.19577  0  4.041351  0
C  C105  1  0.42564763  0.58830382  0.83371046  1  -0.079114  0  -0.072971  -0.18096  0  3.907896  0
C  C106  1  0.33351839  0.59893546  0.77185325  1  0.515554  0  0.051116  0.10517  0  3.923648  0
C  C107  1  0.96745230  0.73972087  0.83202684  1  0.53601  0  0.056537  0.110618  0  3.91192  0
C  C108  1  0.95811697  0.82386881  0.89868145  1  -0.009057  0  -0.073275  -0.182332  0  3.902883  0
C  C109  1  0.04510401  0.90356526  0.92385155  1  0.304646  0  0.103275  0.190659  0  4.041691  0
C  C110  1  0.13901418  0.89474259  0.88327543  1  -0.06377  0  -0.071427  -0.178828  0  3.911554  0
C  C111  1  0.14121269  0.80778549  0.81681088  1  0.512515  0  0.051297  0.097541  0  3.937199  0
C  C112  1  0.38505352  0.72943778  0.48966803  1  1.572163  0  0.189185  0.562788  0  4.229445  0
C  C113  1  0.28916670  0.76769219  0.44282045  1  -0.04185  0  -0.00787  -0.030663  0  3.923226  0
C  C114  1  0.30533168  0.82571423  0.37383205  1  -0.009371  0  -0.079273  -0.139339  0  3.9332  0
C  C115  1  0.21847207  0.85827166  0.32013540  1  -0.028286  0  -0.007575  0.068831  0  4.013406  0
C  C116  1  0.23434958  0.92222501  0.25320220  1  -0.038681  0  -0.088725  -0.121404  0  3.980091  0
C  C117  1  0.14696336  0.95039766  0.20101718  1  -0.038499  0  -0.103463  -0.093543  0  4.037079  0
C  C118  1  0.04012711  0.91469570  0.21226946  1  0.001118  0  -0.102108  -0.086622  0  4.041928  0
C  C119  1  0.02204404  0.85327953  0.27760482  1  -0.103039  0  -0.091114  -0.127455  0  3.986323  0
C  C120  1  0.11031562  0.82487770  0.33376485  1  -0.042448  0  -0.007277  0.073665  0  4.016825  0
C  C121  1  0.09550663  0.76793641  0.40652804  1  0.021906  0  -0.083622  -0.146907  0  3.935413  0
C  C122  1  0.18223316  0.74298783  0.46313728  1  -0.037493  0  -0.010512  -0.038373  0  3.94956  0
C  C123  1  0.16183732  0.70296597  0.55262800  1  1.577507  0  0.203072  0.580003  0  4.214354  0
C  C124  1  0.72104602  0.87196792  0.53592971  1  0.430838  0  0.047817  0.098206  0  3.930084  0
C  C125  1  0.80824317  0.93589390  0.51988129  1  0.036058  0  -0.073537  -0.184644  0  3.928125  0
C  C126  1  0.91260586  0.91564945  0.54576383  1  0.330842  0  0.104421  0.195575  0  4.041331  0
C  C127  1  0.92563967  0.83370381  0.58830164  1  -0.078939  0  -0.072929  -0.180967  0  3.907853  0
C  C128  1  0.83351211  0.77185081  0.59893330  1  0.515511  0  0.051157  0.105245  0  3.92364  0
C  C129  1  0.46744597  0.83203252  0.73972274  1  0.536295  0  0.056623  0.110925  0  3.911547  0
C  C130  1  0.45811056  0.89868816  0.82386931  1  -0.009044  0  -0.073214  -0.182352  0  3.902693  0
C  C131  1  0.54509194  0.92384630  0.90356843  1  0.304672  0  0.103331  0.190674  0  4.041567  0
C  C132  1  0.63900258  0.88326784  0.89474720  1  -0.085926  0  -0.07154  -0.178864  0  3.911645  0
C  C133  1  0.64120385  0.81680529  0.80779178  1  0.512484  0  0.051166  0.097311  0  3.937404  0
C  C134  1  0.11494488  0.51033523  0.27056739  1  1.572298  0  0.189269  0.56293  0  4.229234  0
C  C135  1  0.21082780  0.55717994  0.23230581  1  -0.041973  0  -0.007847  -0.030644  0  3.923185  0
C  C136  1  0.19466286  0.62617017  0.17428385  1  -0.009432  0  -0.079271  -0.139447  0  3.933498  0
C  C137  1  0.28152219  0.67985435  0.14172133  1  -0.027612  0  -0.007533  0.068819  0  4.013568  0
C  C138  1  0.26564620  0.74679078  0.07776720  1  -0.038818  0  -0.088753  -0.121232  0  3.980047  0
C  C139  1  0.35303010  0.79897845  0.04959418  1  -0.038452  0  -0.103367  -0.093553  0  4.036928  0
C  C140  1  0.45986731  0.78772411  0.08529907  1  0.001283  0  -0.10221  -0.08669  0  4.042167  0
C  C141  1  0.47794865  0.72239029  0.14671482  1  -0.10329  0  -0.091205  -0.127665  0  3.986379  0
C  C142  1  0.38967740  0.66622518  0.17511511  1  -0.042294  0  -0.007297  0.073776  0  4.016779  0
C  C143  1  0.40448521  0.59346522  0.23205920  1  0.021547  0  -0.083592  -0.146902  0  3.93522  0
C  C144  1  0.31775967  0.53685944  0.25701212  1  -0.036548  0  -0.010456  -0.03824  0  3.949464  0
C  C145  1  0.33815746  0.44737468  0.29703122  1  1.576152  0  0.203179  0.58036  0  4.213889  0
C  C146  1  0.77896328  0.46407214  0.12803458  1  0.43183  0  0.047818  0.098094  0  3.930117  0
C  C147  1  0.69175705  0.48011473  0.06410217  1  0.035372  0  -0.073555  -0.184639  0  3.928199  0
C  C148  1  0.58739830  0.45423246  0.08434979  1  0.330896  0  0.104406  0.195463  0  4.041562  0
C  C149  1  0.57436295  0.41169663  0.16629387  1  -0.079137  0  -0.072875  -0.180914  0  3.90781  0
C  C150  1  0.66649364  0.40106422  0.22814971  1  0.515553  0  0.051041  0.105091  0  3.923535  0
C  C151  1  0.03255022  0.26028330  0.16797851  1  0.536001  0  0.056572  0.110681  0  3.91215  0
C  C152  1  0.04188528  0.17613822  0.10131859  1  -0.009604  0  -0.073279  -0.182282  0  3.902944  0
C  C153  1  0.95489985  0.09644180  0.07615014  1  0.305269  0  0.103423  0.190874  0  4.04161  0
C  C154  1  0.86098951  0.10525935  0.11672969  1  -0.085648  0  -0.071557  -0.179145  0  3.911637  0
C  C155  1  0.85879048  0.19221793  0.18319443  1  0.512758  0  0.051381  0.097649  0  3.937333  0
N  N156  1  0.26675581  0.20911115  0.42649176  1  -1.225307  0  -0.3222  -0.229525  0  3.494481  0
N  N157  1  0.44306586  0.20880789  0.26773820  1  -1.202119  0  -0.310982  -0.230078  0  3.453289  0
N  N158  1  0.45457679  0.01224861  0.00490481  1  -0.438415  0  -0.130035  -0.11628  0  3.270557  0
N  N159  1  0.99201929  0.02465887  0.46665852  1  -0.492518  0  -0.128345  -0.113324  0  3.255571  0
N  N160  1  0.23324928  0.57351422  0.79088921  1  -1.22533  0  -0.322169  -0.229466  0  3.494359  0
N  N161  1  0.05694189  0.73226294  0.79119506  1  -1.202196  0  -0.310953  -0.229963  0  3.453077  0
N  N162  1  0.04542095  0.99509997  0.98775438  1  -0.485665  0  -0.130051  -0.116194  0  3.270418  0
N  N163  1  0.50798217  0.53333935  0.97534165  1  -0.492992  0  -0.128335  -0.11339  0  3.255398  0
N  N164  1  0.73324456  0.79089010  0.57351569  1  -1.225142  0  -0.322158  -0.229519  0  3.494336  0
N  N165  1  0.55693333  0.79119556  0.73226803  1  -1.201795  0  -0.310962  -0.230105  0  3.453052  0
N  N166  1  0.54541587  0.98775409  0.99510045  1  -0.485558  0  -0.130069  -0.116224  0  3.270393  0
N  N167  1  0.00798085  0.97533704  0.53333869  1  -0.436478  0  -0.128239  -0.113201  0  3.255585  0
N  N168  1  0.76676170  0.42648834  0.20910907  1  -1.225977  0  -0.322149  -0.229431  0  3.494503  0
N  N169  1  0.94306182  0.26773906  0.20881366  1  -1.202478  0  -0.311009  -0.230059  0  3.453437  0
N  N170  1  0.95458052  0.00490711  0.01224844  1  -0.438182  0  -0.130027  -0.116276  0  3.270434  0
N  N171  1  0.49202091  0.46665519  0.02466216  1  -0.436096  0  -0.128231  -0.113073  0  3.255337  0
O  O172  1  0.52230268  0.21434545  0.49796239  1  -1.167605  0  -0.343761  -0.577254  0  2.209651  0
O  O173  1  0.62645365  0.35492271  0.48713400  1  -1.178067  0  -0.331759  -0.562931  0  2.156698  0
O  O174  1  0.76997394  0.27051781  0.36857884  1  -1.188109  0  -0.316497  -0.56181  0  2.208425  0
O  O175  1  0.93079975  0.35315946  0.45373647  1  -1.176019  0  -0.330431  -0.582471  0  2.364081  0
O  O176  1  0.38622675  0.43177053  0.55306272  1  -1.254196  0  -0.590375  -0.742479  0  2.00178  0
O  O177  1  0.97770176  0.50203640  0.78564724  1  -1.167554  0  -0.343786  -0.577391  0  2.209604  0
O  O178  1  0.87355793  0.51286299  0.64507307  1  -1.178154  0  -0.331785  -0.562894  0  2.156785  0
O  O179  1  0.73004227  0.63142003  0.72947540  1  -1.187725  0  -0.316464  -0.561838  0  2.20834  0
O  O180  1  0.56920101  0.54628008  0.64684445  1  -1.176271  0  -0.330325  -0.582388  0  2.363834  0
O  O181  1  0.11378138  0.44693860  0.56823102  1  -1.254371  0  -0.590391  -0.742397  0  2.001833  0
O  O182  1  0.47769656  0.78565416  0.50203532  1  -1.167539  0  -0.343768  -0.577278  0  2.209559  0
O  O183  1  0.37355147  0.64507842  0.51286687  1  -1.178037  0  -0.33167  -0.562829  0  2.156875  0
O  O184  1  0.23002855  0.72947370  0.63142081  1  -1.188102  0  -0.316402  -0.56163  0  2.208484  0
O  O185  1  0.06919874  0.64684031  0.54627049  1  -1.176108  0  -0.330313  -0.582264  0  2.364078  0
O  O186  1  0.61377838  0.56823064  0.44694031  1  -1.254366  0  -0.590388  -0.742334  0  2.001862  0
O  O187  1  0.02230416  0.49796473  0.21435373  1  -1.167515  0  -0.343713  -0.577292  0  2.209727  0
O  O188  1  0.12645088  0.48714488  0.35493370  1  -1.178248  0  -0.331817  -0.562974  0  2.156617  0
O  O189  1  0.26995981  0.36858187  0.27052735  1  -1.187566  0  -0.31643  -0.561853  0  2.208343  0
O  O190  1  0.43079661  0.45372773  0.35315728  1  -1.176216  0  -0.330391  -0.582461  0  2.363863  0
O  O191  1  0.88622171  0.55306030  0.43176850  1  -1.254271  0  -0.59039  -0.742406  0  2.001867  0
