# generated using pymatgen
data_Mg3H54C54(NO2)8
_symmetry_space_group_name_H-M   'P 1'
_cell_length_a   11.65257592
_cell_length_b   13.10841052
_cell_length_c   26.59481513
_cell_angle_alpha   103.31434390
_cell_angle_beta   90.00010638
_cell_angle_gamma   90.00020179
_symmetry_Int_Tables_number   1
_chemical_formula_structural   Mg3H54C54(NO2)8
_chemical_formula_sum   'Mg6 H108 C108 N16 O32'
_cell_volume   3953.08276351
_cell_formula_units_Z   2
loop_
 _symmetry_equiv_pos_site_id
 _symmetry_equiv_pos_as_xyz
  1  'x, y, z'
loop_
 _atom_site_type_symbol
 _atom_site_label
 _atom_site_symmetry_multiplicity
 _atom_site_fract_x
 _atom_site_fract_y
 _atom_site_fract_z
 _atom_site_occupancy
 _atom_site_pbe_bader_charge
 _atom_site_pbe_bader_spin_density
 _atom_site_pbe_cm5_charge
 _atom_site_pbe_ddec_charge
 _atom_site_pbe_ddec_spin_density
 _atom_site_pbe_ddec_sum_bond_order
 _atom_site_pbe_magmom
Mg  Mg0  1  0.50000144  0.00000226  0.99999909  1  1.704861  0  0.812494  1.430023  0  1.361269  0
Mg  Mg1  1  0.49999965  0.50000105  0.49999880  1  1.704858  0  0.812474  1.429994  0  1.361306  0
Mg  Mg2  1  0.24464234  0.87174404  0.94307113  1  1.685903  0  0.820973  1.321963  0  1.469388  0
Mg  Mg3  1  0.24463846  0.62826285  0.55693013  1  1.685916  0  0.820972  1.321925  0  1.469388  0
Mg  Mg4  1  0.75535954  0.12826124  0.05692831  1  1.685974  0  0.82102  1.322049  0  1.469249  0
Mg  Mg5  1  0.75535655  0.37173780  0.44307220  1  1.685956  0  0.821008  1.321931  0  1.469448  0
H  H6  1  0.02704445  0.13808940  0.98235508  1  0.062092  0  0.105406  0.105981  0  1.02056  0
H  H7  1  0.02705249  0.36190994  0.51764762  1  0.0621  0  0.105362  0.105856  0  1.02057  0
H  H8  1  0.97294885  0.86190567  0.01764288  1  0.062145  0  0.105348  0.105858  0  1.020628  0
H  H9  1  0.97295025  0.63808833  0.48235332  1  0.062028  0  0.105432  0.106001  0  1.020518  0
H  H10  1  0.93531006  0.31023428  0.98631241  1  0.142666  0  0.103581  0.107056  0  1.067249  0
H  H11  1  0.93531655  0.18976441  0.51368683  1  0.142776  0  0.10362  0.107099  0  1.067137  0
H  H12  1  0.06468323  0.68976551  0.01368643  1  0.142751  0  0.10362  0.107103  0  1.067235  0
H  H13  1  0.06468790  0.81022758  0.48631305  1  0.143012  0  0.103628  0.107152  0  1.067126  0
H  H14  1  0.55031694  0.80881950  0.04873056  1  0.121815  0  0.109859  0.11323  0  1.042059  0
H  H15  1  0.55030983  0.69118480  0.45127091  1  0.121883  0  0.109848  0.113215  0  1.04207  0
H  H16  1  0.44969181  0.19118903  0.95127449  1  0.12189  0  0.10984  0.113173  0  1.042151  0
H  H17  1  0.44968861  0.30881819  0.54873092  1  0.12186  0  0.109822  0.113171  0  1.042099  0
H  H18  1  0.28483990  0.64164641  0.15276270  1  0.085007  0  0.104982  0.105698  0  1.018613  0
H  H19  1  0.28483731  0.85835133  0.34723408  1  0.085102  0  0.104995  0.105775  0  1.018627  0
H  H20  1  0.71516798  0.35835185  0.84723786  1  0.08501  0  0.104962  0.105661  0  1.018624  0
H  H21  1  0.71516800  0.14164922  0.65276410  1  0.085111  0  0.104974  0.105724  0  1.018566  0
H  H22  1  0.62690944  0.72956697  0.11981805  1  0.058679  0  0.109929  0.112549  0  0.990037  0
H  H23  1  0.62690578  0.77043366  0.38018158  1  0.058809  0  0.109919  0.112518  0  0.989857  0
H  H24  1  0.37309587  0.27043841  0.88018629  1  0.058974  0  0.109873  0.112504  0  0.990011  0
H  H25  1  0.37309267  0.22956220  0.61981646  1  0.058797  0  0.109851  0.112453  0  0.989984  0
H  H26  1  0.35129977  0.28818018  0.02577745  1  0.088703  0  0.103422  0.105222  0  1.025592  0
H  H27  1  0.35130830  0.21181746  0.47422708  1  0.088835  0  0.103452  0.105269  0  1.025481  0
H  H28  1  0.64869524  0.71180943  0.97422105  1  0.088488  0  0.103417  0.105143  0  1.02558  0
H  H29  1  0.64869701  0.78818239  0.52577478  1  0.088735  0  0.103414  0.105166  0  1.025589  0
H  H30  1  0.36854780  0.52918070  0.36262243  1  0.076458  0  0.101079  0.098111  0  1.057019  0
H  H31  1  0.36854476  0.97081110  0.13737453  1  0.076142  0  0.101005  0.098034  0  1.057086  0
H  H32  1  0.63146352  0.47081362  0.63737657  1  0.076398  0  0.100987  0.097987  0  1.057069  0
H  H33  1  0.63146226  0.02918319  0.86262334  1  0.076364  0  0.10101  0.097999  0  1.057078  0
H  H34  1  0.30990837  0.59569914  0.28440693  1  0.072673  0  0.103175  0.103242  0  1.003477  0
H  H35  1  0.30991398  0.90429172  0.21559289  1  0.072728  0  0.103238  0.103288  0  1.003462  0
H  H36  1  0.69009608  0.40429521  0.71559358  1  0.072575  0  0.103171  0.103179  0  1.00348  0
H  H37  1  0.69009304  0.09570256  0.78440461  1  0.072612  0  0.103181  0.103243  0  1.003481  0
H  H38  1  0.20853145  0.71893538  0.08133036  1  0.079932  0  0.105707  0.109899  0  1.009452  0
H  H39  1  0.20852629  0.78107623  0.41866974  1  0.079802  0  0.10566  0.109836  0  1.009414  0
H  H40  1  0.79147643  0.28106759  0.91867109  1  0.079805  0  0.10572  0.109953  0  1.009453  0
H  H41  1  0.79147387  0.21893296  0.58133012  1  0.079873  0  0.105741  0.109978  0  1.009452  0
H  H42  1  0.25841938  0.46451180  0.03115273  1  0.086365  0  0.103913  0.107159  0  1.01906  0
H  H43  1  0.25842719  0.03548621  0.46884838  1  0.086329  0  0.103954  0.107215  0  1.019136  0
H  H44  1  0.74158249  0.53548017  0.96884602  1  0.086392  0  0.103981  0.107341  0  1.019129  0
H  H45  1  0.74158241  0.96451047  0.53115126  1  0.086541  0  0.103877  0.107026  0  1.01905  0
H  H46  1  0.71065391  0.47977842  0.30399056  1  0.095547  0  0.106637  0.111496  0  0.992087  0
H  H47  1  0.71065362  0.02023217  0.19600927  1  0.095424  0  0.106567  0.111375  0  0.992078  0
H  H48  1  0.28935312  0.52022369  0.69600703  1  0.095558  0  0.10662  0.11149  0  0.991996  0
H  H49  1  0.28934997  0.97978029  0.80399658  1  0.095492  0  0.106577  0.111432  0  0.992103  0
H  H50  1  0.65591664  0.55337413  0.22767733  1  0.109202  0  0.105836  0.108004  0  1.0149  0
H  H51  1  0.65592180  0.94662657  0.27232046  1  0.109223  0  0.105864  0.107979  0  1.014909  0
H  H52  1  0.34408524  0.44662483  0.77231917  1  0.109237  0  0.105805  0.107936  0  1.015045  0
H  H53  1  0.34407836  0.05338273  0.72768393  1  0.109315  0  0.105843  0.108017  0  1.014937  0
H  H54  1  0.01946142  0.98480916  0.93114412  1  0.118594  0  0.12966  0.052551  0  1.019455  0
H  H55  1  0.01945372  0.51518906  0.56885639  1  0.118466  0  0.12966  0.052547  0  1.019497  0
H  H56  1  0.98052844  0.01518602  0.06885837  1  0.118434  0  0.129706  0.052658  0  1.019472  0
H  H57  1  0.98052756  0.48480993  0.43114199  1  0.118497  0  0.129666  0.052595  0  1.019447  0
H  H58  1  0.17671334  0.60331243  0.87946509  1  0.028821  0  0.10595  0.074709  0  0.95157  0
H  H59  1  0.17671681  0.89669421  0.62053646  1  0.028815  0  0.105909  0.074659  0  0.951448  0
H  H60  1  0.82328424  0.39668970  0.12053363  1  0.028869  0  0.105931  0.074654  0  0.951487  0
H  H61  1  0.82327906  0.10331032  0.37946477  1  0.028903  0  0.105925  0.074665  0  0.951465  0
H  H62  1  0.19872156  0.63737454  0.94768051  1  0.060419  0  0.098381  0.060318  0  1.017287  0
H  H63  1  0.19872546  0.86262904  0.55232035  1  0.060501  0  0.09841  0.060283  0  1.017315  0
H  H64  1  0.80127430  0.36262526  0.05231871  1  0.060449  0  0.098395  0.060308  0  1.017307  0
H  H65  1  0.80127212  0.13737469  0.44768005  1  0.060458  0  0.09838  0.06029  0  1.017384  0
H  H66  1  0.36588418  0.51164190  0.86701745  1  0.053095  0  0.087046  0.079923  0  1.022764  0
H  H67  1  0.36589064  0.98836229  0.63298324  1  0.053276  0  0.08706  0.079889  0  1.022761  0
H  H68  1  0.63411083  0.48835633  0.13298160  1  0.053334  0  0.087063  0.079932  0  1.022781  0
H  H69  1  0.63410780  0.01164381  0.36701817  1  0.053305  0  0.087068  0.079915  0  1.022783  0
H  H70  1  0.27591093  0.46067745  0.90834948  1  0.067302  0  0.095984  0.095949  0  0.974818  0
H  H71  1  0.27591715  0.03932511  0.59165114  1  0.067355  0  0.095949  0.095935  0  0.974796  0
H  H72  1  0.72408494  0.53932316  0.09165096  1  0.067378  0  0.095978  0.095947  0  0.974815  0
H  H73  1  0.72408387  0.96067783  0.40834879  1  0.067374  0  0.095971  0.095941  0  0.97485  0
H  H74  1  0.38032341  0.56436526  0.98628970  1  0.009618  0  0.083788  0.11192  0  1.029664  0
H  H75  1  0.38032486  0.93563509  0.51371171  1  0.009493  0  0.08376  0.11188  0  1.029669  0
H  H76  1  0.61967160  0.43563768  0.01371024  1  0.009451  0  0.083747  0.111853  0  1.029668  0
H  H77  1  0.61967616  0.06436165  0.48629056  1  0.009395  0  0.083746  0.111839  0  1.029679  0
H  H78  1  0.47294759  0.61849920  0.94653670  1  -0.010316  0  0.08299  0.101399  0  1.022849  0
H  H79  1  0.47294899  0.88150069  0.55346399  1  -0.010604  0  0.082996  0.10139  0  1.022838  0
H  H80  1  0.52704914  0.38150294  0.05346277  1  -0.010212  0  0.082993  0.101398  0  1.022827  0
H  H81  1  0.52704859  0.11849764  0.44653921  1  -0.010032  0  0.082993  0.101408  0  1.022818  0
H  H82  1  0.47651991  0.48265648  0.94299649  1  0.038459  0  0.085151  0.119677  0  1.029811  0
H  H83  1  0.47652332  0.01734287  0.55700283  1  0.039149  0  0.085155  0.119678  0  1.029931  0
H  H84  1  0.52347682  0.51734567  0.05700299  1  0.039123  0  0.085161  0.119665  0  1.029919  0
H  H85  1  0.52347684  0.98265384  0.44299832  1  0.039138  0  0.085144  0.119638  0  1.02992  0
H  H86  1  0.90726015  0.75592720  0.82112916  1  0.041228  0  0.106172  0.115632  0  0.976406  0
H  H87  1  0.90726068  0.74407037  0.67887126  1  0.041182  0  0.106192  0.115624  0  0.976494  0
H  H88  1  0.09273744  0.24407103  0.17887027  1  0.041215  0  0.106166  0.115641  0  0.976416  0
H  H89  1  0.09273262  0.25592792  0.32113043  1  0.041227  0  0.106194  0.115694  0  0.9765  0
H  H90  1  0.78711685  0.75848164  0.86349225  1  0.069296  0  0.113316  0.12899  0  0.975151  0
H  H91  1  0.78711633  0.74151942  0.63650920  1  0.069291  0  0.113331  0.128991  0  0.975092  0
H  H92  1  0.21287816  0.24151268  0.13650675  1  0.069382  0  0.113345  0.129069  0  0.975158  0
H  H93  1  0.21287439  0.25848517  0.36349467  1  0.069444  0  0.113355  0.12905  0  0.97523  0
H  H94  1  0.92523219  0.71629780  0.88058131  1  0.097383  0  0.114085  0.132498  0  0.994821  0
H  H95  1  0.92523262  0.78370063  0.61941960  1  0.09745  0  0.114087  0.132474  0  0.994796  0
H  H96  1  0.07476368  0.28370122  0.11941821  1  0.097506  0  0.114147  0.132567  0  0.994745  0
H  H97  1  0.07476067  0.21629689  0.38058276  1  0.097429  0  0.114181  0.13265  0  0.994752  0
H  H98  1  0.84963474  0.03309486  0.91425345  1  0.109833  0  0.114093  0.13494  0  1.000826  0
H  H99  1  0.84962804  0.46690514  0.58574850  1  0.109926  0  0.114117  0.13498  0  1.000831  0
H  H100  1  0.15036542  0.96690420  0.08574794  1  0.109834  0  0.114092  0.134917  0  1.000847  0
H  H101  1  0.15036268  0.53309705  0.41425286  1  0.109825  0  0.114093  0.134963  0  1.000853  0
H  H102  1  0.73876403  0.93705368  0.90352971  1  0.106626  0  0.112768  0.136444  0  0.995401  0
H  H103  1  0.73875663  0.56294645  0.59647273  1  0.107094  0  0.112721  0.136431  0  0.995354  0
H  H104  1  0.26123184  0.06295008  0.09647182  1  0.106701  0  0.112702  0.136328  0  0.995667  0
H  H105  1  0.26123066  0.43705184  0.40352896  1  0.106713  0  0.112722  0.136303  0  0.99569  0
H  H106  1  0.80886951  0.97013482  0.84951302  1  0.037211  0  0.102872  0.116733  0  0.984243  0
H  H107  1  0.80886307  0.52986474  0.65048792  1  0.037147  0  0.102896  0.11676  0  0.984177  0
H  H108  1  0.19113151  0.02986501  0.15048771  1  0.037183  0  0.102895  0.11675  0  0.984227  0
H  H109  1  0.19112851  0.47013667  0.34951373  1  0.037197  0  0.102883  0.116722  0  0.984287  0
H  H110  1  0.37939156  0.71237407  0.91314046  1  0.613826  0  0.330016  0.360263  0  0.901151  0
H  H111  1  0.37939188  0.78762627  0.58686058  1  0.61389  0  0.329985  0.360115  0  0.901328  0
H  H112  1  0.62060688  0.28762418  0.08685934  1  0.613798  0  0.330018  0.360232  0  0.901172  0
H  H113  1  0.62060313  0.21237515  0.41314108  1  0.613761  0  0.330038  0.360176  0  0.90125  0
C  C114  1  0.25254046  0.09748235  0.99580707  1  1.589516  0  0.223883  0.615024  0  4.208395  0
C  C115  1  0.25255203  0.40251626  0.50419574  1  1.589738  0  0.22386  0.61491  0  4.208441  0
C  C116  1  0.74745198  0.90251517  0.00419529  1  1.589537  0  0.223862  0.614938  0  4.208187  0
C  C117  1  0.74745671  0.59748269  0.49580076  1  1.589365  0  0.223862  0.615044  0  4.208175  0
C  C118  1  0.32692938  0.81756715  0.02042866  1  1.530448  0  0.210762  0.579051  0  4.207017  0
C  C119  1  0.32692493  0.68243706  0.47957073  1  1.530142  0  0.210721  0.579007  0  4.206852  0
C  C120  1  0.67308280  0.18244050  0.97957216  1  1.529346  0  0.21075  0.579096  0  4.206819  0
C  C121  1  0.67307351  0.31756117  0.52042832  1  1.53052  0  0.210795  0.579145  0  4.206887  0
C  C122  1  0.19577514  0.20256226  0.00222828  1  0.00658  0  -0.015154  -0.035411  0  3.942578  0
C  C123  1  0.19578325  0.29743632  0.49777397  1  0.006199  0  -0.015168  -0.035425  0  3.942469  0
C  C124  1  0.80421472  0.79743286  0.99777194  1  0.007111  0  -0.015196  -0.035478  0  3.942329  0
C  C125  1  0.80421605  0.70256264  0.50222291  1  0.00642  0  -0.015189  -0.035508  0  3.94278  0
C  C126  1  0.37487413  0.77063053  0.06178487  1  0.013962  0  -0.013068  -0.032043  0  3.958218  0
C  C127  1  0.37486799  0.72937230  0.43821479  1  0.013963  0  -0.013076  -0.032209  0  3.958275  0
C  C128  1  0.62513632  0.22937715  0.93821708  1  0.014241  0  -0.013007  -0.032051  0  3.958294  0
C  C129  1  0.62512874  0.27062595  0.56178539  1  0.013816  0  -0.013081  -0.032179  0  3.958419  0
C  C130  1  0.07810199  0.20951121  0.99191099  1  -0.01066  0  -0.081871  -0.077757  0  3.971355  0
C  C131  1  0.07811056  0.29048749  0.50808980  1  -0.010054  0  -0.081881  -0.077677  0  3.97123  0
C  C132  1  0.92189045  0.79048468  0.00808856  1  -0.011327  0  -0.081834  -0.077662  0  3.971232  0
C  C133  1  0.92189303  0.70950990  0.49190691  1  -0.010389  0  -0.081862  -0.077753  0  3.971133  0
C  C134  1  0.54199603  0.50006352  0.33753244  1  -0.063175  0  -0.010191  -0.021016  0  3.920583  0
C  C135  1  0.54199665  0.99992889  0.16246323  1  -0.063254  0  -0.010267  -0.0212  0  3.920621  0
C  C136  1  0.45801185  0.49993311  0.66246531  1  -0.063133  0  -0.010213  -0.021147  0  3.920645  0
C  C137  1  0.45800866  0.00007407  0.83753746  1  -0.063195  0  -0.010191  -0.021136  0  3.920611  0
C  C138  1  0.02655307  0.30563899  0.99416462  1  -0.053714  0  -0.084  -0.145491  0  3.945742  0
C  C139  1  0.02656039  0.19435793  0.50583480  1  -0.053984  0  -0.084034  -0.145539  0  3.945762  0
C  C140  1  0.97344366  0.69435845  0.00583434  1  -0.05339  0  -0.084024  -0.145522  0  3.945774  0
C  C141  1  0.97344663  0.80563793  0.49416324  1  -0.054013  0  -0.0841  -0.145575  0  3.945707  0
C  C142  1  0.49307377  0.77208526  0.07170612  1  -0.071542  0  -0.074937  -0.076996  0  3.943097  0
C  C143  1  0.49306586  0.72791329  0.42829242  1  -0.072412  0  -0.074876  -0.076881  0  3.942697  0
C  C144  1  0.50693497  0.22791932  0.92829700  1  -0.072089  0  -0.074873  -0.076757  0  3.942767  0
C  C145  1  0.50693087  0.27208337  0.57170646  1  -0.07224  0  -0.074865  -0.076766  0  3.942923  0
C  C146  1  0.09310039  0.39757969  0.00714573  1  0.326794  0  0.084437  0.162658  0  4.057897  0
C  C147  1  0.09310512  0.10241843  0.49285262  1  0.326838  0  0.084468  0.162694  0  4.058257  0
C  C148  1  0.90690063  0.60241619  0.99285307  1  0.326787  0  0.084504  0.162812  0  4.05774  0
C  C149  1  0.90690362  0.89757818  0.50714400  1  0.326724  0  0.084446  0.162564  0  4.057862  0
C  C150  1  0.34156387  0.67887382  0.12981043  1  -0.035715  0  -0.086143  -0.149439  0  3.96684  0
C  C151  1  0.34156122  0.82112493  0.37018688  1  -0.035994  0  -0.086145  -0.149602  0  3.96703  0
C  C152  1  0.65844230  0.32112756  0.87018971  1  -0.035751  0  -0.086047  -0.149242  0  3.966814  0
C  C153  1  0.65843979  0.17887643  0.62981213  1  -0.035905  0  -0.086119  -0.149414  0  3.966809  0
C  C154  1  0.53552190  0.72817008  0.11088152  1  -0.02154  0  -0.074842  -0.13598  0  3.938304  0
C  C155  1  0.53551657  0.77182547  0.38911561  1  -0.021085  0  -0.074819  -0.135939  0  3.9378  0
C  C156  1  0.46448427  0.27183684  0.88912148  1  -0.021028  0  -0.074798  -0.136046  0  3.938023  0
C  C157  1  0.46448360  0.22816804  0.61088218  1  -0.020756  0  -0.074775  -0.135994  0  3.938141  0
C  C158  1  0.26062969  0.29473790  0.01707376  1  -0.068926  0  -0.085904  -0.091366  0  3.98635  0
C  C159  1  0.26063651  0.20525855  0.48292718  1  -0.069169  0  -0.08589  -0.091265  0  3.986184  0
C  C160  1  0.73936532  0.70525255  0.98292670  1  -0.068939  0  -0.085761  -0.090996  0  3.986219  0
C  C161  1  0.73937052  0.79473731  0.51707087  1  -0.069215  0  -0.08582  -0.091143  0  3.986491  0
C  C162  1  0.42906225  0.53218773  0.33203357  1  0.049128  0  -0.088277  -0.09588  0  4.007361  0
C  C163  1  0.42906534  0.96780271  0.16796292  1  0.049361  0  -0.088214  -0.095808  0  4.007545  0
C  C164  1  0.57094563  0.46780499  0.66796413  1  0.048807  0  -0.08831  -0.09589  0  4.007278  0
C  C165  1  0.57094597  0.03220103  0.83203786  1  0.04879  0  -0.08834  -0.095918  0  4.007208  0
C  C166  1  0.57459572  0.46413929  0.38547762  1  1.589218  0  0.223232  0.620336  0  4.190158  0
C  C167  1  0.57460116  0.03585747  0.11452061  1  1.589334  0  0.223317  0.620602  0  4.189997  0
C  C168  1  0.42541131  0.53586206  0.61452102  1  1.589465  0  0.223399  0.62064  0  4.189739  0
C  C169  1  0.42541616  0.96414706  0.88548063  1  1.589313  0  0.223344  0.620588  0  4.189918  0
C  C170  1  0.46002526  0.68339789  0.14083133  1  0.323224  0  0.090914  0.170428  0  4.035302  0
C  C171  1  0.46002084  0.81659818  0.35916692  1  0.323467  0  0.090883  0.170464  0  4.035152  0
C  C172  1  0.53998177  0.31660507  0.85916974  1  0.32279  0  0.090871  0.170445  0  4.03515  0
C  C173  1  0.53997847  0.18339929  0.64083318  1  0.323198  0  0.090913  0.1705  0  4.035209  0
C  C174  1  0.39715341  0.56967392  0.28942228  1  -0.052799  0  -0.08371  -0.142905  0  3.975631  0
C  C175  1  0.39715825  0.93031872  0.21057254  1  -0.052754  0  -0.083718  -0.142887  0  3.9756  0
C  C176  1  0.60284846  0.43032120  0.71057757  1  -0.052592  0  -0.083646  -0.142751  0  3.975694  0
C  C177  1  0.60284620  0.06968257  0.78942346  1  -0.052565  0  -0.08369  -0.142867  0  3.975801  0
C  C178  1  0.29978512  0.72205205  0.09058537  1  0.007732  0  -0.082076  -0.087947  0  3.977644  0
C  C179  1  0.29978162  0.77795283  0.40941332  1  0.008014  0  -0.082099  -0.087837  0  3.97754  0
C  C180  1  0.70022104  0.27795247  0.90941511  1  0.007738  0  -0.082203  -0.08822  0  3.978055  0
C  C181  1  0.70021854  0.22205087  0.59058557  1  0.007776  0  -0.082166  -0.088131  0  3.977904  0
C  C182  1  0.20966948  0.39179960  0.01985075  1  -0.070769  0  -0.083417  -0.144312  0  3.959528  0
C  C183  1  0.20967247  0.10819816  0.48014728  1  -0.070881  0  -0.083459  -0.144435  0  3.959803  0
C  C184  1  0.79032725  0.60819313  0.98014733  1  -0.070791  0  -0.083642  -0.1448  0  3.959733  0
C  C185  1  0.79033027  0.89179765  0.51984850  1  -0.070623  0  -0.083393  -0.144191  0  3.959262  0
C  C186  1  0.47927168  0.57873852  0.25204232  1  0.350131  0  0.086227  0.166838  0  4.053474  0
C  C187  1  0.47927749  0.92126075  0.24795591  1  0.350081  0  0.086249  0.166891  0  4.053296  0
C  C188  1  0.52073278  0.42125813  0.74795618  1  0.350053  0  0.086183  0.166714  0  4.05365  0
C  C189  1  0.52073039  0.07874066  0.75204536  1  0.350127  0  0.086313  0.167045  0  4.053396  0
C  C190  1  0.62344405  0.50630742  0.29932492  1  -0.033402  0  -0.079337  -0.07795  0  3.961511  0
C  C191  1  0.62344309  0.99369782  0.20067183  1  -0.033282  0  -0.079179  -0.077692  0  3.960972  0
C  C192  1  0.37656555  0.49369155  0.70067271  1  -0.033178  0  -0.079294  -0.077898  0  3.961541  0
C  C193  1  0.37655965  0.00631849  0.79933144  1  -0.033243  0  -0.079286  -0.077824  0  3.96153  0
C  C194  1  0.59326359  0.54645674  0.25711463  1  -0.075241  0  -0.08286  -0.142709  0  3.943361  0
C  C195  1  0.59326179  0.95355161  0.24288581  1  -0.075144  0  -0.082962  -0.142768  0  3.94319  0
C  C196  1  0.40674172  0.45354067  0.74288283  1  -0.075152  0  -0.082809  -0.142581  0  3.943617  0
C  C197  1  0.40673494  0.04646162  0.75711938  1  -0.075176  0  -0.082853  -0.142789  0  3.943441  0
C  C198  1  0.00850055  0.90195570  0.91103783  1  1.386855  0  0.19091  0.320341  0  4.081669  0
C  C199  1  0.00849583  0.59804168  0.58896220  1  1.387374  0  0.190932  0.320377  0  4.081792  0
C  C200  1  0.99149103  0.09803636  0.08896506  1  1.386932  0  0.19073  0.320026  0  4.082036  0
C  C201  1  0.99149145  0.40195888  0.41103635  1  1.386462  0  0.190758  0.320128  0  4.08195  0
C  C202  1  0.24225174  0.62073113  0.90993037  1  0.406981  0  -0.070463  0.084759  0  3.867846  0
C  C203  1  0.24225587  0.87927183  0.59007084  1  0.406627  0  -0.070405  0.084891  0  3.867663  0
C  C204  1  0.75774499  0.37926866  0.09006885  1  0.40683  0  -0.070414  0.084937  0  3.867647  0
C  C205  1  0.75774086  0.12073192  0.40993032  1  0.406778  0  -0.070356  0.084941  0  3.867704  0
C  C206  1  0.32608881  0.53039128  0.90559377  1  -0.052772  0  -0.173081  -0.157675  0  3.994322  0
C  C207  1  0.32609331  0.96961119  0.59440670  1  -0.052704  0  -0.173104  -0.157698  0  3.994365  0
C  C208  1  0.67390620  0.46960930  0.09440554  1  -0.052936  0  -0.173135  -0.15779  0  3.994435  0
C  C209  1  0.67390427  0.03039021  0.40559420  1  -0.052863  0  -0.173194  -0.157843  0  3.994443  0
C  C210  1  0.41858179  0.55012774  0.94754471  1  -0.051877  0  -0.247468  -0.351127  0  3.945734  0
C  C211  1  0.41858604  0.94987352  0.55245646  1  -0.052148  0  -0.247441  -0.351052  0  3.945831  0
C  C212  1  0.58141408  0.44987520  0.05245523  1  -0.052522  0  -0.247421  -0.35099  0  3.945773  0
C  C213  1  0.58141412  0.05012556  0.44754569  1  -0.052684  0  -0.247366  -0.350902  0  3.945678  0
C  C214  1  0.87998646  0.77075687  0.86182519  1  0.269568  0  -0.124589  -0.267198  0  3.903464  0
C  C215  1  0.87998591  0.72924218  0.63817575  1  0.269548  0  -0.124647  -0.26716  0  3.903483  0
C  C216  1  0.12001112  0.22923981  0.13817445  1  0.269443  0  -0.124737  -0.267401  0  3.903585  0
C  C217  1  0.12000739  0.27075845  0.36182581  1  0.269457  0  -0.124778  -0.267512  0  3.903679  0
C  C218  1  0.82120847  0.95912611  0.88895614  1  0.227084  0  -0.128532  -0.284121  0  3.894547  0
C  C219  1  0.82120448  0.54087351  0.61104519  1  0.226528  0  -0.128568  -0.28419  0  3.894553  0
C  C220  1  0.17878911  0.04087372  0.11104459  1  0.227093  0  -0.128541  -0.284004  0  3.894847  0
C  C221  1  0.17878538  0.45912712  0.38895600  1  0.227137  0  -0.128521  -0.283983  0  3.89488  0
N  N222  1  0.50973530  0.64371891  0.18101192  1  -0.476542  0  -0.148513  -0.137289  0  3.264798  0
N  N223  1  0.50973516  0.85628046  0.31898598  1  -0.476466  0  -0.148502  -0.137282  0  3.264934  0
N  N224  1  0.49027172  0.35628875  0.81898928  1  -0.476311  0  -0.14856  -0.137422  0  3.265198  0
N  N225  1  0.49026672  0.14371304  0.68101181  1  -0.476484  0  -0.148532  -0.137286  0  3.265052  0
N  N226  1  0.43612070  0.62073963  0.21174790  1  -0.492103  0  -0.148535  -0.13375  0  3.312539  0
N  N227  1  0.43612223  0.87926104  0.28825007  1  -0.492241  0  -0.148538  -0.133786  0  3.312813  0
N  N228  1  0.56388461  0.37926174  0.78825186  1  -0.492238  0  -0.148405  -0.133509  0  3.312814  0
N  N229  1  0.56387964  0.12073875  0.71174915  1  -0.492294  0  -0.148539  -0.133831  0  3.31279  0
N  N230  1  0.05049971  0.49901871  0.00883061  1  -0.464936  0  -0.151478  -0.136916  0  3.281915  0
N  N231  1  0.05050146  0.00097846  0.49116722  1  -0.464791  0  -0.1515  -0.13702  0  3.281881  0
N  N232  1  0.94950388  0.50097873  0.99116798  1  -0.503578  0  -0.151451  -0.136938  0  3.281834  0
N  N233  1  0.94950642  0.99901662  0.50883111  1  -0.503681  0  -0.151418  -0.136758  0  3.28173  0
N  N234  1  0.90632083  0.87796365  0.88893384  1  -1.219611  0  -0.277863  0.030419  0  3.726532  0
N  N235  1  0.90631801  0.62203472  0.61106742  1  -1.219597  0  -0.277828  0.030406  0  3.726629  0
N  N236  1  0.09367247  0.12203305  0.11106692  1  -1.219765  0  -0.277691  0.030533  0  3.726757  0
N  N237  1  0.09367013  0.37796668  0.38893348  1  -1.219776  0  -0.277691  0.030594  0  3.726618  0
O  O238  1  0.22052368  0.80774578  0.00976482  1  -1.21999  0  -0.334946  -0.602094  0  2.206798  0
O  O239  1  0.22051846  0.69225648  0.49023503  1  -1.219818  0  -0.335006  -0.60216  0  2.206617  0
O  O240  1  0.77948936  0.19226187  0.99023600  1  -1.219207  0  -0.334986  -0.60221  0  2.206769  0
O  O241  1  0.77947998  0.30774332  0.50976457  1  -1.220068  0  -0.335029  -0.602197  0  2.206728  0
O  O242  1  0.29890291  0.71620902  0.90371946  1  -1.153323  0  -0.414252  -0.524801  0  2.308044  0
O  O243  1  0.29890411  0.78379339  0.59628286  1  -1.153403  0  -0.414233  -0.524633  0  2.308187  0
O  O244  1  0.70109468  0.28379159  0.09628135  1  -1.153306  0  -0.414257  -0.524797  0  2.308015  0
O  O245  1  0.70109090  0.21620724  0.40371871  1  -1.153321  0  -0.414309  -0.524721  0  2.308107  0
O  O246  1  0.08743404  0.83637561  0.91001655  1  -1.21462  0  -0.332742  -0.516988  0  2.291784  0
O  O247  1  0.08743130  0.66362361  0.58998262  1  -1.214979  0  -0.332721  -0.516954  0  2.291856  0
O  O248  1  0.91255840  0.16362116  0.08998685  1  -1.21456  0  -0.332667  -0.516837  0  2.291863  0
O  O249  1  0.91255684  0.33637378  0.41001409  1  -1.214169  0  -0.332708  -0.516946  0  2.291848  0
O  O250  1  0.39291780  0.86432491  0.99383752  1  -1.273393  0  -0.36074  -0.712773  0  2.325659  0
O  O251  1  0.39291374  0.63568093  0.50616262  1  -1.273284  0  -0.360639  -0.712608  0  2.325569  0
O  O252  1  0.60709437  0.13567799  0.00616053  1  -1.273225  0  -0.360734  -0.712774  0  2.325479  0
O  O253  1  0.60708127  0.36431811  0.49383765  1  -1.273321  0  -0.360669  -0.712709  0  2.325624  0
O  O254  1  0.49876880  0.47343699  0.42060189  1  -1.22768  0  -0.353324  -0.65572  0  2.264037  0
O  O255  1  0.49876805  0.02657825  0.07939602  1  -1.227699  0  -0.353447  -0.655876  0  2.263649  0
O  O256  1  0.50123393  0.52657612  0.57939840  1  -1.227974  0  -0.353353  -0.655767  0  2.263981  0
O  O257  1  0.50123640  0.97342616  0.92059994  1  -1.227852  0  -0.353234  -0.655625  0  2.264276  0
O  O258  1  0.67572866  0.42869922  0.38775639  1  -1.239446  0  -0.364257  -0.65001  0  2.222613  0
O  O259  1  0.67573080  0.07129242  0.11224099  1  -1.239648  0  -0.364199  -0.650079  0  2.222833  0
O  O260  1  0.32427150  0.57130456  0.61224590  1  -1.239378  0  -0.36431  -0.650154  0  2.222336  0
O  O261  1  0.32426936  0.92870420  0.88775600  1  -1.239365  0  -0.364375  -0.65024  0  2.222134  0
O  O262  1  0.35946836  0.09699182  0.00446965  1  -1.228561  0  -0.344732  -0.647258  0  2.296625  0
O  O263  1  0.35947516  0.40300808  0.49552986  1  -1.228772  0  -0.344742  -0.647197  0  2.296938  0
O  O264  1  0.64051807  0.90300168  0.99552813  1  -1.228585  0  -0.344742  -0.647215  0  2.296416  0
O  O265  1  0.64052071  0.59699328  0.50446953  1  -1.228676  0  -0.344763  -0.647298  0  2.296318  0
O  O266  1  0.18955677  0.01646942  0.98135472  1  -1.244476  0  -0.362157  -0.66153  0  2.274944  0
O  O267  1  0.18956272  0.48352979  0.51865036  1  -1.244295  0  -0.362127  -0.66155  0  2.274853  0
O  O268  1  0.81043052  0.98352503  0.01864994  1  -1.244422  0  -0.362097  -0.661532  0  2.275047  0
O  O269  1  0.81043143  0.51647389  0.48134778  1  -1.244195  0  -0.3621  -0.661535  0  2.27518  0
