# generated using pymatgen
data_CoH14C14S2N2O5
_symmetry_space_group_name_H-M   'P 1'
_cell_length_a   5.62149562
_cell_length_b   8.73879538
_cell_length_c   17.24081346
_cell_angle_alpha   104.39745680
_cell_angle_beta   88.79751200
_cell_angle_gamma   107.26448215
_symmetry_Int_Tables_number   1
_chemical_formula_structural   CoH14C14S2N2O5
_chemical_formula_sum   'Co2 H28 C28 S4 N4 O10'
_cell_volume   782.11827706
_cell_formula_units_Z   2
loop_
 _symmetry_equiv_pos_site_id
 _symmetry_equiv_pos_as_xyz
  1  'x, y, z'
loop_
 _atom_site_type_symbol
 _atom_site_label
 _atom_site_symmetry_multiplicity
 _atom_site_fract_x
 _atom_site_fract_y
 _atom_site_fract_z
 _atom_site_occupancy
 _atom_site_hle17_ddec_charge
 _atom_site_hle17_ddec_spin_density
 _atom_site_hle17_ddec_sum_bond_order
 _atom_site_hle17_magmom
 _atom_site_hse06_10hf_ddec_charge
 _atom_site_hse06_10hf_ddec_spin_density
 _atom_site_hse06_10hf_ddec_sum_bond_order
 _atom_site_hse06_10hf_magmom
 _atom_site_hse06_ddec_charge
 _atom_site_hse06_ddec_spin_density
 _atom_site_hse06_ddec_sum_bond_order
 _atom_site_hse06_magmom
 _atom_site_pbe_cm5_charge
 _atom_site_pbe_ddec_charge
 _atom_site_pbe_ddec_spin_density
 _atom_site_pbe_ddec_sum_bond_order
 _atom_site_pbe_magmom
Co  Co0  1  0.02858796  0.00599764  0.75162030  1  0.744013  1.134266  2.309662  1.02  0.7282  1.044166  2.745778  0.952  0.801561  1.035992  2.66487  0.956  0.635507  0.686067  1.047879  2.796991  0.944
Co  Co1  1  0.97141691  0.99400365  0.24837663  1  0.744017  1.13428  2.309455  1.02  0.728231  1.044182  2.745422  0.952  0.80152  1.036007  2.664585  0.956  0.635503  0.686087  1.047889  2.796639  0.944
H  H2  1  0.88083501  0.29446980  0.74994492  1  0.100258  -0.000228  0.942691  0.0  0.109827  -0.000415  1.000485  0.0  0.112324  -0.000327  0.997258  0.0  0.12532  0.107653  -0.000484  1.003325  0.0
H  H3  1  0.43256202  0.26996713  0.24299850  1  0.101041  -0.000314  0.964818  0.0  0.107122  -0.000505  1.030754  0.0  0.110018  -0.000404  1.026931  0.0  0.12183  0.104744  -0.000584  1.033877  0.0
H  H4  1  0.11917738  0.70553288  0.25006025  1  0.100226  -0.000227  0.942439  0.0  0.109841  -0.000415  1.000209  0.0  0.112341  -0.000327  0.996979  0.0  0.125263  0.107664  -0.000484  1.003051  0.0
H  H5  1  0.56742830  0.73004878  0.75700440  1  0.101016  -0.000314  0.964706  0.0  0.107178  -0.000505  1.03058  0.0  0.110077  -0.000404  1.026752  0.0  0.121843  0.104794  -0.000584  1.033713  0.0
H  H6  1  0.96933855  0.57705985  0.83530282  1  0.111433  -0.000466  0.962443  0.0  0.123334  -0.000183  1.020032  0.0  0.125834  -0.000152  1.020587  0.0  0.10757  0.121446  -0.000209  1.019945  0.0
H  H7  1  0.61994105  0.55207796  0.32706634  1  0.111923  -0.000472  0.959301  0.0  0.122068  -0.000174  1.020119  0.0  0.124692  -0.000144  1.020844  0.0  0.10489  0.120121  -0.0002  1.019946  0.0
H  H8  1  0.03064108  0.42294842  0.16469771  1  0.111474  -0.000467  0.962594  0.0  0.123458  -0.000183  1.02008  0.0  0.125956  -0.000152  1.020633  0.0  0.107613  0.121568  -0.000209  1.019998  0.0
H  H9  1  0.38006396  0.44792757  0.67293386  1  0.111934  -0.000471  0.959291  0.0  0.122118  -0.000174  1.020047  0.0  0.124744  -0.000144  1.020771  0.0  0.104915  0.120169  -0.0002  1.019869  0.0
H  H10  1  0.60236019  0.49978351  0.94214919  1  0.09956  -0.000278  0.985965  0.0  0.107353  -2.8e-05  1.053643  0.0  0.11001  -4.2e-05  1.053812  0.0  0.097746  0.105538  -8e-06  1.053593  0.0
H  H11  1  0.91704525  0.50399641  0.44220832  1  0.097709  -0.000304  0.986991  0.0  0.106103  -4.3e-05  1.054094  0.0  0.108898  -4.9e-05  1.053871  0.0  0.097973  0.104179  -3.4e-05  1.054359  0.0
H  H12  1  0.39760837  0.50021660  0.05785302  1  0.09968  -0.000278  0.986072  0.0  0.107441  -2.8e-05  1.053791  0.0  0.110093  -4.1e-05  1.053965  0.0  0.097796  0.105631  -8e-06  1.053733  0.0
H  H13  1  0.08294402  0.49599864  0.55779396  1  0.09757  -0.000304  0.987222  0.0  0.106044  -4.3e-05  1.054222  0.0  0.108841  -4.9e-05  1.053995  0.0  0.098008  0.104122  -3.4e-05  1.054481  0.0
H  H14  1  0.47874658  0.21719921  0.85424286  1  0.08473  0.000431  0.975248  0.001  0.087364  0.000552  1.050581  0.0  0.090441  0.000451  1.046056  0.0  0.11518  0.084812  0.000642  1.054307  0.0
H  H15  1  0.76444269  0.22068752  0.35664082  1  0.083721  0.000407  0.983453  0.001  0.085135  0.000558  1.059726  0.0  0.088275  0.000471  1.055327  0.0  0.11459  0.08245  0.000629  1.063542  0.001
H  H16  1  0.52124998  0.78277768  0.14576076  1  0.08474  0.000431  0.975312  0.001  0.087364  0.000552  1.050649  0.0  0.09043  0.000451  1.046134  0.0  0.115227  0.084817  0.000641  1.054375  0.0
H  H17  1  0.23554090  0.77929582  0.64336398  1  0.083649  0.000407  0.983719  0.001  0.085117  0.000558  1.059934  0.0  0.088256  0.000471  1.055535  0.0  0.114558  0.082457  0.000629  1.063726  0.001
H  H18  1  0.93212803  0.76423900  0.95635069  1  0.12242  -0.000129  0.935267  0.0  0.133749  -0.000138  0.999404  0.0  0.136139  -8.6e-05  0.998346  0.0  0.10364  0.13225  -0.000194  1.000087  0.0
H  H19  1  0.82987054  0.75063402  0.44642581  1  0.119174  -2.6e-05  0.947276  0.0  0.128317  -6.1e-05  1.015111  0.0  0.13076  -4.5e-05  1.01386  0.0  0.10001  0.126723  -8e-05  1.015944  0.0
H  H20  1  0.06784460  0.23574637  0.04363745  1  0.12257  -0.00013  0.935439  0.0  0.133885  -0.000138  0.999543  0.0  0.13627  -8.6e-05  0.998498  0.0  0.103709  0.132381  -0.000194  1.000216  0.0
H  H21  1  0.17017395  0.24937587  0.55357345  1  0.119176  -2.6e-05  0.947326  0.0  0.128306  -6.1e-05  1.015174  0.0  0.130741  -4.5e-05  1.01392  0.0  0.100017  0.126702  -8e-05  1.016008  0.0
H  H22  1  0.15410013  0.95138480  0.00613952  1  0.14191  -0.000101  0.944846  0.0  0.152511  -0.000136  1.010559  0.0  0.156172  -9.9e-05  1.008271  0.0  0.110773  0.149849  -0.000165  1.012387  0.0
H  H23  1  0.77900259  0.92810337  0.51278448  1  0.153408  -0.000182  0.916345  0.0  0.165651  -0.000221  0.97623  0.0  0.169139  -0.000154  0.974201  0.0  0.115664  0.163059  -0.00028  0.977899  0.0
H  H24  1  0.84590012  0.04861883  0.99387044  1  0.141999  -0.000101  0.944973  0.0  0.152531  -0.000136  1.010713  0.0  0.156192  -9.9e-05  1.008423  0.0  0.110799  0.149867  -0.000165  1.012534  0.0
H  H25  1  0.22101992  0.07190126  0.48721151  1  0.153384  -0.000183  0.916276  0.0  0.165601  -0.000221  0.9762  0.0  0.169083  -0.000154  0.974171  0.0  0.11566  0.163003  -0.00028  0.977867  0.0
H  H26  1  0.54534657  0.97435497  0.78707397  1  0.412756  0.0006  0.905605  0.0  0.384345  0.001303  0.96856  0.001  0.394911  0.00099  0.952937  0.0  0.290168  0.377057  0.001577  0.979326  0.001
H  H27  1  0.41353826  0.97152085  0.29524472  1  0.418481  0.00031  0.893999  0.0  0.389338  0.000979  0.957406  0.001  0.400252  0.00072  0.941399  0.0  0.289846  0.381821  0.001203  0.968398  0.001
H  H28  1  0.45466388  0.02565093  0.21292857  1  0.412723  0.0006  0.905646  0.0  0.384359  0.001302  0.968527  0.001  0.394909  0.000989  0.952918  0.0  0.290194  0.377073  0.001576  0.979287  0.001
H  H29  1  0.58646078  0.02847947  0.70475332  1  0.418512  0.00031  0.893955  0.0  0.389376  0.000979  0.957351  0.001  0.400291  0.00072  0.941343  0.0  0.289873  0.381863  0.001203  0.968337  0.001
C  C30  1  0.03499908  0.34354069  0.79487889  1  0.138051  -0.016514  3.669763  -0.011  0.109279  -0.005636  3.921929  -0.003  0.122562  -0.003956  3.935272  -0.002  0.044156  0.099722  -0.007518  3.914326  -0.004
C  C31  1  0.32605727  0.32419826  0.28950443  1  0.125591  -0.018209  3.652868  -0.012  0.099624  -0.006378  3.903169  -0.004  0.11292  -0.004508  3.917015  -0.003  0.042326  0.089926  -0.008456  3.895463  -0.005
C  C32  1  0.96497432  0.65645473  0.20512466  1  0.137982  -0.016523  3.669446  -0.011  0.109123  -0.005638  3.921581  -0.003  0.122396  -0.003956  3.934925  -0.002  0.044191  0.099571  -0.007522  3.91397  -0.004
C  C33  1  0.67395773  0.67581326  0.71049567  1  0.125567  -0.018202  3.653215  -0.012  0.099534  -0.006377  3.903517  -0.004  0.112831  -0.004508  3.91737  -0.003  0.042251  0.089841  -0.008453  3.895797  -0.005
C  C34  1  0.08646865  0.50273307  0.84374680  1  -0.173891  0.003836  3.732215  0.006  -0.193042  9.5e-05  3.980956  0.001  -0.203145  0.000184  4.000759  0.001  -0.096112  -0.186457  6.4e-05  3.968506  0.001
C  C35  1  0.43042107  0.48424158  0.33722157  1  -0.174551  0.004087  3.720043  0.006  -0.192272  9.3e-05  3.967412  0.001  -0.202781  0.000202  3.987375  0.001  -0.097142  -0.185393  7e-05  3.954879  0.001
C  C36  1  0.91351551  0.49726202  0.15624852  1  -0.173803  0.003835  3.732468  0.006  -0.193078  9.4e-05  3.981184  0.001  -0.203178  0.000184  4.000985  0.001  -0.096108  -0.186493  6.4e-05  3.968742  0.001
C  C37  1  0.56958934  0.51576794  0.66278070  1  -0.17457  0.004089  3.719819  0.006  -0.192327  9.4e-05  3.967151  0.001  -0.202836  0.000202  3.987116  0.001  -0.097141  -0.185439  7.1e-05  3.954607  0.001
C  C38  1  0.28318064  0.56148290  0.90284625  1  0.085377  -0.015842  3.800293  -0.011  0.100105  -0.004667  4.056085  -0.003  0.111678  -0.002596  4.073132  -0.002  0.003712  0.091484  -0.007445  4.044859  -0.005
C  C39  1  0.29306050  0.55117421  0.39839059  1  0.071539  -0.016016  3.808539  -0.011  0.086534  -0.004715  4.066662  -0.003  0.098066  -0.002697  4.084115  -0.002  0.00108  0.078001  -0.007392  4.055206  -0.005
C  C40  1  0.71681157  0.43851460  0.09715623  1  0.08527  -0.015838  3.800392  -0.011  0.100112  -0.004666  4.056047  -0.003  0.111689  -0.002596  4.07309  -0.002  0.003756  0.091479  -0.007443  4.044838  -0.005
C  C41  1  0.70695447  0.44882594  0.60160737  1  0.071452  -0.016017  3.808655  -0.011  0.086494  -0.004715  4.066714  -0.003  0.098017  -0.002698  4.084183  -0.002  0.001081  0.077953  -0.007393  4.055269  -0.005
C  C42  1  0.43499287  0.45885782  0.90255810  1  -0.198639  0.004243  3.773352  0.007  -0.21516  0.000485  4.023076  0.001  -0.225359  0.000493  4.042335  0.001  -0.103454  -0.208329  0.000538  4.010794  0.002
C  C43  1  0.04233700  0.45660227  0.40060081  1  -0.191482  0.004425  3.774055  0.007  -0.207246  0.000587  4.022056  0.001  -0.217057  0.000611  4.040851  0.001  -0.101934  -0.20087  0.000613  4.010125  0.002
C  C44  1  0.56498965  0.54114897  0.09744114  1  -0.198837  0.004244  3.773297  0.007  -0.215391  0.000485  4.023045  0.001  -0.225588  0.000493  4.042303  0.001  -0.103608  -0.208557  0.000539  4.010764  0.002
C  C45  1  0.95765252  0.54338915  0.59939476  1  -0.191289  0.004423  3.774388  0.007  -0.207108  0.000587  4.022362  0.001  -0.216916  0.000611  4.041155  0.001  -0.102015  -0.200731  0.000613  4.010437  0.002
C  C46  1  0.36720012  0.29955004  0.85332311  1  0.114288  -0.013808  3.713773  -0.01  0.084222  -0.002463  3.97177  -0.002  0.096709  -0.001334  3.986424  -0.001  0.034637  0.074287  -0.003839  3.965128  -0.003
C  C47  1  0.95332954  0.29777422  0.35211489  1  0.119567  -0.013109  3.707703  -0.009  0.090339  -0.001883  3.964413  -0.001  0.102253  -0.001018  3.979545  -0.001  0.035653  0.081575  -0.002988  3.956334  -0.002
C  C48  1  0.63277634  0.70044825  0.14668299  1  0.114523  -0.013793  3.713975  -0.01  0.084381  -0.00246  3.971978  -0.002  0.096866  -0.001333  3.986621  -0.001  0.034812  0.074456  -0.003834  3.965315  -0.003
C  C49  1  0.04667404  0.70222046  0.64787916  1  0.119611  -0.013121  3.707525  -0.009  0.090309  -0.001887  3.964288  -0.001  0.10223  -0.001021  3.97942  -0.001  0.035657  0.081512  -0.002993  3.956232  -0.002
C  C50  1  0.12506078  0.84214662  0.95497947  1  -0.315872  -0.002424  3.645819  -0.002  -0.347704  -0.001521  3.897446  -0.001  -0.352859  -0.001218  3.901971  -0.001  -0.151678  -0.344343  -0.001665  3.894607  -0.001
C  C51  1  0.71235019  0.83319445  0.45586295  1  -0.307778  -0.00225  3.616377  -0.001  -0.339875  -0.001346  3.86947  -0.001  -0.344597  -0.001064  3.873322  -0.001  -0.146977  -0.336619  -0.001458  3.866786  -0.001
C  C52  1  0.87496313  0.15785302  0.04500910  1  -0.31596  -0.002425  3.645926  -0.002  -0.347765  -0.001522  3.89763  -0.001  -0.352925  -0.001217  3.902162  -0.001  -0.151777  -0.344361  -0.001666  3.894733  -0.001
C  C53  1  0.28765781  0.16679865  0.54413618  1  -0.307718  -0.00225  3.616175  -0.001  -0.339789  -0.001345  3.869299  -0.001  -0.344473  -0.001065  3.873098  -0.001  -0.146965  -0.336493  -0.001458  3.866573  -0.001
C  C54  1  0.16443707  0.89452439  0.87601321  1  0.674527  -0.003034  3.874294  -0.002  0.629573  -0.000795  4.185949  -0.001  0.664924  -0.000195  4.18104  0.0  0.207553  0.605711  -0.00125  4.187711  -0.001
C  C55  1  0.72835891  0.91909719  0.38767171  1  0.67879  -0.002676  3.861633  -0.001  0.633873  -0.000824  4.172337  -0.001  0.669276  -0.000239  4.167155  0.0  0.206588  0.61  -0.001234  4.174317  -0.001
C  C56  1  0.83556955  0.10548433  0.12398435  1  0.674366  -0.003035  3.874315  -0.002  0.629452  -0.000796  4.185901  -0.001  0.664808  -0.000195  4.180992  0.0  0.207552  0.605566  -0.001251  4.187684  -0.001
C  C57  1  0.27167279  0.08090095  0.61232951  1  0.678777  -0.002678  3.861671  -0.001  0.633792  -0.000824  4.172486  -0.001  0.66919  -0.000239  4.167303  0.0  0.206511  0.609901  -0.001235  4.174482  -0.001
S  S58  1  0.34627759  0.74545758  0.97780537  1  0.078605  -0.004169  2.442953  -0.002  0.078757  -0.001722  2.775923  -0.001  0.074248  -0.000919  2.774958  0.0  0.043772  0.081519  -0.002668  2.777183  -0.001
S  S59  1  0.39724579  0.73074119  0.47570118  1  0.087966  -0.005158  2.480787  -0.002  0.084272  -0.00228  2.824829  -0.001  0.079286  -0.001306  2.824588  -0.001  0.047349  0.087385  -0.003411  2.825388  -0.001
S  S60  1  0.65370270  0.25453714  0.02219460  1  0.078602  -0.004169  2.442829  -0.002  0.078728  -0.001722  2.775746  -0.001  0.074218  -0.000919  2.77478  0.0  0.043753  0.081485  -0.002668  2.776992  -0.001
S  S61  1  0.60276714  0.26925507  0.52430228  1  0.087949  -0.005158  2.480807  -0.002  0.084255  -0.002281  2.82481  -0.001  0.079257  -0.001306  2.824559  -0.001  0.047318  0.087355  -0.003411  2.825358  -0.001
N  N62  1  0.16266553  0.23814171  0.80227710  1  -0.258091  -0.014873  3.358062  -0.009  -0.210714  -0.011806  3.64224  -0.009  -0.23766  -0.011064  3.656213  -0.008  -0.349413  -0.194971  -0.011628  3.634137  -0.009
N  N63  1  0.09535167  0.22703203  0.29915296  1  -0.274291  -0.013858  3.365086  -0.008  -0.228125  -0.0115  3.651551  -0.008  -0.255514  -0.010838  3.665725  -0.008  -0.352563  -0.212103  -0.011161  3.643295  -0.008
N  N64  1  0.83730885  0.76185863  0.19771289  1  -0.258216  -0.014875  3.358323  -0.009  -0.210648  -0.011807  3.642303  -0.009  -0.23755  -0.011065  3.656248  -0.008  -0.349535  -0.194909  -0.011627  3.634204  -0.009
N  N65  1  0.90463742  0.77296994  0.70084701  1  -0.274272  -0.013857  3.365305  -0.008  -0.228082  -0.0115  3.651806  -0.008  -0.255502  -0.010836  3.665993  -0.008  -0.352467  -0.212063  -0.011162  3.643558  -0.008
O  O66  1  0.00210062  0.95807760  0.85701971  1  -0.551101  -0.019237  2.079548  -0.015  -0.521791  -0.011278  2.354726  -0.009  -0.561845  -0.011055  2.346831  -0.009  -0.302035  -0.493747  -0.009885  2.358158  -0.008
O  O67  1  0.93133833  0.93332167  0.35048223  1  -0.560551  -0.022758  2.101826  -0.018  -0.531754  -0.011948  2.382948  -0.01  -0.571843  -0.011378  2.374009  -0.01  -0.30172  -0.503663  -0.010939  2.386999  -0.009
O  O68  1  0.99791994  0.04193942  0.14298182  1  -0.551076  -0.019248  2.079582  -0.015  -0.521777  -0.011285  2.354742  -0.009  -0.561825  -0.011063  2.346856  -0.009  -0.302036  -0.493725  -0.009888  2.35819  -0.008
O  O69  1  0.06867752  0.06666939  0.64951961  1  -0.560486  -0.022762  2.10178  -0.018  -0.53168  -0.011951  2.382992  -0.01  -0.571765  -0.011382  2.373998  -0.01  -0.301638  -0.50359  -0.010941  2.38705  -0.009
O  O70  1  0.34426374  0.87075292  0.83584911  1  -0.625495  0.002509  2.058476  0.003  -0.579511  0.004832  2.299445  0.006  -0.605217  0.003878  2.289853  0.005  -0.306946  -0.561222  0.006066  2.305326  0.008
O  O71  1  0.55001255  0.96992733  0.37498878  1  -0.623205  0.000592  2.039197  0.001  -0.573644  0.002093  2.2749  0.002  -0.598495  0.001713  2.264544  0.002  -0.309221  -0.556285  0.002667  2.28152  0.003
O  O72  1  0.65574435  0.12925176  0.16415334  1  -0.625426  0.002508  2.058469  0.003  -0.57946  0.004832  2.299387  0.006  -0.60515  0.003877  2.289768  0.005  -0.30694  -0.561166  0.006066  2.305279  0.008
O  O73  1  0.45001328  0.03008100  0.62501449  1  -0.623187  0.000592  2.039404  0.001  -0.573559  0.002092  2.275048  0.002  -0.598411  0.001712  2.264691  0.002  -0.309205  -0.556211  0.002666  2.281684  0.003
O  O74  1  0.67257834  0.03920365  0.75695913  1  -0.82196  0.030733  1.990033  0.057  -0.786291  0.026923  2.201956  0.046  -0.815093  0.021184  2.167126  0.037  -0.578382  -0.763496  0.033228  2.224516  0.055
O  O75  1  0.32743609  0.96079165  0.24303900  1  -0.82186  0.030728  1.989972  0.057  -0.786233  0.02692  2.201841  0.046  -0.815008  0.02118  2.167067  0.037  -0.57838  -0.763458  0.033225  2.224453  0.055
