# generated using pymatgen
data_HgH9C12I3N2
_symmetry_space_group_name_H-M   'P 1'
_cell_length_a   4.33973454
_cell_length_b   15.54001222
_cell_length_c   23.37617083
_cell_angle_alpha   90.00051786
_cell_angle_beta   89.99980655
_cell_angle_gamma   95.78472916
_symmetry_Int_Tables_number   1
_chemical_formula_structural   HgH9C12I3N2
_chemical_formula_sum   'Hg4 H36 C48 I12 N8'
_cell_volume   1568.44987637
_cell_formula_units_Z   4
loop_
 _symmetry_equiv_pos_site_id
 _symmetry_equiv_pos_as_xyz
  1  'x, y, z'
loop_
 _atom_site_type_symbol
 _atom_site_label
 _atom_site_symmetry_multiplicity
 _atom_site_fract_x
 _atom_site_fract_y
 _atom_site_fract_z
 _atom_site_occupancy
 _atom_site_hle17_bader_spin_density
 _atom_site_hle17_ddec_charge
 _atom_site_hle17_ddec_spin_density
 _atom_site_hle17_ddec_sum_bond_order
 _atom_site_hle17_magmom
 _atom_site_hse06_10hf_bader_spin_density
 _atom_site_hse06_10hf_ddec_charge
 _atom_site_hse06_10hf_ddec_spin_density
 _atom_site_hse06_10hf_ddec_sum_bond_order
 _atom_site_hse06_10hf_magmom
 _atom_site_hse06_bader_spin_density
 _atom_site_hse06_ddec_charge
 _atom_site_hse06_ddec_spin_density
 _atom_site_hse06_ddec_sum_bond_order
 _atom_site_hse06_magmom
 _atom_site_pbe_bader_spin_density
 _atom_site_pbe_cm5_charge
 _atom_site_pbe_ddec_charge
 _atom_site_pbe_ddec_spin_density
 _atom_site_pbe_ddec_sum_bond_order
 _atom_site_pbe_magmom
Hg  Hg0  1  0.29308728  0.79694448  0.74549139  1  0  0.476378  0  2.221903  0  0  0.359226  0  2.707731  0  0  0.400998  0  2.684343  0  0  0.335624  0.331077  0  2.724012  0
Hg  Hg1  1  0.70692207  0.70305509  0.24549419  1  0  0.476417  0  2.221866  0  0  0.359264  0  2.707684  0  0  0.401033  0  2.684299  0  0  0.335652  0.331114  0  2.723964  0
Hg  Hg2  1  0.70692102  0.20305883  0.25451040  1  0  0.476372  0  2.221888  0  0  0.359224  0  2.707707  0  0  0.400989  0  2.684324  0  0  0.33562  0.331074  0  2.723987  0
Hg  Hg3  1  0.29309063  0.29694111  0.75450290  1  0  0.476403  0  2.221837  0  0  0.359238  0  2.707677  0  0  0.401009  0  2.684291  0  0  0.335639  0.331089  0  2.723957  0
H  H4  1  0.56552365  0.00245709  0.75972090  1  0  0.072895  0  0.961935  0  0  0.076019  0  1.037841  0  0  0.079364  0  1.034418  0  0  0.093635  0.073615  0  1.04029  0
H  H5  1  0.43449161  0.49754680  0.25972097  1  0  0.072932  0  0.961966  0  0  0.076049  0  1.037865  0  0  0.079393  0  1.034445  0  0  0.093654  0.073645  0  1.040315  0
H  H6  1  0.43447796  0.99754686  0.24028003  1  0  0.07288  0  0.961957  0  0  0.076051  0  1.037799  0  0  0.079395  0  1.03438  0  0  0.093628  0.073647  0  1.04025  0
H  H7  1  0.56553375  0.50245264  0.74027655  1  0  0.072882  0  0.96196  0  0  0.076044  0  1.037807  0  0  0.079389  0  1.034387  0  0  0.093635  0.073643  0  1.040254  0
H  H8  1  0.51595162  0.13291926  0.81982141  1  0  0.092773  0  0.985836  0  0  0.098124  0  1.059714  0  0  0.101302  0  1.058717  0  0  0.087696  0.09583  0  1.060548  0
H  H9  1  0.48404059  0.36708088  0.31981979  1  0  0.092779  0  0.985709  0  0  0.098083  0  1.059671  0  0  0.10126  0  1.058676  0  0  0.087675  0.095788  0  1.060505  0
H  H10  1  0.48407212  0.86708212  0.18018424  1  0  0.092741  0  0.985845  0  0  0.098104  0  1.059756  0  0  0.101255  0  1.058783  0  0  0.087673  0.095813  0  1.060587  0
H  H11  1  0.51596656  0.63291919  0.68017815  1  0  0.092805  0  0.985706  0  0  0.098115  0  1.059651  0  0  0.101286  0  1.05866  0  0  0.087677  0.095821  0  1.060484  0
H  H12  1  0.88657034  0.97426395  0.92888532  1  0  0.117446  0  0.939352  0  0  0.124081  0  1.003666  0  0  0.128521  0  1.000616  0  0  0.11086  0.12089  0  1.005998  0
H  H13  1  0.11343410  0.52573673  0.42888831  1  0  0.117408  0  0.939364  0  0  0.12404  0  1.003685  0  0  0.128479  0  1.000638  0  0  0.110861  0.12085  0  1.006016  0
H  H14  1  0.11344233  0.02573871  0.07111519  1  0  0.117356  0  0.93944  0  0  0.124007  0  1.003746  0  0  0.12845  0  1.000693  0  0  0.110817  0.120811  0  1.006075  0
H  H15  1  0.88656730  0.47426011  0.57111349  1  0  0.117443  0  0.939366  0  0  0.124075  0  1.00368  0  0  0.128515  0  1.000632  0  0  0.110866  0.120884  0  1.006011  0
H  H16  1  0.96701066  0.84846996  0.86412409  1  0  0.068437  0  0.967873  0  0  0.075309  0  1.039316  0  0  0.077812  0  1.037506  0  0  0.09844  0.073511  0  1.040612  0
H  H17  1  0.03301989  0.65152989  0.36412576  1  0  0.068465  0  0.967929  0  0  0.075307  0  1.039395  0  0  0.07781  0  1.037583  0  0  0.09842  0.073509  0  1.040688  0
H  H18  1  0.03298381  0.15153334  0.13587428  1  0  0.068452  0  0.967851  0  0  0.075284  0  1.039336  0  0  0.077785  0  1.037528  0  0  0.098415  0.073487  0  1.040632  0
H  H19  1  0.96699833  0.34846890  0.63587433  1  0  0.068468  0  0.967912  0  0  0.075328  0  1.039342  0  0  0.077831  0  1.03753  0  0  0.098435  0.07353  0  1.040638  0
H  H20  1  0.29295359  0.20006759  0.90085763  1  0  0.05383  0  0.962858  0  0  0.060961  0  1.037485  0  0  0.064654  0  1.033511  0  0  0.096214  0.058297  0  1.040339  0
H  H21  1  0.70702593  0.29993296  0.40085203  1  0  0.053633  0  0.962973  0  0  0.060839  0  1.037549  0  0  0.064549  0  1.033536  0  0  0.096118  0.058174  0  1.040403  0
H  H22  1  0.70707200  0.79993250  0.09914588  1  0  0.053848  0  0.96284  0  0  0.06104  0  1.037423  0  0  0.064738  0  1.033438  0  0  0.096207  0.05837  0  1.040281  0
H  H23  1  0.29295726  0.70006451  0.59914463  1  0  0.053756  0  0.962907  0  0  0.060972  0  1.037468  0  0  0.064661  0  1.033502  0  0  0.096182  0.058306  0  1.040325  0
H  H24  1  0.56210743  0.13374568  0.03667089  1  0  0.098192  0  0.947366  0  0  0.109839  0  1.00701  0  0  0.112469  0  1.006182  0  0  0.102329  0.107997  0  1.007643  0
H  H25  1  0.43787748  0.36625332  0.53666499  1  0  0.098118  0  0.94747  0  0  0.109782  0  1.007102  0  0  0.112411  0  1.006276  0  0  0.102317  0.107942  0  1.007729  0
H  H26  1  0.43789326  0.86625569  0.96332748  1  0  0.098204  0  0.947332  0  0  0.109876  0  1.006957  0  0  0.112506  0  1.006128  0  0  0.102361  0.108034  0  1.00759  0
H  H27  1  0.56210432  0.63374674  0.46333039  1  0  0.098166  0  0.947443  0  0  0.109793  0  1.007116  0  0  0.112423  0  1.006287  0  0  0.102327  0.107953  0  1.007743  0
H  H28  1  0.41358689  0.25827328  0.09531394  1  0  0.091707  0  0.974291  0  0  0.101494  0  1.041648  0  0  0.104476  0  1.039978  0  0  0.084955  0.099309  0  1.042971  0
H  H29  1  0.58639088  0.24172778  0.59531061  1  0  0.091691  0  0.974319  0  0  0.101483  0  1.041654  0  0  0.104464  0  1.03998  0  0  0.084921  0.099298  0  1.042977  0
H  H30  1  0.58639514  0.74172743  0.90468315  1  0  0.091624  0  0.974387  0  0  0.101418  0  1.041737  0  0  0.104405  0  1.040067  0  0  0.084918  0.099233  0  1.043058  0
H  H31  1  0.41359391  0.75827422  0.40468905  1  0  0.091633  0  0.974275  0  0  0.101424  0  1.041621  0  0  0.104405  0  1.039953  0  0  0.084902  0.09924  0  1.042941  0
H  H32  1  0.01659545  0.43172722  0.99062334  1  0  0.07804  0  1.014669  0  0  0.082984  0  1.091951  0  0  0.086806  0  1.088983  0  0  0.077757  0.080225  0  1.094107  0
H  H33  1  0.98334500  0.06827126  0.49062599  1  0  0.078115  0  1.014563  0  0  0.083013  0  1.091872  0  0  0.086839  0  1.088901  0  0  0.07775  0.080255  0  1.094026  0
H  H34  1  0.98340570  0.56827544  0.00937631  1  0  0.078112  0  1.014625  0  0  0.083044  0  1.091914  0  0  0.086866  0  1.088947  0  0  0.077773  0.080287  0  1.094068  0
H  H35  1  0.01663082  0.93172492  0.50937752  1  0  0.078089  0  1.014463  0  0  0.082981  0  1.091808  0  0  0.086803  0  1.088842  0  0  0.077759  0.080224  0  1.093962  0
H  H36  1  0.17085446  0.31023798  0.93564642  1  0  0.093258  0  0.972482  0  0  0.102725  0  1.039023  0  0  0.105641  0  1.037315  0  0  0.088579  0.100596  0  1.040436  0
H  H37  1  0.82906589  0.18975976  0.43565077  1  0  0.093239  0  0.972527  0  0  0.102665  0  1.039113  0  0  0.105572  0  1.037421  0  0  0.088499  0.100534  0  1.04053  0
H  H38  1  0.82913286  0.68976467  0.06435195  1  0  0.093309  0  0.972489  0  0  0.102749  0  1.039032  0  0  0.105669  0  1.037314  0  0  0.088602  0.10062  0  1.040444  0
H  H39  1  0.17091661  0.81023577  0.56435017  1  0  0.093333  0  0.972431  0  0  0.102742  0  1.03902  0  0  0.105677  0  1.037269  0  0  0.088552  0.100612  0  1.040435  0
C  C40  1  0.41745448  0.99879559  0.79761854  1  0  0.124661  0  3.719602  0  0  0.096002  0  3.969216  0  0  0.103679  0  3.986919  0  0  0.037041  0.090994  0  3.957169  0
C  C41  1  0.58255494  0.50120660  0.29761764  1  0  0.1246  0  3.71958  0  0  0.095954  0  3.969202  0  0  0.103631  0  3.986907  0  0  0.037034  0.090945  0  3.957151  0
C  C42  1  0.58255128  0.00120707  0.20238410  1  0  0.124607  0  3.719438  0  0  0.095914  0  3.96906  0  0  0.10359  0  3.98676  0  0  0.037022  0.090906  0  3.957012  0
C  C43  1  0.41746166  0.49879413  0.70238116  1  0  0.12462  0  3.719667  0  0  0.095936  0  3.969271  0  0  0.103612  0  3.986974  0  0  0.037033  0.090927  0  3.95722  0
C  C44  1  0.38807318  0.07127266  0.83125513  1  0  -0.148514  0  3.708575  0  0  -0.163139  0  3.948603  0  0  -0.171045  0  3.971079  0  0  -0.083518  -0.158037  0  3.933621  0
C  C45  1  0.61192420  0.42872957  0.33125508  1  0  -0.148437  0  3.708437  0  0  -0.163066  0  3.948441  0  0  -0.170977  0  3.970926  0  0  -0.083472  -0.157961  0  3.933458  0
C  C46  1  0.61194826  0.92872871  0.16874752  1  0  -0.14844  0  3.708433  0  0  -0.163087  0  3.948451  0  0  -0.170969  0  3.970946  0  0  -0.083476  -0.157985  0  3.933467  0
C  C47  1  0.38807097  0.57126920  0.66874457  1  0  -0.148541  0  3.708487  0  0  -0.163129  0  3.948506  0  0  -0.171029  0  3.970988  0  0  -0.083528  -0.158026  0  3.933523  0
C  C48  1  0.19131436  0.06413805  0.87903246  1  0  0.096379  0  3.77616  0  0  0.112428  0  4.003019  0  0  0.115322  0  4.024503  0  0  0.009591  0.110629  0  3.988416  0
C  C49  1  0.80867532  0.43586416  0.37903232  1  0  0.0963  0  3.776107  0  0  0.112449  0  4.002871  0  0  0.115339  0  4.024362  0  0  0.009567  0.110649  0  3.988271  0
C  C50  1  0.80869809  0.93586397  0.12096933  1  0  0.096364  0  3.776268  0  0  0.112407  0  4.003156  0  0  0.115298  0  4.024639  0  0  0.009536  0.110599  0  3.988556  0
C  C51  1  0.19132446  0.56413461  0.62096648  1  0  0.096387  0  3.776014  0  0  0.112441  0  4.002876  0  0  0.115336  0  4.024354  0  0  0.009617  0.110641  0  3.988273  0
C  C52  1  0.03767151  0.98228338  0.89165755  1  0  -0.13525  0  3.683346  0  0  -0.153307  0  3.926254  0  0  -0.159606  0  3.945941  0  0  -0.075075  -0.149291  0  3.913132  0
C  C53  1  0.96233314  0.51771617  0.39165862  1  0  -0.135235  0  3.68338  0  0  -0.153306  0  3.926246  0  0  -0.159603  0  3.945932  0  0  -0.075048  -0.149291  0  3.913123  0
C  C54  1  0.96233587  0.01771734  0.10834553  1  0  -0.135199  0  3.683845  0  0  -0.153268  0  3.92671  0  0  -0.159569  0  3.946404  0  0  -0.07505  -0.14924  0  3.913577  0
C  C55  1  0.03765996  0.48228325  0.60834317  1  0  -0.135291  0  3.683404  0  0  -0.153357  0  3.926294  0  0  -0.159653  0  3.94598  0  0  -0.075101  -0.149338  0  3.913168  0
C  C56  1  0.08178482  0.91317064  0.85615793  1  0  0.114421  0  3.727819  0  0  0.086378  0  3.977093  0  0  0.092644  0  3.996543  0  0  0.034928  0.082302  0  3.963837  0
C  C57  1  0.91823245  0.58683039  0.35616031  1  0  0.114305  0  3.727757  0  0  0.086275  0  3.977063  0  0  0.092541  0  3.996512  0  0  0.034862  0.0822  0  3.963801  0
C  C58  1  0.91822325  0.08683202  0.14384344  1  0  0.11439  0  3.728033  0  0  0.086377  0  3.977311  0  0  0.092643  0  3.996765  0  0  0.034951  0.0823  0  3.964049  0
C  C59  1  0.08178093  0.41316775  0.64384106  1  0  0.114371  0  3.727731  0  0  0.086364  0  3.977  0  0  0.092633  0  3.996445  0  0  0.034941  0.082288  0  3.963738  0
C  C60  1  0.14437554  0.14100619  0.91264942  1  0  0.112364  0  3.687178  0  0  0.083653  0  3.943776  0  0  0.091387  0  3.954358  0  0  0.069353  0.078504  0  3.936529  0
C  C61  1  0.85559855  0.35899258  0.41264708  1  0  0.112588  0  3.686808  0  0  0.083775  0  3.94339  0  0  0.091512  0  3.953974  0  0  0.069464  0.078629  0  3.93614  0
C  C62  1  0.85564106  0.85899454  0.08735323  1  0  0.11225  0  3.687243  0  0  0.08347  0  3.943858  0  0  0.091202  0  3.954442  0  0  0.069362  0.078332  0  3.936603  0
C  C63  1  0.14438003  0.64100489  0.58735172  1  0  0.112501  0  3.686868  0  0  0.083701  0  3.943494  0  0  0.091433  0  3.954078  0  0  0.069428  0.078555  0  3.936244  0
C  C64  1  0.87514572  0.21220264  0.98245894  1  0  0.188709  0  3.838683  0  0  0.194946  0  4.083413  0  0  0.19724  0  4.108769  0  0  0.081182  0.193536  0  4.066086  0
C  C65  1  0.12483171  0.28779575  0.48245495  1  0  0.188546  0  3.838719  0  0  0.1947  0  4.083581  0  0  0.196989  0  4.108939  0  0  0.081091  0.193289  0  4.066258  0
C  C66  1  0.12486027  0.78780067  0.01754114  1  0  0.188722  0  3.8389  0  0  0.194896  0  4.083678  0  0  0.197189  0  4.109033  0  0  0.081075  0.193486  0  4.066348  0
C  C67  1  0.87515586  0.71220108  0.51754256  1  0  0.188652  0  3.838799  0  0  0.194862  0  4.083537  0  0  0.197154  0  4.108892  0  0  0.081112  0.193449  0  4.066214  0
C  C68  1  0.66195189  0.19959077  0.02781888  1  0  -0.119072  0  3.706987  0  0  -0.137116  0  3.951893  0  0  -0.141723  0  3.975534  0  0  -0.085457  -0.133969  0  3.935684  0
C  C69  1  0.33803566  0.30040875  0.52781478  1  0  -0.118874  0  3.70693  0  0  -0.136919  0  3.951881  0  0  -0.141532  0  3.975544  0  0  -0.08541  -0.133777  0  3.935681  0
C  C70  1  0.33805111  0.80041059  0.97218249  1  0  -0.11916  0  3.706937  0  0  -0.137222  0  3.95188  0  0  -0.141833  0  3.975533  0  0  -0.085491  -0.134077  0  3.935675  0
C  C71  1  0.66195029  0.69959001  0.47218444  1  0  -0.119052  0  3.706936  0  0  -0.137087  0  3.951878  0  0  -0.141702  0  3.97554  0  0  -0.085471  -0.133943  0  3.935676  0
C  C72  1  0.57902402  0.26881806  0.06028038  1  0  -0.097473  0  3.779497  0  0  -0.115664  0  4.026455  0  0  -0.118449  0  4.050475  0  0  -0.104344  -0.113538  0  4.010085  0
C  C73  1  0.42096315  0.23118189  0.56027495  1  0  -0.097516  0  3.779472  0  0  -0.115706  0  4.026456  0  0  -0.118485  0  4.050463  0  0  -0.104269  -0.113582  0  4.010091  0
C  C74  1  0.42096745  0.73118329  0.93971928  1  0  -0.097333  0  3.779434  0  0  -0.115501  0  4.026406  0  0  -0.118292  0  4.05043  0  0  -0.104252  -0.113376  0  4.010036  0
C  C75  1  0.57903040  0.76881882  0.43972470  1  0  -0.097397  0  3.779421  0  0  -0.115582  0  4.026373  0  0  -0.118368  0  4.050394  0  0  -0.104302  -0.113455  0  4.009999  0
C  C76  1  0.70587679  0.35255868  0.04655892  1  0  0.030851  0  3.658681  0  0  0.055474  0  3.91156  0  0  0.056503  0  3.936822  0  0  -0.053813  0.05452  0  3.894471  0
C  C77  1  0.29408058  0.14744107  0.54655778  1  0  0.030902  0  3.658768  0  0  0.055516  0  3.911613  0  0  0.056548  0  3.936872  0  0  -0.053821  0.054558  0  3.894529  0
C  C78  1  0.29411238  0.64744267  0.95344031  1  0  0.030935  0  3.6586  0  0  0.055504  0  3.911561  0  0  0.056535  0  3.936821  0  0  -0.053802  0.05455  0  3.894472  0
C  C79  1  0.70590560  0.85255834  0.45344273  1  0  0.030798  0  3.658873  0  0  0.055419  0  3.911744  0  0  0.056448  0  3.937008  0  0  -0.053801  0.054465  0  3.894655  0
C  C80  1  0.91740279  0.36668319  0.00156863  1  0  -0.101226  0  3.810569  0  0  -0.119905  0  4.058925  0  0  -0.122488  0  4.081368  0  0  -0.108574  -0.117938  0  4.043674  0
C  C81  1  0.08255556  0.13331727  0.50156884  1  0  -0.101265  0  3.810773  0  0  -0.119848  0  4.05905  0  0  -0.122423  0  4.081462  0  0  -0.108571  -0.11788  0  4.0438  0
C  C82  1  0.08259352  0.63331882  0.99843188  1  0  -0.101387  0  3.810657  0  0  -0.120049  0  4.059004  0  0  -0.122631  0  4.081444  0  0  -0.108653  -0.118084  0  4.043754  0
C  C83  1  0.91742533  0.86668020  0.49843210  1  0  -0.101182  0  3.810725  0  0  -0.119794  0  4.059  0  0  -0.122382  0  4.081449  0  0  -0.108593  -0.117829  0  4.043749  0
C  C84  1  0.00307244  0.29719500  0.97005883  1  0  -0.124676  0  3.719156  0  0  -0.136733  0  3.953922  0  0  -0.140571  0  3.97689  0  0  -0.094243  -0.134176  0  3.938396  0
C  C85  1  0.99687517  0.20280321  0.47005972  1  0  -0.124748  0  3.719337  0  0  -0.136741  0  3.954077  0  0  -0.140583  0  3.977064  0  0  -0.094192  -0.134172  0  3.938528  0
C  C86  1  0.99692663  0.70280830  0.02994125  1  0  -0.124779  0  3.719347  0  0  -0.136761  0  3.954066  0  0  -0.140597  0  3.977035  0  0  -0.09423  -0.134202  0  3.938538  0
C  C87  1  0.00310134  0.79719490  0.52994079  1  0  -0.124832  0  3.7194  0  0  -0.136814  0  3.954117  0  0  -0.140648  0  3.97709  0  0  -0.094219  -0.134255  0  3.93859  0
I  I88  1  0.70683558  0.86155780  0.66626846  1  0  -0.280121  0  1.387051  0  0  -0.235417  0  1.779593  0  0  -0.253474  0  1.760011  0  0  -0.12968  -0.223186  0  1.793853  0
I  I89  1  0.29317839  0.63843814  0.16626987  1  0  -0.280141  0  1.387016  0  0  -0.235441  0  1.779537  0  0  -0.253502  0  1.759968  0  0  -0.129704  -0.223209  0  1.793795  0
I  I90  1  0.29317689  0.13843776  0.33373205  1  0  -0.280109  0  1.387032  0  0  -0.235428  0  1.779581  0  0  -0.253481  0  1.760006  0  0  -0.129695  -0.223201  0  1.79384  0
I  I91  1  0.70682600  0.36156064  0.83372594  1  0  -0.280123  0  1.386979  0  0  -0.235434  0  1.779506  0  0  -0.253481  0  1.759924  0  0  -0.129701  -0.223203  0  1.793766  0
I  I92  1  0.90289277  0.67689140  0.79733806  1  0  -0.3088  0  1.372479  0  0  -0.269087  0  1.751641  0  0  -0.287464  0  1.734905  0  0  -0.139009  -0.256806  0  1.763855  0
I  I93  1  0.09714502  0.82310628  0.29733858  1  0  -0.308867  0  1.372557  0  0  -0.269148  0  1.751712  0  0  -0.287506  0  1.734927  0  0  -0.13902  -0.256866  0  1.763924  0
I  I94  1  0.09713697  0.32310739  0.20266331  1  0  -0.308838  0  1.372553  0  0  -0.26911  0  1.751688  0  0  -0.287466  0  1.734904  0  0  -0.138996  -0.256829  0  1.7639  0
I  I95  1  0.90286375  0.17689186  0.70265637  1  0  -0.308872  0  1.372576  0  0  -0.269117  0  1.751669  0  0  -0.287498  0  1.734938  0  0  -0.139014  -0.256834  0  1.763882  0
I  I96  1  0.57294135  0.45988482  0.09197691  1  0  0.019355  0  1.56039  0  0  0.01461  0  1.913705  0  0  0.009357  0  1.903208  0  0  0.089483  0.018844  0  1.921396  0
I  I97  1  0.42704406  0.04011814  0.59197503  1  0  0.019405  0  1.560302  0  0  0.014617  0  1.913655  0  0  0.00936  0  1.903161  0  0  0.089518  0.01885  0  1.921353  0
I  I98  1  0.42706142  0.54011590  0.90802232  1  0  0.019327  0  1.560312  0  0  0.014611  0  1.91362  0  0  0.009359  0  1.903131  0  0  0.089485  0.018845  0  1.921313  0
I  I99  1  0.57294719  0.95988258  0.40802548  1  0  0.01937  0  1.560367  0  0  0.014618  0  1.913655  0  0  0.009363  0  1.903164  0  0  0.089498  0.01885  0  1.921351  0
N  N100  1  0.26654229  0.92123728  0.80973112  1  0  -0.287561  0  3.260245  0  0  -0.20925  0  3.518407  0  0  -0.228953  0  3.540009  0  0  -0.317801  -0.195791  0  3.503294  0
N  N101  1  0.73346929  0.57876507  0.30973272  1  0  -0.287431  0  3.260002  0  0  -0.209103  0  3.518144  0  0  -0.228806  0  3.53975  0  0  -0.317734  -0.195651  0  3.503048  0
N  N102  1  0.73345932  0.07876667  0.19026853  1  0  -0.287441  0  3.260007  0  0  -0.209123  0  3.518148  0  0  -0.228828  0  3.539763  0  0  -0.317733  -0.195665  0  3.503033  0
N  N103  1  0.26653140  0.42123629  0.69026779  1  0  -0.287456  0  3.26003  0  0  -0.209166  0  3.518202  0  0  -0.228868  0  3.539809  0  0  -0.317774  -0.195715  0  3.503109  0
N  N104  1  0.93592001  0.13811090  0.95207989  1  0  -0.327002  0  3.095747  0  0  -0.29465  0  3.364674  0  0  -0.304425  0  3.378684  0  0  -0.306168  -0.287956  0  3.354969  0
N  N105  1  0.06405339  0.36188774  0.45207939  1  0  -0.32692  0  3.0956  0  0  -0.294539  0  3.364599  0  0  -0.304315  0  3.378611  0  0  -0.306147  -0.287847  0  3.354894  0
N  N106  1  0.06408552  0.86189112  0.04792190  1  0  -0.326815  0  3.095809  0  0  -0.294426  0  3.364758  0  0  -0.304201  0  3.378768  0  0  -0.306065  -0.287735  0  3.355047  0
N  N107  1  0.93592542  0.63811038  0.54792069  1  0  -0.326932  0  3.09571  0  0  -0.294554  0  3.364656  0  0  -0.304328  0  3.378666  0  0  -0.306095  -0.287859  0  3.35495  0
