# generated using pymatgen
data_AlH12C27NO18
_symmetry_space_group_name_H-M   'P 1'
_cell_length_a   4.35107702
_cell_length_b   13.57308535
_cell_length_c   13.43578004
_cell_angle_alpha   119.81145270
_cell_angle_beta   94.33504795
_cell_angle_gamma   91.33195103
_symmetry_Int_Tables_number   1
_chemical_formula_structural   AlH12C27NO18
_chemical_formula_sum   'Al1 H12 C27 N1 O18'
_cell_volume   684.81102192
_cell_formula_units_Z   1
loop_
 _symmetry_equiv_pos_site_id
 _symmetry_equiv_pos_as_xyz
  1  'x, y, z'
loop_
 _atom_site_type_symbol
 _atom_site_label
 _atom_site_symmetry_multiplicity
 _atom_site_fract_x
 _atom_site_fract_y
 _atom_site_fract_z
 _atom_site_occupancy
 _atom_site_pbe_bader_charge
 _atom_site_pbe_bader_spin_density
 _atom_site_pbe_cm5_charge
 _atom_site_pbe_ddec_charge
 _atom_site_pbe_ddec_spin_density
 _atom_site_pbe_ddec_sum_bond_order
 _atom_site_pbe_magmom
Al  Al0  1  0.01686146  0.49796992  0.49748197  1  2.523489  0  0.462636  1.671732  0  2.439215  0
H  H1  1  0.23131486  0.01523331  0.88581753  1  0.115769  0  0.116522  0.131092  0  1.003377  0
H  H2  1  0.69753553  0.03615439  0.62313713  1  0.097543  0  0.113424  0.124004  0  1.026311  0
H  H3  1  0.77759723  0.11018603  0.98047783  1  0.146392  0  0.114057  0.127118  0  1.003668  0
H  H4  1  0.21101316  0.35630684  0.95682825  1  0.118047  0  0.113679  0.120981  0  1.040635  0
H  H5  1  0.79374056  0.36409510  0.90414141  1  0.116524  0  0.115317  0.12759  0  1.039237  0
H  H6  1  0.15621491  0.11073645  0.62648505  1  0.08927  0  0.116027  0.128226  0  1.003558  0
H  H7  1  0.01345123  0.71454494  0.50254390  1  0.63563  0  0.316362  0.35212  0  0.969923  0
H  H8  1  0.30662603  0.65549109  0.80406313  1  0.649389  0  0.341691  0.374963  0  0.888816  0
H  H9  1  0.74448966  0.17296636  0.33481431  1  0.649888  0  0.328363  0.363982  0  0.918059  0
H  H10  1  0.11032038  0.62983915  0.30709452  1  0.647013  0  0.332987  0.38784  0  0.885004  0
H  H11  1  0.86861447  0.65703008  0.85875772  1  0.6223  0  0.336093  0.372943  0  0.885503  0
H  H12  1  0.19901696  0.18429489  0.34167696  1  0.651206  0  0.331262  0.366466  0  0.915564  0
C  C13  1  0.47813694  0.40919943  0.32330312  1  1.651945  0  0.280477  0.697478  0  4.062234  0
C  C14  1  0.52754678  0.41700099  0.59100996  1  1.655452  0  0.278015  0.692285  0  4.067573  0
C  C15  1  0.53757182  0.67690196  0.58507963  1  1.622053  0  0.272394  0.675094  0  4.070324  0
C  C16  1  0.37413033  0.86028062  0.75105401  1  0.095465  0  -0.008478  -0.03415  0  3.956635  0
C  C17  1  0.35001497  0.97733431  0.80785896  1  -0.071495  0  -0.075795  -0.171952  0  3.93155  0
C  C18  1  0.48176810  0.04438982  0.76727771  1  0.366629  0  0.099876  0.189421  0  4.035249  0
C  C19  1  0.61426628  0.98892525  0.66280841  1  -0.01337  0  -0.0808  -0.17698  0  3.938273  0
C  C20  1  0.63561303  0.87101872  0.60360350  1  -0.013311  0  -0.014584  -0.063354  0  3.989962  0
C  C21  1  0.52709106  0.80485145  0.64949585  1  -0.003825  0  -0.009973  -0.097637  0  3.899803  0
C  C22  1  0.64748886  0.18589329  0.01896950  1  -0.026399  0  -0.07388  -0.168442  0  3.928193  0
C  C23  1  0.63981071  0.24358352  0.13827591  1  0.013835  0  -0.004083  -0.031931  0  3.939482  0
C  C24  1  0.47674374  0.34293141  0.19385447  1  0.012291  0  0.006636  -0.066533  0  3.845819  0
C  C25  1  0.32507906  0.38221428  0.12536238  1  0.096593  0  -0.001772  -0.027816  0  3.940227  0
C  C26  1  0.32761223  0.32175724  0.00599034  1  -0.062284  0  -0.07162  -0.159652  0  3.930214  0
C  C27  1  0.48431649  0.22291104  0.95120315  1  0.336007  0  0.096247  0.18062  0  4.030075  0
C  C28  1  0.66714196  0.32857610  0.81907538  1  0.027998  0  -0.069877  -0.159435  0  3.905594  0
C  C29  1  0.68048941  0.39068236  0.76217639  1  0.061635  0  -0.0028  -0.027431  0  3.94234  0
C  C30  1  0.51120706  0.35119901  0.65414055  1  -0.04363  0  0.005215  -0.069217  0  3.850664  0
C  C31  1  0.32024798  0.24950784  0.60758556  1  0.015874  0  -0.002259  -0.030397  0  3.944577  0
C  C32  1  0.30393026  0.18933248  0.66630562  1  0.080538  0  -0.071411  -0.163602  0  3.92434  0
C  C33  1  0.48251345  0.22690061  0.77135822  1  0.296816  0  0.097656  0.182165  0  4.025186  0
C  C34  1  0.74565861  0.82471044  0.48546492  1  1.531967  0  0.232449  0.578414  0  4.093283  0
C  C35  1  0.24003841  0.79754521  0.80471829  1  1.54564  0  0.235676  0.584638  0  4.114234  0
C  C36  1  0.79971103  0.19090795  0.20084607  1  1.54605  0  0.238633  0.588455  0  4.102254  0
C  C37  1  0.14793730  0.48696223  0.17009648  1  1.566748  0  0.238947  0.586633  0  4.098747  0
C  C38  1  0.87757493  0.50008294  0.82560072  1  1.537969  0  0.240596  0.588547  0  4.085292  0
C  C39  1  0.14189183  0.19749631  0.49131943  1  1.546256  0  0.243076  0.590071  0  4.095005  0
N  N40  1  0.47756442  0.16364207  0.82936047  1  -1.275358  0  -0.247326  -0.137754  0  3.643961  0
O  O41  1  0.78445337  0.63413123  0.59548630  1  -1.243409  0  -0.231657  -0.582237  0  2.382342  0
O  O42  1  0.72362774  0.47219291  0.37700382  1  -1.276696  0  -0.24054  -0.624982  0  2.429269  0
O  O43  1  0.76439883  0.40830582  0.53852593  1  -1.25193  0  -0.229171  -0.595763  0  2.405788  0
O  O44  1  0.28867580  0.62333331  0.52085270  1  -1.261268  0  -0.234804  -0.612488  0  2.447075  0
O  O45  1  0.30326650  0.47772945  0.59820498  1  -1.264954  0  -0.240383  -0.619927  0  2.440595  0
O  O46  1  0.24074878  0.39877415  0.36742113  1  -1.24948  0  -0.232012  -0.600402  0  2.402751  0
O  O47  1  0.92681929  0.73559750  0.44573133  1  -1.140199  0  -0.32586  -0.481853  0  2.359417  0
O  O48  1  0.67155038  0.86599138  0.42576308  1  -1.077514  0  -0.26589  -0.418731  0  2.039184  0
O  O49  1  0.37750213  0.70014578  0.77006995  1  -1.14335  0  -0.310874  -0.45485  0  2.469091  0
O  O50  1  0.04072629  0.82952180  0.87187004  1  -1.129517  0  -0.284059  -0.475143  0  2.08658  0
O  O51  1  0.66354553  0.21365352  0.29509969  1  -1.15835  0  -0.313849  -0.462005  0  2.467944  0
O  O52  1  0.02235281  0.13239833  0.17049710  1  -1.143623  0  -0.284179  -0.480442  0  2.110562  0
O  O53  1  0.24847663  0.56642185  0.27870737  1  -1.138824  0  -0.319029  -0.460594  0  2.322593  0
O  O54  1  0.93593840  0.49781363  0.11175444  1  -1.133045  0  -0.279549  -0.468787  0  2.11014  0
O  O55  1  0.75155775  0.58264401  0.81088355  1  -1.12661  0  -0.319502  -0.472544  0  2.383008  0
O  O56  1  0.11882412  0.51483667  0.88535974  1  -1.131949  0  -0.27223  -0.45891  0  2.111677  0
O  O57  1  0.28897211  0.22365784  0.42312699  1  -1.154522  0  -0.311041  -0.457575  0  2.481727  0
O  O58  1  0.89860725  0.13781374  0.46036497  1  -1.135315  0  -0.275027  -0.469362  0  2.116294  0
