# generated using pymatgen
data_Ag2H4C8SO7
_symmetry_space_group_name_H-M   'P 1'
_cell_length_a   7.82598658
_cell_length_b   11.18496310
_cell_length_c   12.49728434
_cell_angle_alpha   115.68183336
_cell_angle_beta   90.00009328
_cell_angle_gamma   89.99993015
_symmetry_Int_Tables_number   1
_chemical_formula_structural   Ag2H4C8SO7
_chemical_formula_sum   'Ag8 H16 C32 S4 O28'
_cell_volume   985.86503561
_cell_formula_units_Z   4
loop_
 _symmetry_equiv_pos_site_id
 _symmetry_equiv_pos_as_xyz
  1  'x, y, z'
loop_
 _atom_site_type_symbol
 _atom_site_label
 _atom_site_symmetry_multiplicity
 _atom_site_fract_x
 _atom_site_fract_y
 _atom_site_fract_z
 _atom_site_occupancy
 _atom_site_hle17_bader_spin_density
 _atom_site_hle17_ddec_charge
 _atom_site_hle17_ddec_spin_density
 _atom_site_hle17_ddec_sum_bond_order
 _atom_site_hle17_magmom
 _atom_site_hse06_10hf_bader_spin_density
 _atom_site_hse06_10hf_ddec_charge
 _atom_site_hse06_10hf_ddec_spin_density
 _atom_site_hse06_10hf_ddec_sum_bond_order
 _atom_site_hse06_10hf_magmom
 _atom_site_hse06_bader_spin_density
 _atom_site_hse06_ddec_charge
 _atom_site_hse06_ddec_spin_density
 _atom_site_hse06_ddec_sum_bond_order
 _atom_site_hse06_magmom
 _atom_site_pbe_bader_spin_density
 _atom_site_pbe_cm5_charge
 _atom_site_pbe_ddec_charge
 _atom_site_pbe_ddec_spin_density
 _atom_site_pbe_ddec_sum_bond_order
 _atom_site_pbe_magmom
Ag  Ag0  1  0.58566180  0.17901507  0.25951379  1  0  0.738954  0  1.182011  0  0  0.641062  0  1.581944  0  0  0.668837  0  1.532616  0  0  0.460443  0.621093  0  1.616754  0
Ag  Ag1  1  0.08565952  0.32098173  0.24048481  1  0  0.738946  0  1.182024  0  0  0.641072  0  1.581925  0  0  0.668846  0  1.532598  0  0  0.460435  0.62109  0  1.616741  0
Ag  Ag2  1  0.41433906  0.82098356  0.74048597  1  0  0.738954  0  1.181998  0  0  0.64106  0  1.581921  0  0  0.668835  0  1.532594  0  0  0.460446  0.621084  0  1.616729  0
Ag  Ag3  1  0.91433879  0.67901889  0.75951572  1  0  0.738927  0  1.182033  0  0  0.641054  0  1.581929  0  0  0.668828  0  1.532602  0  0  0.460438  0.621078  0  1.616736  0
Ag  Ag4  1  0.37353530  0.40734688  0.49042376  1  0  0.671721  0  1.312871  0  0  0.561526  0  1.759574  0  0  0.59545  0  1.69669  0  0  0.431383  0.537579  0  1.80328  0
Ag  Ag5  1  0.87353452  0.09265276  0.00957543  1  0  0.671716  0  1.312877  0  0  0.561521  0  1.759578  0  0  0.595447  0  1.696693  0  0  0.43138  0.537575  0  1.80328  0
Ag  Ag6  1  0.62646557  0.59265076  0.50957482  1  0  0.671759  0  1.312856  0  0  0.561559  0  1.759573  0  0  0.595483  0  1.69669  0  0  0.431396  0.537613  0  1.803279  0
Ag  Ag7  1  0.12646634  0.90734984  0.99042507  1  0  0.671731  0  1.312876  0  0  0.561527  0  1.759598  0  0  0.595453  0  1.696713  0  0  0.431382  0.537583  0  1.803296  0
H  H8  1  0.02683425  0.40355876  0.70916919  1  0  0.416471  0  0.87008  0  0  0.3844  0  0.949788  0  0  0.396818  0  0.934584  0  0  0.311225  0.375644  0  0.959645  0
H  H9  1  0.52683420  0.09644190  0.79083118  1  0  0.416478  0  0.870081  0  0  0.384403  0  0.949795  0  0  0.396819  0  0.934587  0  0  0.311227  0.375648  0  0.959651  0
H  H10  1  0.97316534  0.59644087  0.29083095  1  0  0.416473  0  0.870072  0  0  0.384404  0  0.949775  0  0  0.396822  0  0.934574  0  0  0.311233  0.375648  0  0.959635  0
H  H11  1  0.47316411  0.90355773  0.20916977  1  0  0.416444  0  0.870112  0  0  0.384379  0  0.949815  0  0  0.396796  0  0.934617  0  0  0.311234  0.375623  0  0.95967  0
H  H12  1  0.24499109  0.27755985  0.87166592  1  0  0.111916  0  0.976085  0  0  0.120517  0  1.0391  0  0  0.123659  0  1.037131  0  0  0.111398  0.118193  0  1.040578  0
H  H13  1  0.74499168  0.22244170  0.62833502  1  0  0.111905  0  0.976071  0  0  0.120513  0  1.039085  0  0  0.123654  0  1.037116  0  0  0.111395  0.118187  0  1.040565  0
H  H14  1  0.75500722  0.72244076  0.12833381  1  0  0.111919  0  0.976079  0  0  0.120496  0  1.039122  0  0  0.123638  0  1.037153  0  0  0.111399  0.118176  0  1.040596  0
H  H15  1  0.25500791  0.77755991  0.37166589  1  0  0.111908  0  0.976097  0  0  0.120488  0  1.039137  0  0  0.123629  0  1.037168  0  0  0.111393  0.118165  0  1.040618  0
H  H16  1  0.22971877  0.70180243  0.07564568  1  0  0.114713  0  0.940196  0  0  0.121943  0  1.00655  0  0  0.126231  0  1.00227  0  0  0.10961  0.118775  0  1.009764  0
H  H17  1  0.72971616  0.79819924  0.42435437  1  0  0.11473  0  0.9402  0  0  0.121951  0  1.006559  0  0  0.12624  0  1.002278  0  0  0.109626  0.118784  0  1.009775  0
H  H18  1  0.77028210  0.29819818  0.92435324  1  0  0.114714  0  0.940225  0  0  0.121963  0  1.006556  0  0  0.126255  0  1.002277  0  0  0.109618  0.118796  0  1.009767  0
H  H19  1  0.27028343  0.20180138  0.57564615  1  0  0.114686  0  0.940223  0  0  0.121906  0  1.006588  0  0  0.126195  0  1.002309  0  0  0.1096  0.118741  0  1.009799  0
H  H20  1  0.38575811  0.67607129  0.23749651  1  0  0.109524  0  0.983739  0  0  0.117454  0  1.045387  0  0  0.121206  0  1.042957  0  0  0.107602  0.114794  0  1.047175  0
H  H21  1  0.88575760  0.82392933  0.26250330  1  0  0.109519  0  0.983716  0  0  0.117443  0  1.045381  0  0  0.121194  0  1.042951  0  0  0.107601  0.114784  0  1.047163  0
H  H22  1  0.61424403  0.32392933  0.76250161  1  0  0.109566  0  0.983698  0  0  0.117464  0  1.04539  0  0  0.121215  0  1.04296  0  0  0.1076  0.114807  0  1.047174  0
H  H23  1  0.11424327  0.17607129  0.73749803  1  0  0.109524  0  0.983745  0  0  0.117448  0  1.045404  0  0  0.121199  0  1.042975  0  0  0.107591  0.114789  0  1.047188  0
C  C24  1  0.44885581  0.46576506  0.26790506  1  0  0.659627  0  3.880494  0  0  0.603942  0  4.169136  0  0  0.639657  0  4.163803  0  0  0.211023  0.579462  0  4.171937  0
C  C25  1  0.94885828  0.03423456  0.23209660  1  0  0.659662  0  3.880517  0  0  0.603987  0  4.169147  0  0  0.639701  0  4.163818  0  0  0.211048  0.579505  0  4.171954  0
C  C26  1  0.55114633  0.53423655  0.73209425  1  0  0.659707  0  3.880509  0  0  0.604007  0  4.169152  0  0  0.639722  0  4.163818  0  0  0.211091  0.579525  0  4.17196  0
C  C27  1  0.05114387  0.96576507  0.76790435  1  0  0.659744  0  3.880454  0  0  0.604051  0  4.169111  0  0  0.639767  0  4.163772  0  0  0.211067  0.579567  0  4.171925  0
C  C28  1  0.38359744  0.46431184  0.15382696  1  0  -0.028199  0  3.690729  0  0  -0.018759  0  3.929131  0  0  -0.020186  0  3.947407  0  0  -0.001736  -0.017771  0  3.917122  0
C  C29  1  0.88360020  0.03568880  0.34617342  1  0  -0.028243  0  3.690736  0  0  -0.018824  0  3.929185  0  0  -0.02025  0  3.94746  0  0  -0.00175  -0.017838  0  3.917169  0
C  C30  1  0.61640343  0.53568877  0.84617036  1  0  -0.028241  0  3.690777  0  0  -0.018767  0  3.929133  0  0  -0.020189  0  3.94741  0  0  -0.00175  -0.017799  0  3.917108  0
C  C31  1  0.11640195  0.96431083  0.65382752  1  0  -0.028219  0  3.690791  0  0  -0.018809  0  3.929236  0  0  -0.020231  0  3.947511  0  0  -0.001723  -0.017838  0  3.917206  0
C  C32  1  0.34689148  0.35114799  0.04737152  1  0  -0.146953  0  3.702704  0  0  -0.12358  0  3.948749  0  0  -0.131167  0  3.969991  0  0  -0.017352  -0.119054  0  3.935054  0
C  C33  1  0.84689049  0.14885266  0.45262882  1  0  -0.146941  0  3.70268  0  0  -0.123553  0  3.948734  0  0  -0.131141  0  3.969977  0  0  -0.017349  -0.119012  0  3.935016  0
C  C34  1  0.65310938  0.64885262  0.95262740  1  0  -0.147014  0  3.702851  0  0  -0.123613  0  3.948834  0  0  -0.131215  0  3.970098  0  0  -0.017347  -0.119012  0  3.935035  0
C  C35  1  0.15310910  0.85114697  0.54737132  1  0  -0.147059  0  3.702888  0  0  -0.12364  0  3.948895  0  0  -0.131242  0  3.970159  0  0  -0.017369  -0.119037  0  3.935092  0
C  C36  1  0.26806169  0.36535275  0.95371746  1  0  -0.042338  0  3.68906  0  0  -0.081134  0  3.937005  0  0  -0.078178  0  3.956357  0  0  -0.072867  -0.082791  0  3.924033  0
C  C37  1  0.76806222  0.13464681  0.54628193  1  0  -0.0423  0  3.689003  0  0  -0.0811  0  3.936947  0  0  -0.078148  0  3.956301  0  0  -0.072836  -0.082761  0  3.923967  0
C  C38  1  0.73193917  0.63464687  0.04628108  1  0  -0.042284  0  3.689082  0  0  -0.081085  0  3.937026  0  0  -0.078132  0  3.956394  0  0  -0.072844  -0.082767  0  3.924035  0
C  C39  1  0.23193864  0.86535282  0.45371901  1  0  -0.042253  0  3.689091  0  0  -0.081045  0  3.937048  0  0  -0.078091  0  3.956412  0  0  -0.072843  -0.082733  0  3.924073  0
C  C40  1  0.22074999  0.49084469  0.96399183  1  0  -0.072294  0  3.744511  0  0  -0.046704  0  3.977843  0  0  -0.056905  0  4.001681  0  0  -0.013218  -0.040211  0  3.961963  0
C  C41  1  0.72074943  0.00915489  0.53600832  1  0  -0.072311  0  3.744514  0  0  -0.046712  0  3.97784  0  0  -0.056908  0  4.001681  0  0  -0.013247  -0.040218  0  3.96196  0
C  C42  1  0.77924960  0.50915493  0.03600751  1  0  -0.07238  0  3.744545  0  0  -0.046736  0  3.977819  0  0  -0.056932  0  4.001659  0  0  -0.01325  -0.040245  0  3.961945  0
C  C43  1  0.27925016  0.99084474  0.46399263  1  0  -0.072358  0  3.744535  0  0  -0.04677  0  3.977849  0  0  -0.056965  0  4.001686  0  0  -0.013244  -0.040278  0  3.961979  0
C  C44  1  0.26268465  0.60356137  0.06733281  1  0  -0.025731  0  3.668966  0  0  -0.056021  0  3.922052  0  0  -0.052558  0  3.938891  0  0  -0.069779  -0.058145  0  3.910822  0
C  C45  1  0.76268573  0.89643930  0.43266849  1  0  -0.025793  0  3.669002  0  0  -0.056063  0  3.922084  0  0  -0.052606  0  3.938932  0  0  -0.0698  -0.058191  0  3.910865  0
C  C46  1  0.73731238  0.39643825  0.93266653  1  0  -0.025697  0  3.668972  0  0  -0.056016  0  3.922055  0  0  -0.052558  0  3.938894  0  0  -0.06974  -0.05814  0  3.910827  0
C  C47  1  0.23731386  0.10356132  0.56733364  1  0  -0.025689  0  3.669004  0  0  -0.055961  0  3.922075  0  0  -0.052501  0  3.938915  0  0  -0.069741  -0.058086  0  3.910851  0
C  C48  1  0.34661542  0.58905165  0.15890024  1  0  -0.069407  0  3.693331  0  0  -0.092805  0  3.949454  0  0  -0.096209  0  3.968186  0  0  -0.08126  -0.090811  0  3.937146  0
C  C49  1  0.84661623  0.91094899  0.34110114  1  0  -0.069362  0  3.693237  0  0  -0.092765  0  3.949399  0  0  -0.096168  0  3.96813  0  0  -0.081257  -0.090771  0  3.937088  0
C  C50  1  0.65338545  0.41094896  0.84109869  1  0  -0.069461  0  3.693194  0  0  -0.092864  0  3.949356  0  0  -0.096267  0  3.968088  0  0  -0.081311  -0.090873  0  3.937052  0
C  C51  1  0.15338464  0.08905163  0.65890019  1  0  -0.069414  0  3.693261  0  0  -0.092809  0  3.949406  0  0  -0.096211  0  3.968137  0  0  -0.081282  -0.09082  0  3.937101  0
C  C52  1  0.12772005  0.50630363  0.86711689  1  0  0.676796  0  3.792006  0  0  0.622176  0  4.085279  0  0  0.656971  0  4.077649  0  0  0.240916  0.598423  0  4.090035  0
C  C53  1  0.62771890  0.99369796  0.63288338  1  0  0.676713  0  3.79208  0  0  0.622076  0  4.085383  0  0  0.656866  0  4.07776  0  0  0.240862  0.598326  0  4.090129  0
C  C54  1  0.87227954  0.49369600  0.13288245  1  0  0.676912  0  3.791892  0  0  0.622269  0  4.085168  0  0  0.657063  0  4.077542  0  0  0.240962  0.598519  0  4.089922  0
C  C55  1  0.37227814  0.00630266  0.36711795  1  0  0.676865  0  3.791945  0  0  0.622279  0  4.085167  0  0  0.657071  0  4.07754  0  0  0.240981  0.598528  0  4.089923  0
S  S56  1  0.40748715  0.18648376  0.02310830  1  0  1.329283  0  5.560682  0  0  1.232512  0  6.063696  0  0  1.280156  0  6.044244  0  0  0.51796  1.199618  0  6.076156  0
S  S57  1  0.90748976  0.31351686  0.47689210  1  0  1.329251  0  5.560697  0  0  1.232485  0  6.063705  0  0  1.280131  0  6.04425  0  0  0.517947  1.199591  0  6.076159  0
S  S58  1  0.59250988  0.81351685  0.97689062  1  0  1.329195  0  5.560814  0  0  1.232418  0  6.063841  0  0  1.280068  0  6.044392  0  0  0.517914  1.199503  0  6.076286  0
S  S59  1  0.09251238  0.68648277  0.52310885  1  0  1.329161  0  5.560762  0  0  1.232384  0  6.063785  0  0  1.280037  0  6.044332  0  0  0.517917  1.199468  0  6.07622  0
O  O60  1  0.38207329  0.38103041  0.29975195  1  0  -0.68584  0  2.268876  0  0  -0.59428  0  2.559532  0  0  -0.629317  0  2.545192  0  0  -0.327915  -0.569579  0  2.568579  0
O  O61  1  0.88207553  0.11896924  0.20024885  1  0  -0.685851  0  2.268848  0  0  -0.594286  0  2.559484  0  0  -0.629325  0  2.545145  0  0  -0.327914  -0.569586  0  2.56853  0
O  O62  1  0.61792757  0.61897021  0.70024698  1  0  -0.685915  0  2.269  0  0  -0.594319  0  2.559587  0  0  -0.629356  0  2.545248  0  0  -0.327968  -0.56962  0  2.568639  0
O  O63  1  0.11792406  0.88103039  0.79975130  1  0  -0.685861  0  2.268903  0  0  -0.594288  0  2.559549  0  0  -0.629327  0  2.545211  0  0  -0.327914  -0.569587  0  2.568602  0
O  O64  1  0.55392243  0.55580151  0.32674248  1  0  -0.574215  0  2.048607  0  0  -0.50243  0  2.308824  0  0  -0.534129  0  2.298633  0  0  -0.306071  -0.480092  0  2.314942  0
O  O65  1  0.05392359  0.94419827  0.17325907  1  0  -0.574213  0  2.048594  0  0  -0.502427  0  2.308802  0  0  -0.534124  0  2.298613  0  0  -0.306081  -0.480091  0  2.314928  0
O  O66  1  0.44607843  0.44420010  0.67325763  1  0  -0.574222  0  2.048555  0  0  -0.502433  0  2.308768  0  0  -0.534133  0  2.298578  0  0  -0.30607  -0.480095  0  2.314889  0
O  O67  1  0.94607727  0.05580235  0.82674226  1  0  -0.574249  0  2.048527  0  0  -0.502459  0  2.308751  0  0  -0.53416  0  2.298561  0  0  -0.30609  -0.480124  0  2.31488  0
O  O68  1  0.28184688  0.14072388  0.08451438  1  0  -0.698748  0  2.104103  0  0  -0.647581  0  2.412348  0  0  -0.670552  0  2.390001  0  0  -0.336094  -0.631304  0  2.427138  0
O  O69  1  0.78184798  0.35927680  0.41548751  1  0  -0.69874  0  2.104067  0  0  -0.647586  0  2.412335  0  0  -0.670554  0  2.389982  0  0  -0.336121  -0.631316  0  2.427146  0
O  O70  1  0.71815143  0.85927872  0.91548691  1  0  -0.698695  0  2.104052  0  0  -0.647532  0  2.412308  0  0  -0.670502  0  2.389955  0  0  -0.336098  -0.631259  0  2.427111  0
O  O71  1  0.21815161  0.64072184  0.58451305  1  0  -0.698677  0  2.104137  0  0  -0.647513  0  2.412396  0  0  -0.670483  0  2.390046  0  0  -0.336104  -0.631238  0  2.427195  0
O  O72  1  0.58170805  0.19957185  0.07258955  1  0  -0.678886  0  2.087979  0  0  -0.611545  0  2.380622  0  0  -0.637139  0  2.363236  0  0  -0.343265  -0.593241  0  2.392026  0
O  O73  1  0.08170884  0.30042793  0.42741099  1  0  -0.678885  0  2.088002  0  0  -0.611544  0  2.380636  0  0  -0.637136  0  2.36325  0  0  -0.343241  -0.593237  0  2.392032  0
O  O74  1  0.41829026  0.80042678  0.92740861  1  0  -0.67887  0  2.087973  0  0  -0.611544  0  2.380654  0  0  -0.637136  0  2.363264  0  0  -0.343275  -0.593242  0  2.392058  0
O  O75  1  0.91829075  0.69957170  0.57258835  1  0  -0.678831  0  2.087963  0  0  -0.611514  0  2.380643  0  0  -0.637108  0  2.363257  0  0  -0.343239  -0.593206  0  2.392036  0
O  O76  1  0.40261996  0.10572205  0.89320182  1  0  -0.677356  0  2.044916  0  0  -0.619901  0  2.309226  0  0  -0.64209  0  2.293804  0  0  -0.329174  -0.604172  0  2.319387  0
O  O77  1  0.90262147  0.39427844  0.60679806  1  0  -0.677305  0  2.044874  0  0  -0.619874  0  2.309206  0  0  -0.642064  0  2.293783  0  0  -0.329163  -0.604145  0  2.319362  0
O  O78  1  0.59737580  0.89427856  0.10679630  1  0  -0.677238  0  2.044924  0  0  -0.619816  0  2.30926  0  0  -0.642002  0  2.293832  0  0  -0.32913  -0.604087  0  2.31942  0
O  O79  1  0.09738195  0.60571921  0.39320131  1  0  -0.677289  0  2.044777  0  0  -0.619863  0  2.309116  0  0  -0.642049  0  2.293687  0  0  -0.329171  -0.604132  0  2.319271  0
O  O80  1  0.09495355  0.39314554  0.77403941  1  0  -0.539388  0  2.148149  0  0  -0.478266  0  2.365414  0  0  -0.501859  0  2.351369  0  0  -0.312915  -0.461852  0  2.374061  0
O  O81  1  0.59495332  0.10685509  0.72596101  1  0  -0.539359  0  2.148159  0  0  -0.478238  0  2.365437  0  0  -0.501827  0  2.351391  0  0  -0.3129  -0.461824  0  2.374075  0
O  O82  1  0.90504476  0.60685408  0.22595993  1  0  -0.539449  0  2.148076  0  0  -0.478332  0  2.365361  0  0  -0.501928  0  2.35132  0  0  -0.312981  -0.46192  0  2.374009  0
O  O83  1  0.40504500  0.89314553  0.27403951  1  0  -0.539438  0  2.14813  0  0  -0.478347  0  2.3654  0  0  -0.501937  0  2.351356  0  0  -0.313005  -0.461927  0  2.374034  0
O  O84  1  0.08302783  0.61727519  0.87677269  1  0  -0.589674  0  2.107265  0  0  -0.532536  0  2.38894  0  0  -0.558707  0  2.375405  0  0  -0.289903  -0.514564  0  2.398031  0
O  O85  1  0.58302813  0.88272543  0.62322795  1  0  -0.58963  0  2.107253  0  0  -0.532469  0  2.388909  0  0  -0.558643  0  2.375387  0  0  -0.289872  -0.5145  0  2.397997  0
O  O86  1  0.91697175  0.38272543  0.12322703  1  0  -0.58969  0  2.10724  0  0  -0.53255  0  2.38893  0  0  -0.558718  0  2.37539  0  0  -0.28989  -0.514579  0  2.398022  0
O  O87  1  0.41697146  0.11727519  0.37677337  1  0  -0.589657  0  2.107242  0  0  -0.53253  0  2.388911  0  0  -0.558697  0  2.375365  0  0  -0.289885  -0.514561  0  2.398007  0
