# generated using pymatgen
data_BiH10C5S2Br2N
_symmetry_space_group_name_H-M   'P 1'
_cell_length_a   7.84890287
_cell_length_b   9.93192964
_cell_length_c   14.74791166
_cell_angle_alpha   89.99940066
_cell_angle_beta   90.00046909
_cell_angle_gamma   91.30800286
_symmetry_Int_Tables_number   1
_chemical_formula_structural   BiH10C5S2Br2N
_chemical_formula_sum   'Bi4 H40 C20 S8 Br8 N4'
_cell_volume   1149.37021299
_cell_formula_units_Z   4
loop_
 _symmetry_equiv_pos_site_id
 _symmetry_equiv_pos_as_xyz
  1  'x, y, z'
loop_
 _atom_site_type_symbol
 _atom_site_label
 _atom_site_symmetry_multiplicity
 _atom_site_fract_x
 _atom_site_fract_y
 _atom_site_fract_z
 _atom_site_occupancy
 _atom_site_hle17_bader_spin_density
 _atom_site_hle17_ddec_charge
 _atom_site_hle17_ddec_spin_density
 _atom_site_hle17_ddec_sum_bond_order
 _atom_site_hle17_magmom
 _atom_site_hse06_10hf_bader_spin_density
 _atom_site_hse06_10hf_ddec_charge
 _atom_site_hse06_10hf_ddec_spin_density
 _atom_site_hse06_10hf_ddec_sum_bond_order
 _atom_site_hse06_10hf_magmom
 _atom_site_hse06_bader_spin_density
 _atom_site_hse06_ddec_charge
 _atom_site_hse06_ddec_spin_density
 _atom_site_hse06_ddec_sum_bond_order
 _atom_site_hse06_magmom
 _atom_site_pbe_bader_spin_density
 _atom_site_pbe_cm5_charge
 _atom_site_pbe_ddec_charge
 _atom_site_pbe_ddec_spin_density
 _atom_site_pbe_ddec_sum_bond_order
 _atom_site_pbe_magmom
Bi  Bi0  1  0.72982985  0.78230263  0.28832238  1  0  0.972932  0  2.589047  0  0  0.823186  0  3.081367  0  0  0.881804  0  3.049086  0  0  0.46585  0.782735  0  3.103061  0
Bi  Bi1  1  0.77016907  0.21770977  0.78832337  1  0  0.972873  0  2.589041  0  0  0.82311  0  3.081378  0  0  0.881732  0  3.049097  0  0  0.465838  0.782663  0  3.103069  0
Bi  Bi2  1  0.27017869  0.21769842  0.71168635  1  0  0.972863  0  2.589049  0  0  0.82311  0  3.081375  0  0  0.881731  0  3.049095  0  0  0.46582  0.782657  0  3.103072  0
Bi  Bi3  1  0.22982925  0.78229030  0.21167789  1  0  0.972902  0  2.589055  0  0  0.823144  0  3.081384  0  0  0.881765  0  3.049104  0  0  0.465841  0.782697  0  3.103078  0
H  H4  1  0.89242619  0.56991157  0.58896672  1  0  0.072841  0  0.939485  0  0  0.08688  0  1.005035  0  0  0.087906  0  1.004307  0  0  0.096897  0.086035  0  1.005768  0
H  H5  1  0.60757571  0.43009178  0.08896631  1  0  0.072866  0  0.939466  0  0  0.086929  0  1.004977  0  0  0.087955  0  1.004249  0  0  0.096912  0.086082  0  1.005712  0
H  H6  1  0.10757340  0.43008850  0.41103251  1  0  0.072832  0  0.939458  0  0  0.086894  0  1.005009  0  0  0.08792  0  1.004282  0  0  0.096913  0.086051  0  1.005745  0
H  H7  1  0.39242271  0.56991132  0.91103225  1  0  0.072882  0  0.93945  0  0  0.086917  0  1.005024  0  0  0.087942  0  1.004297  0  0  0.096895  0.086074  0  1.00576  0
H  H8  1  0.07542618  0.61487732  0.65258667  1  0  0.064584  0  0.962787  0  0  0.078765  0  1.031925  0  0  0.079676  0  1.031565  0  0  0.096305  0.077891  0  1.032651  0
H  H9  1  0.42457746  0.38512441  0.15258660  1  0  0.064614  0  0.962775  0  0  0.078792  0  1.031916  0  0  0.079703  0  1.031556  0  0  0.09631  0.077919  0  1.032644  0
H  H10  1  0.92457592  0.38512173  0.34741324  1  0  0.06459  0  0.962783  0  0  0.078786  0  1.031942  0  0  0.079699  0  1.031577  0  0  0.096317  0.077913  0  1.03267  0
H  H11  1  0.57542093  0.61487768  0.84741331  1  0  0.064617  0  0.962764  0  0  0.078817  0  1.031922  0  0  0.079737  0  1.031538  0  0  0.096324  0.077944  0  1.03265  0
H  H12  1  0.19185793  0.84516432  0.63262058  1  0  0.067232  0  0.930539  0  0  0.083585  0  0.995001  0  0  0.083681  0  0.995664  0  0  0.1011  0.083463  0  0.994557  0
H  H13  1  0.30814541  0.15483771  0.13262094  1  0  0.067246  0  0.930647  0  0  0.08362  0  0.995095  0  0  0.083716  0  0.995762  0  0  0.101122  0.083497  0  0.99465  0
H  H14  1  0.80814424  0.15483675  0.36737797  1  0  0.067202  0  0.930675  0  0  0.083586  0  0.995118  0  0  0.08368  0  0.995786  0  0  0.101103  0.083465  0  0.99467  0
H  H15  1  0.69185298  0.84516437  0.86737897  1  0  0.067217  0  0.930546  0  0  0.083607  0  0.994981  0  0  0.083701  0  0.995648  0  0  0.101086  0.083485  0  0.994535  0
H  H16  1  0.19751022  0.90383033  0.51959828  1  0  0.074027  0  0.955453  0  0  0.085778  0  1.025644  0  0  0.086943  0  1.024877  0  0  0.092156  0.084791  0  1.026547  0
H  H17  1  0.30249139  0.09617242  0.01959903  1  0  0.073997  0  0.955436  0  0  0.08576  0  1.025634  0  0  0.086926  0  1.024868  0  0  0.092151  0.084773  0  1.026538  0
H  H18  1  0.80249694  0.09616770  0.48039756  1  0  0.074004  0  0.955407  0  0  0.085743  0  1.025633  0  0  0.086909  0  1.024864  0  0  0.092141  0.084741  0  1.02655  0
H  H19  1  0.69750951  0.90382865  0.98040224  1  0  0.074023  0  0.95542  0  0  0.085785  0  1.025622  0  0  0.08695  0  1.024857  0  0  0.09215  0.084798  0  1.026525  0
H  H20  1  0.81147004  0.66249535  0.73964586  1  0  0.106203  0  0.964922  0  0  0.127374  0  1.028242  0  0  0.12861  0  1.028616  0  0  0.080123  0.126334  0  1.02816  0
H  H21  1  0.68853677  0.33750870  0.23964509  1  0  0.106179  0  0.965039  0  0  0.127352  0  1.028358  0  0  0.128588  0  1.028732  0  0  0.080131  0.126314  0  1.028271  0
H  H22  1  0.18853733  0.33750872  0.26035405  1  0  0.106189  0  0.965036  0  0  0.127376  0  1.02834  0  0  0.128615  0  1.028709  0  0  0.080139  0.126337  0  1.028255  0
H  H23  1  0.31146300  0.66249640  0.76035414  1  0  0.106131  0  0.965027  0  0  0.127327  0  1.028314  0  0  0.128567  0  1.028683  0  0  0.080114  0.126289  0  1.02823  0
H  H24  1  0.73923343  0.77059706  0.65212649  1  0  0.105458  0  0.96058  0  0  0.124011  0  1.026667  0  0  0.125589  0  1.026685  0  0  0.078219  0.122641  0  1.026831  0
H  H25  1  0.76077324  0.22940530  0.15212408  1  0  0.105555  0  0.960447  0  0  0.124085  0  1.026563  0  0  0.125662  0  1.02658  0  0  0.078259  0.122715  0  1.026729  0
H  H26  1  0.26077133  0.22940500  0.34787478  1  0  0.105519  0  0.960537  0  0  0.124048  0  1.02665  0  0  0.125624  0  1.026669  0  0  0.078249  0.122678  0  1.026814  0
H  H27  1  0.23923028  0.77059777  0.84787379  1  0  0.105521  0  0.960507  0  0  0.124035  0  1.026642  0  0  0.125611  0  1.02666  0  0  0.078238  0.122666  0  1.026807  0
H  H28  1  0.92345699  0.81654584  0.71683284  1  0  0.0995  0  0.975538  0  0  0.116235  0  1.047301  0  0  0.118031  0  1.046917  0  0  0.074009  0.114648  0  1.047843  0
H  H29  1  0.57654930  0.18345353  0.21683063  1  0  0.09957  0  0.975478  0  0  0.1163  0  1.047236  0  0  0.118094  0  1.046853  0  0  0.074034  0.114713  0  1.047776  0
H  H30  1  0.07655159  0.18345622  0.28316775  1  0  0.099566  0  0.97549  0  0  0.116294  0  1.047246  0  0  0.118088  0  1.046863  0  0  0.074034  0.114708  0  1.047786  0
H  H31  1  0.42345418  0.81654854  0.78316792  1  0  0.099489  0  0.97554  0  0  0.116206  0  1.047316  0  0  0.118  0  1.046935  0  0  0.074009  0.11462  0  1.047857  0
H  H32  1  0.45885888  0.77728877  0.55355800  1  0  0.105234  0  0.978418  0  0  0.123952  0  1.045903  0  0  0.125571  0  1.045741  0  0  0.076093  0.122596  0  1.046326  0
H  H33  1  0.04114452  0.22271346  0.05355672  1  0  0.105311  0  0.978381  0  0  0.124028  0  1.045863  0  0  0.125648  0  1.045702  0  0  0.076147  0.122674  0  1.046285  0
H  H34  1  0.54114557  0.22270423  0.44644869  1  0  0.105269  0  0.978416  0  0  0.123978  0  1.045897  0  0  0.125599  0  1.045736  0  0  0.076147  0.122624  0  1.04632  0
H  H35  1  0.95885504  0.77728560  0.94644115  1  0  0.10525  0  0.978416  0  0  0.124007  0  1.045861  0  0  0.125626  0  1.045702  0  0  0.076135  0.122654  0  1.046285  0
H  H36  1  0.33791015  0.69028578  0.46957802  1  0  0.096647  0  0.983502  0  0  0.110217  0  1.060636  0  0  0.111656  0  1.060831  0  0  0.06919  0.109067  0  1.060554  0
H  H37  1  0.16209083  0.30971816  0.96957722  1  0  0.096648  0  0.983443  0  0  0.11023  0  1.060574  0  0  0.111669  0  1.060768  0  0  0.069204  0.109082  0  1.060494  0
H  H38  1  0.66209685  0.30970721  0.53042189  1  0  0.096648  0  0.983508  0  0  0.110204  0  1.060654  0  0  0.111642  0  1.060852  0  0  0.069174  0.109056  0  1.060573  0
H  H39  1  0.83790872  0.69028090  0.03041998  1  0  0.096666  0  0.983477  0  0  0.110266  0  1.060567  0  0  0.111706  0  1.060761  0  0  0.0692  0.109118  0  1.060488  0
H  H40  1  0.33697453  0.63090258  0.58348384  1  0  0.096928  0  0.97278  0  0  0.114472  0  1.042918  0  0  0.116014  0  1.04264  0  0  0.074492  0.113196  0  1.043414  0
H  H41  1  0.16302929  0.36909818  0.08348478  1  0  0.096974  0  0.972765  0  0  0.11453  0  1.042872  0  0  0.116069  0  1.042598  0  0  0.074522  0.113255  0  1.043367  0
H  H42  1  0.66302121  0.36909649  0.41651675  1  0  0.09693  0  0.972725  0  0  0.114478  0  1.042864  0  0  0.116019  0  1.042589  0  0  0.074499  0.113202  0  1.04336  0
H  H43  1  0.83696776  0.63090189  0.91651378  1  0  0.097011  0  0.972743  0  0  0.114577  0  1.042845  0  0  0.116117  0  1.042572  0  0  0.074543  0.113301  0  1.043341  0
C  C44  1  0.93752497  0.75827062  0.46924751  1  0  0.233749  0  3.745149  0  0  0.201389  0  4.050689  0  0  0.225531  0  4.060509  0  0  0.136345  0.184961  0  4.043686  0
C  C45  1  0.56248014  0.24172892  0.96924676  1  0  0.233779  0  3.744906  0  0  0.201427  0  4.05048  0  0  0.225568  0  4.060302  0  0  0.136399  0.184997  0  4.04348  0
C  C46  1  0.06247713  0.24172843  0.53075376  1  0  0.233749  0  3.745073  0  0  0.201367  0  4.05065  0  0  0.225508  0  4.060472  0  0  0.136355  0.184939  0  4.043645  0
C  C47  1  0.43751821  0.75827216  0.03075315  1  0  0.233852  0  3.744893  0  0  0.201476  0  4.050484  0  0  0.225618  0  4.060305  0  0  0.136396  0.185048  0  4.043485  0
C  C48  1  0.96334292  0.65562777  0.61883792  1  0  0.036534  0  3.643111  0  0  -0.018538  0  3.898155  0  0  -0.014082  0  3.909854  0  0  -0.06759  -0.021515  0  3.890275  0
C  C49  1  0.53666066  0.34437411  0.11883712  1  0  0.036469  0  3.643106  0  0  -0.018555  0  3.898085  0  0  -0.014099  0  3.909785  0  0  -0.067586  -0.021532  0  3.890206  0
C  C50  1  0.03666046  0.34437128  0.38116063  1  0  0.036529  0  3.643105  0  0  -0.018617  0  3.898241  0  0  -0.014163  0  3.909947  0  0  -0.067647  -0.021604  0  3.890372  0
C  C51  1  0.46333772  0.65562798  0.88116143  1  0  0.036424  0  3.643091  0  0  -0.018701  0  3.898214  0  0  -0.01424  0  3.909916  0  0  -0.067654  -0.021684  0  3.89034  0
C  C52  1  0.19092155  0.81257937  0.56143095  1  0  0.039545  0  3.644934  0  0  -0.015623  0  3.901928  0  0  -0.011012  0  3.913951  0  0  -0.068724  -0.01854  0  3.893565  0
C  C53  1  0.30908197  0.18742274  0.06143176  1  0  0.039583  0  3.64495  0  0  -0.015639  0  3.902058  0  0  -0.011027  0  3.914075  0  0  -0.068755  -0.018559  0  3.893695  0
C  C54  1  0.80907939  0.18742270  0.43856692  1  0  0.039632  0  3.645045  0  0  -0.015568  0  3.902075  0  0  -0.010956  0  3.914101  0  0  -0.068709  -0.018482  0  3.893728  0
C  C55  1  0.69091635  0.81257733  0.93856882  1  0  0.039535  0  3.644927  0  0  -0.015693  0  3.902031  0  0  -0.011086  0  3.914065  0  0  -0.06876  -0.018612  0  3.893668  0
C  C56  1  0.85292827  0.73175814  0.68561161  1  0  -0.309324  0  3.680131  0  0  -0.383764  0  3.920366  0  0  -0.387016  0  3.930075  0  0  -0.254874  -0.381049  0  3.91369  0
C  C57  1  0.64707893  0.26824472  0.18561047  1  0  -0.309501  0  3.680212  0  0  -0.38395  0  3.920505  0  0  -0.387199  0  3.930214  0  0  -0.254982  -0.381231  0  3.913826  0
C  C58  1  0.14707780  0.26824493  0.31438830  1  0  -0.309446  0  3.680266  0  0  -0.383862  0  3.920534  0  0  -0.387111  0  3.930241  0  0  -0.254937  -0.381145  0  3.913857  0
C  C59  1  0.35292207  0.73175937  0.81438808  1  0  -0.309295  0  3.680181  0  0  -0.383681  0  3.920393  0  0  -0.386934  0  3.9301  0  0  -0.254864  -0.380965  0  3.913715  0
C  C60  1  0.33913816  0.72158062  0.54090530  1  0  -0.315256  0  3.708725  0  0  -0.391157  0  3.951642  0  0  -0.394566  0  3.961553  0  0  -0.259692  -0.38829  0  3.944751  0
C  C61  1  0.16086633  0.27842180  0.04090483  1  0  -0.315432  0  3.708664  0  0  -0.391337  0  3.951629  0  0  -0.394742  0  3.961534  0  0  -0.259802  -0.388472  0  3.944741  0
C  C62  1  0.66086388  0.27841641  0.45909597  1  0  -0.315343  0  3.70877  0  0  -0.391206  0  3.951706  0  0  -0.3946  0  3.961584  0  0  -0.259743  -0.388339  0  3.944805  0
C  C63  1  0.83913196  0.72157727  0.95909305  1  0  -0.315403  0  3.708733  0  0  -0.391358  0  3.95167  0  0  -0.394757  0  3.961557  0  0  -0.259791  -0.388492  0  3.944777  0
S  S64  1  0.00275030  0.87303293  0.38640894  1  0  -0.34126  0  2.201361  0  0  -0.305755  0  2.545717  0  0  -0.325626  0  2.545125  0  0  -0.114542  -0.291915  0  2.545912  0
S  S65  1  0.49724919  0.12696524  0.88641088  1  0  -0.341239  0  2.201383  0  0  -0.305729  0  2.54575  0  0  -0.3256  0  2.545159  0  0  -0.114529  -0.291887  0  2.545942  0
S  S66  1  0.99725693  0.12696711  0.61359300  1  0  -0.341288  0  2.201373  0  0  -0.305778  0  2.545751  0  0  -0.325659  0  2.545178  0  0  -0.114563  -0.291927  0  2.545929  0
S  S67  1  0.50274912  0.87303484  0.11359038  1  0  -0.341301  0  2.201376  0  0  -0.305779  0  2.545728  0  0  -0.325659  0  2.545157  0  0  -0.114554  -0.291933  0  2.545913  0
S  S68  1  0.75153735  0.66633453  0.45084889  1  0  -0.262697  0  2.119576  0  0  -0.233125  0  2.447054  0  0  -0.248413  0  2.445241  0  0  -0.087971  -0.222529  0  2.448307  0
S  S69  1  0.74846632  0.33366832  0.95085169  1  0  -0.262659  0  2.119506  0  0  -0.233068  0  2.446955  0  0  -0.248355  0  2.445143  0  0  -0.087966  -0.222472  0  2.44821  0
S  S70  1  0.24846473  0.33366352  0.54915373  1  0  -0.262679  0  2.119538  0  0  -0.233093  0  2.447013  0  0  -0.248382  0  2.445202  0  0  -0.087964  -0.222496  0  2.448266  0
S  S71  1  0.25153331  0.66633275  0.04914890  1  0  -0.262689  0  2.119602  0  0  -0.233089  0  2.447065  0  0  -0.248375  0  2.445252  0  0  -0.087952  -0.222496  0  2.448323  0
Br  Br72  1  0.47015559  0.96575496  0.34189824  1  0  -0.432843  0  0.977484  0  0  -0.373836  0  1.240971  0  0  -0.396313  0  1.227481  0  0  -0.18373  -0.357745  0  1.249977  0
Br  Br73  1  0.02985047  0.03423178  0.84190152  1  0  -0.432863  0  0.977376  0  0  -0.373866  0  1.24089  0  0  -0.396342  0  1.227392  0  0  -0.183761  -0.357772  0  1.249893  0
Br  Br74  1  0.52985241  0.03422997  0.65810031  1  0  -0.432841  0  0.977364  0  0  -0.373833  0  1.240848  0  0  -0.39631  0  1.227355  0  0  -0.183746  -0.357739  0  1.24985  0
Br  Br75  1  0.97014791  0.96577031  0.15809771  1  0  -0.432876  0  0.977333  0  0  -0.373884  0  1.24084  0  0  -0.396361  0  1.227343  0  0  -0.183769  -0.357791  0  1.249843  0
Br  Br76  1  0.93790797  0.57631384  0.20668691  1  0  -0.417336  0  1.067022  0  0  -0.359684  0  1.344502  0  0  -0.382364  0  1.331333  0  0  -0.156643  -0.343798  0  1.353818  0
Br  Br77  1  0.56209432  0.42368468  0.70668691  1  0  -0.417311  0  1.067083  0  0  -0.359665  0  1.344576  0  0  -0.382348  0  1.33141  0  0  -0.156635  -0.343778  0  1.353889  0
Br  Br78  1  0.06209524  0.42368017  0.79331232  1  0  -0.417315  0  1.067086  0  0  -0.35965  0  1.344548  0  0  -0.38233  0  1.331381  0  0  -0.156631  -0.343768  0  1.353871  0
Br  Br79  1  0.43790658  0.57631639  0.29331300  1  0  -0.417333  0  1.067069  0  0  -0.359679  0  1.344551  0  0  -0.382358  0  1.331383  0  0  -0.156642  -0.343794  0  1.353866  0
N  N80  1  0.02584893  0.74359629  0.54517226  1  0  -0.092653  0  3.396216  0  0  0.00569  0  3.613552  0  0  -0.011573  0  3.636479  0  0  -0.246987  0.017066  0  3.598056  0
N  N81  1  0.47415296  0.25640305  0.04517195  1  0  -0.092624  0  3.395983  0  0  0.005661  0  3.613438  0  0  -0.0116  0  3.636365  0  0  -0.246993  0.017042  0  3.59794  0
N  N82  1  0.97415190  0.25640276  0.45482833  1  0  -0.092637  0  3.396081  0  0  0.005728  0  3.613474  0  0  -0.011538  0  3.636405  0  0  -0.246979  0.017106  0  3.597973  0
N  N83  1  0.52584405  0.74359602  0.95482796  1  0  -0.092676  0  3.395967  0  0  0.005647  0  3.613427  0  0  -0.01162  0  3.636355  0  0  -0.246964  0.017028  0  3.597928  0
