# generated using pymatgen
data_Cd5H18C8Br4(N10O)2
_symmetry_space_group_name_H-M   'P 1'
_cell_length_a   9.31133330
_cell_length_b   10.42582206
_cell_length_c   13.98898524
_cell_angle_alpha   89.99996520
_cell_angle_beta   95.33577525
_cell_angle_gamma   89.99997151
_symmetry_Int_Tables_number   1
_chemical_formula_structural   Cd5H18C8Br4(N10O)2
_chemical_formula_sum   'Cd10 H36 C16 Br8 N40 O4'
_cell_volume   1352.14239992
_cell_formula_units_Z   2
loop_
 _symmetry_equiv_pos_site_id
 _symmetry_equiv_pos_as_xyz
  1  'x, y, z'
loop_
 _atom_site_type_symbol
 _atom_site_label
 _atom_site_symmetry_multiplicity
 _atom_site_fract_x
 _atom_site_fract_y
 _atom_site_fract_z
 _atom_site_occupancy
 _atom_site_hle17_bader_spin_density
 _atom_site_hle17_ddec_charge
 _atom_site_hle17_ddec_spin_density
 _atom_site_hle17_ddec_sum_bond_order
 _atom_site_hle17_magmom
 _atom_site_hse06_10hf_bader_spin_density
 _atom_site_hse06_10hf_ddec_charge
 _atom_site_hse06_10hf_ddec_spin_density
 _atom_site_hse06_10hf_ddec_sum_bond_order
 _atom_site_hse06_10hf_magmom
 _atom_site_hse06_bader_spin_density
 _atom_site_hse06_ddec_charge
 _atom_site_hse06_ddec_spin_density
 _atom_site_hse06_ddec_sum_bond_order
 _atom_site_hse06_magmom
 _atom_site_pbe_bader_spin_density
 _atom_site_pbe_cm5_charge
 _atom_site_pbe_ddec_charge
 _atom_site_pbe_ddec_spin_density
 _atom_site_pbe_ddec_sum_bond_order
 _atom_site_pbe_magmom
Cd  Cd0  1  0.99999502  0.50000139  0.50000208  1  0  0.923023  0  1.925451  0  0  0.72927  0  2.37821  0  0  0.777818  0  2.339084  0  0  0.672957  0.696267  0  2.405137  0
Cd  Cd1  1  0.00000482  0.00000247  0.99999875  1  0  0.92305  0  1.925455  0  0  0.729288  0  2.378235  0  0  0.777836  0  2.339107  0  0  0.672971  0.696287  0  2.405161  0
Cd  Cd2  1  0.18728893  0.17360620  0.51429126  1  0  0.980002  0  1.898566  0  0  0.801874  0  2.355773  0  0  0.849877  0  2.314326  0  0  0.648408  0.767915  0  2.383374  0
Cd  Cd3  1  0.81270972  0.67360961  0.98570942  1  0  0.979976  0  1.898625  0  0  0.801869  0  2.355789  0  0  0.849873  0  2.31434  0  0  0.648394  0.7679  0  2.383362  0
Cd  Cd4  1  0.81270511  0.82639585  0.48570701  1  0  0.980001  0  1.89861  0  0  0.801897  0  2.355762  0  0  0.8499  0  2.314314  0  0  0.648398  0.767931  0  2.383342  0
Cd  Cd5  1  0.18729510  0.32639628  0.01429382  1  0  0.980025  0  1.898573  0  0  0.80192  0  2.355728  0  0  0.849926  0  2.314275  0  0  0.648404  0.767956  0  2.383305  0
Cd  Cd6  1  0.52611499  0.45486756  0.12023697  1  0  1.079004  0  1.801653  0  0  0.902655  0  2.245472  0  0  0.952645  0  2.20044  0  0  0.680046  0.868387  0  2.274958  0
Cd  Cd7  1  0.47388407  0.95486737  0.37976373  1  0  1.079003  0  1.801646  0  0  0.902656  0  2.245472  0  0  0.952652  0  2.200436  0  0  0.680059  0.868405  0  2.274965  0
Cd  Cd8  1  0.47388769  0.54513161  0.87976257  1  0  1.078961  0  1.80169  0  0  0.902594  0  2.245519  0  0  0.952588  0  2.200484  0  0  0.680021  0.868329  0  2.275003  0
Cd  Cd9  1  0.52611105  0.04513276  0.62023746  1  0  1.078939  0  1.801727  0  0  0.902591  0  2.245565  0  0  0.952582  0  2.200532  0  0  0.680017  0.868324  0  2.275054  0
H  H10  1  0.82593862  0.30476125  0.36714739  1  0  0.31761  0  0.918043  0  0  0.298757  0  0.990059  0  0  0.304958  0  0.98526  0  0  0.284723  0.293685  0  0.994938  0
H  H11  1  0.17406053  0.80476235  0.13285267  1  0  0.317642  0  0.918009  0  0  0.298781  0  0.990046  0  0  0.304981  0  0.98525  0  0  0.284737  0.293716  0  0.994922  0
H  H12  1  0.17405866  0.69523985  0.63285180  1  0  0.317687  0  0.918075  0  0  0.298817  0  0.990118  0  0  0.305018  0  0.985314  0  0  0.28474  0.293746  0  0.994997  0
H  H13  1  0.82594322  0.19524258  0.86714836  1  0  0.317644  0  0.918075  0  0  0.298793  0  0.990084  0  0  0.304994  0  0.985281  0  0  0.284732  0.293716  0  0.994962  0
H  H14  1  0.75022438  0.30585283  0.25194493  1  0  0.3091  0  0.931684  0  0  0.293152  0  0.996859  0  0  0.299066  0  0.99265  0  0  0.289587  0.289647  0  0.998285  0
H  H15  1  0.24977693  0.80585285  0.24805598  1  0  0.309104  0  0.931656  0  0  0.293152  0  0.996842  0  0  0.299067  0  0.992634  0  0  0.289594  0.289654  0  0.998259  0
H  H16  1  0.24977613  0.69414826  0.74805589  1  0  0.309049  0  0.931691  0  0  0.293126  0  0.996842  0  0  0.299038  0  0.99264  0  0  0.289579  0.289629  0  0.99825  0
H  H17  1  0.75022683  0.19415304  0.75194291  1  0  0.309166  0  0.931666  0  0  0.293237  0  0.99681  0  0  0.299152  0  0.992602  0  0  0.289608  0.289727  0  0.998236  0
H  H18  1  0.46903454  0.20554225  0.46377231  1  0  0.387005  0  0.898253  0  0  0.35814  0  0.974861  0  0  0.367827  0  0.961068  0  0  0.269439  0.350776  0  0.984225  0
H  H19  1  0.53096252  0.70554231  0.03622766  1  0  0.38708  0  0.898132  0  0  0.358176  0  0.974806  0  0  0.367861  0  0.961016  0  0  0.269455  0.350804  0  0.984163  0
H  H20  1  0.53096273  0.79445692  0.53622902  1  0  0.387083  0  0.898149  0  0  0.358174  0  0.974818  0  0  0.367858  0  0.96103  0  0  0.269433  0.350808  0  0.984189  0
H  H21  1  0.46903692  0.29445686  0.96377167  1  0  0.38709  0  0.898139  0  0  0.358185  0  0.974801  0  0  0.367868  0  0.961013  0  0  0.269425  0.350813  0  0.984165  0
H  H22  1  0.66967974  0.46850945  0.54486093  1  0  0.31851  0  0.906391  0  0  0.302804  0  0.974881  0  0  0.309245  0  0.969327  0  0  0.289364  0.298093  0  0.979236  0
H  H23  1  0.33032197  0.96850926  0.95513838  1  0  0.318491  0  0.906409  0  0  0.30279  0  0.97489  0  0  0.309231  0  0.969335  0  0  0.289373  0.298079  0  0.979247  0
H  H24  1  0.33030999  0.53148877  0.45513778  1  0  0.318548  0  0.906402  0  0  0.302864  0  0.974839  0  0  0.309303  0  0.969284  0  0  0.289362  0.298161  0  0.979197  0
H  H25  1  0.66969148  0.03148800  0.04486398  1  0  0.318554  0  0.906391  0  0  0.302867  0  0.974838  0  0  0.309305  0  0.969285  0  0  0.289342  0.298158  0  0.979197  0
H  H26  1  0.56208934  0.36842430  0.60113980  1  0  0.314412  0  0.906213  0  0  0.303243  0  0.965705  0  0  0.308288  0  0.9624  0  0  0.298261  0.300092  0  0.967451  0
H  H27  1  0.43791135  0.86842219  0.89886092  1  0  0.314444  0  0.906239  0  0  0.303248  0  0.96577  0  0  0.308293  0  0.962467  0  0  0.298261  0.300096  0  0.967511  0
H  H28  1  0.43790362  0.63157392  0.39886198  1  0  0.314496  0  0.906252  0  0  0.303317  0  0.965749  0  0  0.308363  0  0.962443  0  0  0.298293  0.300169  0  0.967492  0
H  H29  1  0.56209779  0.13157411  0.10113974  1  0  0.314475  0  0.906282  0  0  0.303342  0  0.965697  0  0  0.308387  0  0.962392  0  0  0.298311  0.300188  0  0.967447  0
H  H30  1  0.63009424  0.83128481  0.23389867  1  0  0.312996  0  0.917932  0  0  0.297421  0  0.985397  0  0  0.304712  0  0.979229  0  0  0.273708  0.291666  0  0.991097  0
H  H31  1  0.36990597  0.33128496  0.26610216  1  0  0.312993  0  0.917906  0  0  0.297427  0  0.985369  0  0  0.304719  0  0.9792  0  0  0.273704  0.291673  0  0.991073  0
H  H32  1  0.36990627  0.16871724  0.76610072  1  0  0.312973  0  0.917977  0  0  0.297396  0  0.985442  0  0  0.304687  0  0.979278  0  0  0.273709  0.291642  0  0.991142  0
H  H33  1  0.63009345  0.66871901  0.73390217  1  0  0.312991  0  0.917934  0  0  0.297342  0  0.985489  0  0  0.304632  0  0.979324  0  0  0.273662  0.291582  0  0.991188  0
H  H34  1  0.48087301  0.74138211  0.21302374  1  0  0.313032  0  0.90966  0  0  0.298557  0  0.97514  0  0  0.305504  0  0.969205  0  0  0.288155  0.293559  0  0.979589  0
H  H35  1  0.51912834  0.24138217  0.28697649  1  0  0.31303  0  0.909639  0  0  0.298555  0  0.975121  0  0  0.305503  0  0.969183  0  0  0.288159  0.293557  0  0.979568  0
H  H36  1  0.51912752  0.25861994  0.78697280  1  0  0.312906  0  0.909549  0  0  0.29843  0  0.97506  0  0  0.305378  0  0.969122  0  0  0.288114  0.293428  0  0.979513  0
H  H37  1  0.48087540  0.75862276  0.71302811  1  0  0.312937  0  0.90965  0  0  0.298456  0  0.975133  0  0  0.305402  0  0.969198  0  0  0.288123  0.293445  0  0.979603  0
H  H38  1  0.00041355  0.96915689  0.62999938  1  0  0.3166  0  0.929588  0  0  0.300015  0  0.996445  0  0  0.30741  0  0.990357  0  0  0.272264  0.29464  0  1.001194  0
H  H39  1  0.99958491  0.46915763  0.87000259  1  0  0.316607  0  0.929574  0  0  0.300017  0  0.996431  0  0  0.307412  0  0.990345  0  0  0.272262  0.294647  0  1.001176  0
H  H40  1  0.99958158  0.03084420  0.36999896  1  0  0.316545  0  0.929603  0  0  0.299953  0  0.996488  0  0  0.307352  0  0.990391  0  0  0.272231  0.294589  0  1.001234  0
H  H41  1  0.00041559  0.53084442  0.12999967  1  0  0.316593  0  0.929548  0  0  0.300005  0  0.99643  0  0  0.307403  0  0.990332  0  0  0.27225  0.294634  0  1.001181  0
H  H42  1  0.83524876  0.95228225  0.66759647  1  0  0.319442  0  0.896889  0  0  0.304894  0  0.956516  0  0  0.310853  0  0.95261  0  0  0.299257  0.301769  0  0.957087  0
H  H43  1  0.16474863  0.45228338  0.83240329  1  0  0.31947  0  0.896858  0  0  0.304932  0  0.956459  0  0  0.310892  0  0.95255  0  0  0.299278  0.301808  0  0.957041  0
H  H44  1  0.16474744  0.04771597  0.33240122  1  0  0.31943  0  0.896893  0  0  0.304899  0  0.956501  0  0  0.310859  0  0.952592  0  0  0.299297  0.301781  0  0.957082  0
H  H45  1  0.83525188  0.54771675  0.16759754  1  0  0.31942  0  0.896918  0  0  0.304888  0  0.956526  0  0  0.31085  0  0.952611  0  0  0.299277  0.301764  0  0.957105  0
C  C46  1  0.72917682  0.47070504  0.32487883  1  0  0.573281  0  3.856797  0  0  0.52684  0  4.136597  0  0  0.550653  0  4.145752  0  0  0.301522  0.510395  0  4.130749  0
C  C47  1  0.27082331  0.97070510  0.17512121  1  0  0.573248  0  3.856812  0  0  0.526827  0  4.136583  0  0  0.550641  0  4.145739  0  0  0.30153  0.510386  0  4.13075  0
C  C48  1  0.27081938  0.52929510  0.67512172  1  0  0.573318  0  3.856755  0  0  0.526881  0  4.136531  0  0  0.550694  0  4.145691  0  0  0.30156  0.510442  0  4.130691  0
C  C49  1  0.72918369  0.02929791  0.82487502  1  0  0.573364  0  3.85661  0  0  0.526951  0  4.136372  0  0  0.550765  0  4.145528  0  0  0.301566  0.510505  0  4.130522  0
C  C50  1  0.86305331  0.11455456  0.59245148  1  0  0.567057  0  3.849834  0  0  0.515107  0  4.136204  0  0  0.539026  0  4.145767  0  0  0.300164  0.49836  0  4.129876  0
C  C51  1  0.13694646  0.61455737  0.90754859  1  0  0.567137  0  3.849791  0  0  0.515151  0  4.136191  0  0  0.539069  0  4.145754  0  0  0.30019  0.498402  0  4.129866  0
C  C52  1  0.13694182  0.88544173  0.40754615  1  0  0.566989  0  3.849806  0  0  0.515059  0  4.136138  0  0  0.538977  0  4.145702  0  0  0.300171  0.498313  0  4.129819  0
C  C53  1  0.86305621  0.38544564  0.09245095  1  0  0.567084  0  3.849716  0  0  0.515062  0  4.136164  0  0  0.538979  0  4.145727  0  0  0.300137  0.498313  0  4.129847  0
C  C54  1  0.74729465  0.28948757  0.56474025  1  0  0.584793  0  3.833113  0  0  0.534211  0  4.12049  0  0  0.55901  0  4.127872  0  0  0.308792  0.517651  0  4.115549  0
C  C55  1  0.25270501  0.78948743  0.93526044  1  0  0.584774  0  3.833145  0  0  0.534192  0  4.120516  0  0  0.558991  0  4.127897  0  0  0.308775  0.51763  0  4.115584  0
C  C56  1  0.25269724  0.71051065  0.43525859  1  0  0.58464  0  3.833274  0  0  0.534077  0  4.12064  0  0  0.558877  0  4.128023  0  0  0.308716  0.517519  0  4.115707  0
C  C57  1  0.74730090  0.21051079  0.06473930  1  0  0.584842  0  3.833078  0  0  0.534247  0  4.120487  0  0  0.559047  0  4.127867  0  0  0.308771  0.517688  0  4.115551  0
C  C58  1  0.64298639  0.65994674  0.29997599  1  0  0.547381  0  3.844562  0  0  0.501115  0  4.131972  0  0  0.524414  0  4.141094  0  0  0.292883  0.485478  0  4.125066  0
C  C59  1  0.35701501  0.15994790  0.20002428  1  0  0.547357  0  3.844536  0  0  0.501016  0  4.132049  0  0  0.524314  0  4.141173  0  0  0.292864  0.48538  0  4.125151  0
C  C60  1  0.35701305  0.34005340  0.70002262  1  0  0.547432  0  3.844525  0  0  0.501034  0  4.132085  0  0  0.524332  0  4.141209  0  0  0.292907  0.4854  0  4.125185  0
C  C61  1  0.64298873  0.84005703  0.79997818  1  0  0.547482  0  3.844533  0  0  0.501049  0  4.13214  0  0  0.524347  0  4.141267  0  0  0.29289  0.485412  0  4.125224  0
Br  Br62  1  0.25194090  0.96725866  0.64759609  1  0  -0.527976  0  1.026823  0  0  -0.462138  0  1.332219  0  0  -0.481187  0  1.308704  0  0  -0.24652  -0.449523  0  1.349657  0
Br  Br63  1  0.74805756  0.46726048  0.85240445  1  0  -0.527956  0  1.026808  0  0  -0.462106  0  1.332187  0  0  -0.481166  0  1.308692  0  0  -0.246523  -0.449511  0  1.349625  0
Br  Br64  1  0.74805422  0.03274339  0.35240297  1  0  -0.52798  0  1.026777  0  0  -0.462149  0  1.332171  0  0  -0.481221  0  1.308697  0  0  -0.246541  -0.44954  0  1.349609  0
Br  Br65  1  0.25194510  0.53274445  0.14759651  1  0  -0.527986  0  1.026797  0  0  -0.462142  0  1.332178  0  0  -0.481204  0  1.30869  0  0  -0.246529  -0.449533  0  1.349614  0
Br  Br66  1  0.13707828  0.34859008  0.36446805  1  0  -0.543859  0  0.955731  0  0  -0.48359  0  1.249024  0  0  -0.501172  0  1.225137  0  0  -0.281365  -0.472577  0  1.267809  0
Br  Br67  1  0.86292300  0.84859183  0.13553284  1  0  -0.543863  0  0.955762  0  0  -0.483604  0  1.249066  0  0  -0.50118  0  1.225166  0  0  -0.281373  -0.472608  0  1.267851  0
Br  Br68  1  0.86290282  0.65141101  0.63553083  1  0  -0.543862  0  0.955753  0  0  -0.483613  0  1.249075  0  0  -0.501167  0  1.225136  0  0  -0.281372  -0.472616  0  1.267852  0
Br  Br69  1  0.13709477  0.15141118  0.86446908  1  0  -0.543868  0  0.955733  0  0  -0.483628  0  1.249081  0  0  -0.501188  0  1.225142  0  0  -0.28138  -0.472634  0  1.267862  0
N  N70  1  0.63505722  0.53841005  0.26284318  1  0  -0.639245  0  3.059526  0  0  -0.558673  0  3.330303  0  0  -0.585335  0  3.337193  0  0  -0.382857  -0.540586  0  3.324666  0
N  N71  1  0.36494533  0.03841022  0.23715721  1  0  -0.639287  0  3.059459  0  0  -0.558703  0  3.33027  0  0  -0.585366  0  3.337159  0  0  -0.382881  -0.540616  0  3.324643  0
N  N72  1  0.36494438  0.46159008  0.73715414  1  0  -0.639367  0  3.059584  0  0  -0.558718  0  3.33037  0  0  -0.585381  0  3.33726  0  0  -0.382901  -0.540624  0  3.324731  0
N  N73  1  0.63505625  0.96159279  0.76284439  1  0  -0.639366  0  3.05951  0  0  -0.55876  0  3.330353  0  0  -0.585424  0  3.337246  0  0  -0.382878  -0.540677  0  3.324713  0
N  N74  1  0.74635459  0.34071912  0.31980922  1  0  -0.704364  0  3.111428  0  0  -0.672475  0  3.353175  0  0  -0.690629  0  3.349134  0  0  -0.605384  -0.659441  0  3.356403  0
N  N75  1  0.25364670  0.84072015  0.18019095  1  0  -0.704388  0  3.111416  0  0  -0.672503  0  3.353148  0  0  -0.69066  0  3.349107  0  0  -0.605388  -0.659465  0  3.356371  0
N  N76  1  0.25364377  0.65928101  0.68019003  1  0  -0.70439  0  3.1114  0  0  -0.672519  0  3.353108  0  0  -0.690677  0  3.349072  0  0  -0.605387  -0.659481  0  3.356323  0
N  N77  1  0.74635706  0.15928670  0.81980793  1  0  -0.704437  0  3.111321  0  0  -0.672581  0  3.353046  0  0  -0.690742  0  3.349005  0  0  -0.605423  -0.65955  0  3.356272  0
N  N78  1  0.95492674  0.19457702  0.55701890  1  0  -0.393925  0  3.148809  0  0  -0.336882  0  3.439541  0  0  -0.357163  0  3.456584  0  0  -0.288733  -0.323015  0  3.427328  0
N  N79  1  0.04507190  0.69457793  0.94298177  1  0  -0.393954  0  3.148787  0  0  -0.336899  0  3.439531  0  0  -0.357181  0  3.456575  0  0  -0.288743  -0.323023  0  3.427297  0
N  N80  1  0.04506515  0.80542407  0.44297995  1  0  -0.393938  0  3.148905  0  0  -0.336885  0  3.439621  0  0  -0.357168  0  3.456665  0  0  -0.288762  -0.323009  0  3.427394  0
N  N81  1  0.95493294  0.30542604  0.05701790  1  0  -0.394002  0  3.148933  0  0  -0.336915  0  3.439686  0  0  -0.357198  0  3.456732  0  0  -0.288722  -0.323049  0  3.427475  0
N  N82  1  0.73110558  0.16828560  0.59951616  1  0  -0.641863  0  3.071561  0  0  -0.558297  0  3.338253  0  0  -0.584374  0  3.34416  0  0  -0.383271  -0.54014  0  3.333233  0
N  N83  1  0.26889415  0.66828645  0.90048459  1  0  -0.641857  0  3.071611  0  0  -0.558272  0  3.33831  0  0  -0.584351  0  3.344216  0  0  -0.383254  -0.540123  0  3.333303  0
N  N84  1  0.26888846  0.83171165  0.40048282  1  0  -0.641681  0  3.071573  0  0  -0.558099  0  3.338207  0  0  -0.584179  0  3.344121  0  0  -0.383195  -0.539948  0  3.333206  0
N  N85  1  0.73111176  0.33171369  0.09951587  1  0  -0.641786  0  3.07142  0  0  -0.558153  0  3.338079  0  0  -0.584232  0  3.34399  0  0  -0.383226  -0.540001  0  3.33307  0
N  N86  1  0.89198931  0.98618078  0.61381560  1  0  -0.696622  0  3.117977  0  0  -0.641118  0  3.352452  0  0  -0.661684  0  3.346629  0  0  -0.59818  -0.62607  0  3.355147  0
N  N87  1  0.10800914  0.48618286  0.88618421  1  0  -0.696678  0  3.117835  0  0  -0.641186  0  3.352376  0  0  -0.661752  0  3.346553  0  0  -0.598189  -0.626139  0  3.355079  0
N  N88  1  0.10800582  0.01381743  0.38618131  1  0  -0.696516  0  3.117858  0  0  -0.641051  0  3.352337  0  0  -0.661614  0  3.346511  0  0  -0.59815  -0.626005  0  3.355049  0
N  N89  1  0.89199137  0.51382015  0.11381590  1  0  -0.696582  0  3.117869  0  0  -0.6411  0  3.352401  0  0  -0.661661  0  3.346575  0  0  -0.59816  -0.626052  0  3.35511  0
N  N90  1  0.63561394  0.37619539  0.55200411  1  0  -0.68522  0  3.011952  0  0  -0.653877  0  3.241913  0  0  -0.670638  0  3.236681  0  0  -0.592098  -0.642443  0  3.245584  0
N  N91  1  0.36438782  0.87619423  0.94799667  1  0  -0.685228  0  3.011995  0  0  -0.65387  0  3.241979  0  0  -0.670632  0  3.236746  0  0  -0.592114  -0.642435  0  3.245647  0
N  N92  1  0.36437795  0.62380187  0.44799616  1  0  -0.68529  0  3.012197  0  0  -0.653965  0  3.242163  0  0  -0.670723  0  3.236926  0  0  -0.592085  -0.642531  0  3.245829  0
N  N93  1  0.63562455  0.12380207  0.05200562  1  0  -0.685351  0  3.012206  0  0  -0.654051  0  3.242136  0  0  -0.670806  0  3.236899  0  0  -0.592114  -0.642616  0  3.245808  0
N  N94  1  0.88024176  0.30949556  0.53924016  1  0  -0.403452  0  3.097847  0  0  -0.340555  0  3.376284  0  0  -0.360441  0  3.392349  0  0  -0.284239  -0.327576  0  3.365928  0
N  N95  1  0.11975788  0.80949642  0.96076123  1  0  -0.403462  0  3.097783  0  0  -0.340564  0  3.37622  0  0  -0.360451  0  3.392285  0  0  -0.284251  -0.327587  0  3.365866  0
N  N96  1  0.11975012  0.69050553  0.46076011  1  0  -0.403473  0  3.097907  0  0  -0.340604  0  3.376349  0  0  -0.36049  0  3.392417  0  0  -0.284243  -0.327617  0  3.365983  0
N  N97  1  0.88025018  0.19050659  0.03924007  1  0  -0.403511  0  3.097932  0  0  -0.340633  0  3.376381  0  0  -0.36052  0  3.392449  0  0  -0.28426  -0.327649  0  3.366022  0
N  N98  1  0.73400101  0.66661570  0.37889708  1  0  -0.380934  0  3.161141  0  0  -0.32368  0  3.446745  0  0  -0.342633  0  3.463397  0  0  -0.282482  -0.311513  0  3.435048  0
N  N99  1  0.26600038  0.16661697  0.12110390  1  0  -0.380927  0  3.161138  0  0  -0.32364  0  3.446749  0  0  -0.342593  0  3.463401  0  0  -0.282468  -0.311461  0  3.435042  0
N  N100  1  0.26599195  0.33338347  0.62110327  1  0  -0.380894  0  3.161158  0  0  -0.323594  0  3.446819  0  0  -0.342546  0  3.463474  0  0  -0.282428  -0.311423  0  3.435126  0
N  N101  1  0.73400768  0.83338604  0.87889669  1  0  -0.380952  0  3.161219  0  0  -0.32364  0  3.44688  0  0  -0.342592  0  3.463534  0  0  -0.282484  -0.311476  0  3.435172  0
N  N102  1  0.56385872  0.76582715  0.26295280  1  0  -0.727532  0  3.084553  0  0  -0.684831  0  3.323732  0  0  -0.70399  0  3.316239  0  0  -0.602133  -0.670904  0  3.329164  0
N  N103  1  0.43614154  0.26582825  0.23704735  1  0  -0.727519  0  3.084539  0  0  -0.68481  0  3.323714  0  0  -0.70397  0  3.316222  0  0  -0.602116  -0.670877  0  3.329143  0
N  N104  1  0.43614073  0.23417298  0.73704439  1  0  -0.727353  0  3.084275  0  0  -0.684597  0  3.323467  0  0  -0.703758  0  3.315984  0  0  -0.602105  -0.670666  0  3.328884  0
N  N105  1  0.56386004  0.73417860  0.76295640  1  0  -0.727406  0  3.084222  0  0  -0.684535  0  3.323479  0  0  -0.703697  0  3.315998  0  0  -0.602084  -0.67061  0  3.328908  0
N  N106  1  0.79312514  0.54545689  0.39382045  1  0  -0.398219  0  3.119889  0  0  -0.335722  0  3.395532  0  0  -0.355508  0  3.412328  0  0  -0.284704  -0.321888  0  3.383415  0
N  N107  1  0.20687417  0.04545820  0.10618117  1  0  -0.398178  0  3.119893  0  0  -0.335687  0  3.395519  0  0  -0.355472  0  3.412315  0  0  -0.284686  -0.321844  0  3.383398  0
N  N108  1  0.20686781  0.45454228  0.60618204  1  0  -0.39826  0  3.119955  0  0  -0.335801  0  3.395617  0  0  -0.355586  0  3.412414  0  0  -0.284756  -0.321965  0  3.383504  0
N  N109  1  0.79313175  0.95454577  0.89381642  1  0  -0.398307  0  3.11999  0  0  -0.335829  0  3.395635  0  0  -0.355614  0  3.41243  0  0  -0.284762  -0.322  0  3.383515  0
O  O110  1  0.41891696  0.12642619  0.47781022  1  0  -0.958495  0  1.872512  0  0  -0.851552  0  2.136626  0  0  -0.887613  0  2.108751  0  0  -0.601069  -0.82454  0  2.15346  0
O  O111  1  0.58108230  0.62642816  0.02218993  1  0  -0.958566  0  1.872402  0  0  -0.851586  0  2.136605  0  0  -0.887647  0  2.10873  0  0  -0.601092  -0.82457  0  2.153421  0
O  O112  1  0.58107708  0.87357490  0.52219020  1  0  -0.958579  0  1.872404  0  0  -0.851589  0  2.136587  0  0  -0.88765  0  2.108712  0  0  -0.601053  -0.824571  0  2.153417  0
O  O113  1  0.41892253  0.37357389  0.97780974  1  0  -0.958604  0  1.872383  0  0  -0.85162  0  2.136563  0  0  -0.887678  0  2.108689  0  0  -0.601069  -0.824601  0  2.153383  0
