# generated using pymatgen
data_ZnH18C20N5O2
_symmetry_space_group_name_H-M   'P 1'
_cell_length_a   19.95819755
_cell_length_b   19.81232545
_cell_length_c   20.74567816
_cell_angle_alpha   108.25397437
_cell_angle_beta   106.82545352
_cell_angle_gamma   111.51755404
_symmetry_Int_Tables_number   1
_chemical_formula_structural   ZnH18C20N5O2
_chemical_formula_sum   'Zn4 H72 C80 N20 O8'
_cell_volume   6443.88523984
_cell_formula_units_Z   4
loop_
 _symmetry_equiv_pos_site_id
 _symmetry_equiv_pos_as_xyz
  1  'x, y, z'
loop_
 _atom_site_type_symbol
 _atom_site_label
 _atom_site_symmetry_multiplicity
 _atom_site_fract_x
 _atom_site_fract_y
 _atom_site_fract_z
 _atom_site_occupancy
 _atom_site_pbe_bader_charge
 _atom_site_pbe_bader_spin_density
 _atom_site_pbe_cm5_charge
 _atom_site_pbe_ddec_charge
 _atom_site_pbe_ddec_spin_density
 _atom_site_pbe_ddec_sum_bond_order
 _atom_site_pbe_magmom
Zn  Zn0  1  0.60016747  0.60417972  0.48894565  1  1.202089  0  0.746292  0.645973  0  2.390727  0
Zn  Zn1  1  0.40279753  0.40099006  0.50043109  1  1.192214  0  0.743762  0.613318  0  2.442961  0
Zn  Zn2  1  0.50420728  0.60324169  0.59493591  1  1.191193  0  0.751371  0.623281  0  2.488515  0
Zn  Zn3  1  0.50199040  0.39962056  0.40062073  1  1.19669  0  0.747444  0.628378  0  2.449112  0
H  H4  1  0.76670343  0.63664742  0.61352646  1  0.084712  0  0.116523  0.100778  0  1.014612  0
H  H5  1  0.54340508  0.79971576  0.66153886  1  0.069946  0  0.120467  0.110292  0  0.991078  0
H  H6  1  0.37578968  0.20510109  0.25718449  1  0.092097  0  0.119246  0.10763  0  0.996206  0
H  H7  1  0.23575352  0.21441761  0.38138951  1  0.080245  0  0.116691  0.103965  0  0.998388  0
H  H8  1  0.35210944  0.36268516  0.25597386  1  0.147336  0  0.120416  0.112984  0  1.009009  0
H  H9  1  0.38303395  0.64405785  0.49610238  1  0.116406  0  0.119574  0.11088  0  0.998285  0
H  H10  1  0.97857162  0.62889103  0.41378641  1  0.023675  0  0.091036  0.090322  0  0.98084  0
H  H11  1  0.50388972  0.36624534  0.62733263  1  0.087286  0  0.119531  0.109908  0  0.996285  0
H  H12  1  0.02855324  0.63438028  0.50269372  1  0.039307  0  0.096613  0.102091  0  0.979382  0
H  H13  1  0.13648223  0.65071574  0.47339889  1  0.063543  0  0.096371  0.101886  0  0.9821  0
H  H14  1  0.07623932  0.61737353  0.37609296  1  0.021391  0  0.091328  0.090177  0  0.977911  0
H  H15  1  0.87083751  0.39596612  0.30559254  1  0.014138  0  0.087885  0.082978  0  0.990696  0
H  H16  1  0.90059634  0.48532857  0.29428582  1  0.030176  0  0.095121  0.098195  0  0.971786  0
H  H17  1  0.98908102  0.39319908  0.31151559  1  0.014369  0  0.089613  0.086873  0  0.983149  0
H  H18  1  0.06590110  0.43484212  0.44857802  1  0.024632  0  0.097593  0.037639  0  0.982717  0
H  H19  1  0.58641058  0.12984949  0.50484365  1  0.025259  0  0.092823  0.092999  0  0.975339  0
H  H20  1  0.55491613  0.17248628  0.67615964  1  0.023134  0  0.091465  0.087406  0  0.985696  0
H  H21  1  0.50778107  0.13247113  0.57613008  1  0.024797  0  0.094254  0.096556  0  0.97814  0
H  H22  1  0.49448987  0.00470848  0.55820765  1  -0.003164  0  0.092038  0.091469  0  0.978139  0
H  H23  1  0.53386008  0.04206548  0.65788184  1  0.032994  0  0.091292  0.090332  0  0.979407  0
H  H24  1  0.69481663  0.23784538  0.74770650  1  0.051297  0  0.107339  0.054628  0  0.954063  0
H  H25  1  0.75141771  0.12330495  0.69641473  1  0.041581  0  0.096277  0.101964  0  1.010564  0
H  H26  1  0.69281513  0.18277396  0.54980471  1  0.022765  0  0.089436  0.085661  0  1.006101  0
H  H27  1  0.69483199  0.06655669  0.55564395  1  0.021362  0  0.087789  0.080661  0  0.997047  0
H  H28  1  0.43582848  0.62176163  0.84706085  1  0.090475  0  0.100133  0.105996  0  1.015664  0
H  H29  1  0.40327264  0.60829300  0.95135894  1  0.119485  0  0.103714  0.105488  0  1.013136  0
H  H30  1  0.35101444  0.62434049  0.13182008  1  0.08044  0  0.104159  0.109428  0  0.995699  0
H  H31  1  0.37648921  0.61130410  0.25128257  1  0.05524  0  0.100803  0.103403  0  0.996179  0
H  H32  1  0.31860193  0.38461834  0.01490700  1  0.108703  0  0.10827  0.122416  0  1.021348  0
H  H33  1  0.25374498  0.34680811  0.80985472  1  0.07579  0  0.104019  0.10648  0  0.997371  0
H  H34  1  0.28618602  0.05058448  0.19831423  1  0.060917  0  0.104034  0.118092  0  1.002144  0
H  H35  1  0.34255560  0.36483762  0.62875333  1  0.110322  0  0.11729  0.104423  0  1.001498  0
H  H36  1  0.88406553  0.69025361  0.72658691  1  0.054815  0  0.099991  0.101867  0  1.001557  0
H  H37  1  0.11563519  0.11085011  0.25288421  1  0.039068  0  0.097297  0.100199  0  1.004987  0
H  H38  1  0.86484689  0.76001193  0.97039126  1  0.096916  0  0.103581  0.103966  0  1.016413  0
H  H39  1  0.00312679  0.97528203  0.14409402  1  0.078539  0  0.10468  0.107164  0  0.996123  0
H  H40  1  0.73999159  0.66830355  0.84722887  1  0.040819  0  0.100419  0.100344  0  1.00155  0
H  H41  1  0.77376967  0.63460780  0.47477897  1  0.08029  0  0.122435  0.114209  0  0.983448  0
H  H42  1  0.64600287  0.38158356  0.50349162  1  0.091418  0  0.11824  0.109276  0  1.005551  0
H  H43  1  0.62471369  0.60579778  0.73663481  1  0.104353  0  0.120453  0.108945  0  0.995862  0
H  H44  1  0.49267443  0.62824637  0.35749791  1  0.082806  0  0.11646  0.105314  0  1.009729  0
H  H45  1  0.23709729  0.37809982  0.38484734  1  0.086359  0  0.118636  0.108022  0  0.997305  0
H  H46  1  0.69376718  0.90584751  0.51452689  1  0.082398  0  0.102439  0.105755  0  0.988271  0
H  H47  1  0.58850975  0.84475951  0.44720398  1  0.058445  0  0.102  0.102117  0  0.987777  0
H  H48  1  0.66237063  0.83429844  0.41829398  1  0.048897  0  0.11149  0.11557  0  0.968575  0
H  H49  1  0.17834382  0.48445460  0.56103725  1  0.029669  0  0.086136  0.075517  0  1.007181  0
H  H50  1  0.10875163  0.49333781  0.59788599  1  0.060478  0  0.090052  0.084928  0  1.013314  0
H  H51  1  0.20745278  0.57976294  0.63784900  1  0.068198  0  0.098342  0.099354  0  0.999201  0
H  H52  1  0.93274342  0.40402559  0.54230503  1  0.013381  0  0.083684  0.06947  0  1.009812  0
H  H53  1  0.87127290  0.44825350  0.51733393  1  0.059032  0  0.084787  0.078394  0  1.038538  0
H  H54  1  0.94998778  0.49711073  0.61275841  1  0.070136  0  0.106384  0.114836  0  0.969306  0
H  H55  1  0.93853714  0.40910899  0.43317058  1  0.062194  0  0.098068  0.040286  0  0.97986  0
H  H56  1  0.00596963  0.46705124  0.27875853  1  0.042716  0  0.096038  0.099955  0  0.974108  0
H  H57  1  0.58906860  0.01067781  0.49624006  1  -0.001058  0  0.090811  0.088898  0  0.982153  0
H  H58  1  0.34620292  0.64500670  0.71334467  1  0.074502  0  0.100416  0.097956  0  1.004801  0
H  H59  1  0.39318916  0.66220155  0.65388523  1  0.059222  0  0.09706  0.092337  0  1.010211  0
H  H60  1  0.43610824  0.74143791  0.75007613  1  0.068529  0  0.110322  0.117285  0  0.967999  0
H  H61  1  0.80422486  0.21669116  0.62781576  1  0.003726  0  0.085807  0.075236  0  1.035204  0
H  H62  1  0.85371004  0.21134651  0.71166665  1  0.017738  0  0.087204  0.075692  0  1.013985  0
H  H63  1  0.88824515  0.30744491  0.71077045  1  0.080162  0  0.106136  0.111445  0  0.972232  0
H  H64  1  0.71697412  0.33523327  0.39887875  1  0.061937  0  0.099802  0.097457  0  0.993861  0
H  H65  1  0.70968180  0.34168510  0.31309914  1  0.075437  0  0.101982  0.105799  0  0.994696  0
H  H66  1  0.63505208  0.25206454  0.30811743  1  0.077571  0  0.110317  0.114575  0  0.967784  0
H  H67  1  0.68848324  0.11758616  0.74122457  1  0.036963  0  0.095643  0.10348  0  0.976139  0
H  H68  1  0.28204738  0.35929547  0.70386972  1  0.063463  0  0.097144  0.096773  0  1.008898  0
H  H69  1  0.46749686  0.39968747  0.18593158  1  0.043613  0  0.09361  0.091634  0  0.999199  0
H  H70  1  0.42046310  0.35207289  0.08339652  1  0.028231  0  0.094806  0.091887  0  0.995057  0
H  H71  1  0.40116656  0.29027735  0.13048119  1  0.044859  0  0.103046  0.106366  0  0.980486  0
H  H72  1  0.15153265  0.91175876  0.98213041  1  0.078564  0  0.08779  0.075486  0  1.047136  0
H  H73  1  0.22197728  0.87712380  0.00800961  1  0.038521  0  0.104416  0.111813  0  0.970931  0
H  H74  1  0.25472799  0.98466746  0.05528764  1  0.013179  0  0.086179  0.077444  0  1.006412  0
H  H75  1  0.00861571  0.78152312  0.85087294  1  0.04456  0  0.105181  0.106041  0  0.998829  0
C  C76  1  0.72099081  0.62488432  0.63341259  1  0.437529  0  0.013066  -0.038737  0  3.952328  0
C  C77  1  0.59299490  0.35954327  0.58244263  1  0.05903  0  -0.030219  0.047836  0  4.18777  0
C  C78  1  0.38508487  0.49621604  0.70827957  1  0.041974  0  -0.042355  -0.14926  0  4.085416  0
C  C79  1  0.73543263  0.50087475  0.41376983  1  0.109878  0  -0.046085  -0.080147  0  4.219577  0
C  C80  1  0.46501649  0.56395148  0.34416273  1  0.425216  0  0.011735  -0.045811  0  3.957117  0
C  C81  1  0.28458537  0.44226658  0.41794519  1  0.420964  0  0.014258  -0.049423  0  3.936889  0
C  C82  1  0.56410292  0.78248389  0.61932977  1  0.491  0  0.013787  -0.038195  0  4.007199  0
C  C83  1  0.35234318  0.21993735  0.29754355  1  0.375386  0  0.008601  -0.053329  0  3.989397  0
C  C84  1  0.28035526  0.22531314  0.36010886  1  0.442623  0  0.005234  -0.059109  0  4.000603  0
C  C85  1  0.61115729  0.77469338  0.53457993  1  1.019324  0  0.188402  0.288827  0  4.084573  0
C  C86  1  0.39415032  0.42809613  0.29180266  1  0.41596  0  0.012147  -0.038791  0  3.95008  0
C  C87  1  0.53146912  0.37502418  0.59038585  1  0.458276  0  0.013306  -0.048895  0  3.943539  0
C  C88  1  0.35905045  0.57833260  0.47463590  1  0.415381  0  0.012364  -0.052661  0  3.939066  0
C  C89  1  0.40161236  0.49363985  0.27547832  1  0.031283  0  -0.034422  -0.030051  0  4.067568  0
C  C90  1  0.27864788  0.51309884  0.42683828  1  0.103776  0  -0.028636  0.052601  0  4.186471  0
C  C91  1  0.59413251  0.82721835  0.58323298  1  0.090482  0  -0.047031  -0.082195  0  4.221199  0
C  C92  1  0.27664689  0.17375909  0.29308492  1  -0.02139  0  -0.037545  -0.04203  0  4.088905  0
C  C93  1  0.98001316  0.47624056  0.46099204  1  0.436842  0  0.007042  0.067466  0  3.773412  0
C  C94  1  0.00732692  0.60067574  0.44101703  1  -0.008951  0  -0.156766  -0.185985  0  3.84926  0
C  C95  1  0.07812814  0.60322248  0.42354466  1  -0.035322  0  -0.156741  -0.183034  0  3.853796  0
C  C96  1  0.20718801  0.51750770  0.40563149  1  -0.537107  0  -0.068537  -0.124631  0  4.202543  0
C  C97  1  0.94249012  0.51064791  0.41199654  1  0.122975  0  -0.006625  0.123836  0  3.907937  0
C  C98  1  0.42761783  0.56465057  0.69935821  1  1.000697  0  0.181095  0.288715  0  4.081199  0
C  C99  1  0.06385500  0.49244110  0.46254942  1  0.490965  0  0.011299  0.075488  0  3.773519  0
C  C100  1  0.07318618  0.51869274  0.40094156  1  0.114459  0  -0.002115  0.134358  0  3.901627  0
C  C101  1  0.99647887  0.45446622  0.32426211  1  -0.031746  0  -0.156571  -0.190868  0  3.880878  0
C  C102  1  0.92178105  0.45799064  0.32837662  1  -0.014523  0  -0.156634  -0.187843  0  3.878672  0
C  C103  1  0.14567080  0.52060829  0.39764094  1  0.204998  0  -0.058183  -0.133473  0  4.096376  0
C  C104  1  0.86957912  0.50659325  0.41556680  1  -0.091092  0  -0.052851  -0.124978  0  4.091413  0
C  C105  1  0.80629399  0.50215372  0.41313143  1  -0.276254  0  -0.071938  -0.119789  0  4.246842  0
C  C106  1  0.63971597  0.14405827  0.55344773  1  -0.013238  0  -0.157404  -0.1815  0  3.860941  0
C  C107  1  0.55664174  0.13928607  0.62369368  1  -0.008231  0  -0.154994  -0.186062  0  3.860649  0
C  C108  1  0.54600179  0.05470203  0.61328036  1  -0.002212  0  -0.157048  -0.187628  0  3.858848  0
C  C109  1  0.65635856  0.43433539  0.38394135  1  1.029265  0  0.184696  0.280369  0  4.094998  0
C  C110  1  0.60548113  0.90571191  0.59617820  1  0.104039  0  -0.074512  -0.118919  0  4.267801  0
C  C111  1  0.63847326  0.19359145  0.62721606  1  0.111047  0  -0.003845  0.122394  0  3.880754  0
C  C112  1  0.63767459  0.06460283  0.55068415  1  -0.001362  0  -0.157063  -0.188137  0  3.865651  0
C  C113  1  0.62368252  0.05251460  0.61691452  1  0.130982  0  -0.002381  0.194005  0  3.901528  0
C  C114  1  0.69644088  0.12543561  0.69332120  1  -0.042083  0  -0.159206  -0.264846  0  3.831766  0
C  C115  1  0.70581656  0.20897962  0.70022046  1  0.463524  0  0.008259  0.136859  0  3.78636  0
C  C116  1  0.61526922  0.97386391  0.60892578  1  -0.46697  0  -0.059214  -0.145904  0  4.093412  0
C  C117  1  0.63992172  0.26764145  0.62735258  1  0.131265  0  -0.059406  -0.132767  0  4.08775  0
C  C118  1  0.62342876  0.31548864  0.61110963  1  -0.486314  0  -0.066076  -0.122116  0  4.196108  0
C  C119  1  0.36665123  0.49253755  0.20267087  1  0.002204  0  -0.007099  0.003799  0  4.000828  0
C  C120  1  0.37195221  0.42991047  0.64491407  1  0.373285  0  0.006282  -0.049567  0  4.028513  0
C  C121  1  0.34563591  0.42698374  0.13327220  1  0.452611  0  0.080011  0.212058  0  4.026394  0
C  C122  1  0.33069885  0.43382587  0.06683096  1  -0.005789  0  -0.096445  -0.255826  0  3.956581  0
C  C123  1  0.33520750  0.50626962  0.06656255  1  0.352752  0  0.077716  0.178555  0  4.082043  0
C  C124  1  0.34963135  0.56926394  0.13313540  1  -0.061373  0  -0.090758  -0.152997  0  3.996721  0
C  C125  1  0.36410570  0.56167778  0.19943936  1  -0.022806  0  -0.096343  -0.124711  0  4.016944  0
C  C126  1  0.37649886  0.55454743  0.89641775  1  -0.054354  0  -0.086964  -0.13615  0  3.963805  0
C  C127  1  0.39427289  0.56167720  0.83812665  1  -0.050626  0  -0.095866  -0.131364  0  3.973548  0
C  C128  1  0.32619550  0.47652524  0.88666522  1  0.346653  0  0.078718  0.162667  0  4.07295  0
C  C129  1  0.36194619  0.49154540  0.76788522  1  -0.006371  0  -0.007739  0.109723  0  4.037795  0
C  C130  1  0.30902919  0.41427435  0.75788045  1  -0.03963  0  -0.099841  -0.139322  0  4.006279  0
C  C131  1  0.72747387  0.57010477  0.44603493  1  0.456988  0  0.013566  -0.040652  0  4.005573  0
C  C132  1  0.29232406  0.40672800  0.81636332  1  -0.034112  0  -0.087086  -0.140854  0  4.001304  0
C  C133  1  0.80203437  0.67467807  0.77711713  1  -0.012826  0  -0.000949  0.100101  0  4.026074  0
C  C134  1  0.79874666  0.69260458  0.84737614  1  0.02669  0  -0.091941  -0.125473  0  3.980371  0
C  C135  1  0.86816136  0.74366986  0.91659169  1  -0.071395  0  -0.08528  -0.133245  0  3.97388  0
C  C136  1  0.94446335  0.77868873  0.91807700  1  0.365216  0  0.078716  0.155262  0  4.061942  0
C  C137  1  0.94902899  0.75554050  0.84886144  1  0.01295  0  -0.083698  -0.1353  0  3.990659  0
C  C138  1  0.87907134  0.70457237  0.77960685  1  -0.055708  0  -0.096775  -0.138234  0  3.998298  0
C  C139  1  0.16140942  0.96155185  0.12375312  1  0.463616  0  0.089506  0.208658  0  4.012924  0
C  C140  1  0.22424573  0.03672806  0.18565778  1  0.014306  0  -0.103974  -0.252668  0  3.970389  0
C  C141  1  0.07979051  0.94012441  0.10638593  1  0.419962  0  0.079169  0.069881  0  4.041699  0
C  C142  1  0.60444874  0.38308076  0.52726975  1  0.457338  0  0.01474  -0.044586  0  3.929174  0
C  C143  1  0.20980378  0.09294144  0.23219146  1  0.018673  0  -0.007061  0.112716  0  4.058769  0
C  C144  1  0.12900712  0.06897722  0.21765284  1  0.002816  0  -0.104616  -0.154175  0  4.019752  0
C  C145  1  0.06603070  0.99371452  0.15692388  1  -0.063333  0  -0.086749  -0.12673  0  4.011019  0
C  C146  1  0.64875922  0.60916247  0.69631116  1  0.407367  0  0.014192  -0.038292  0  3.950674  0
C  C147  1  0.72832288  0.63448747  0.70589572  1  -0.028842  0  -0.034172  -0.043796  0  4.067099  0
C  C148  1  0.64651435  0.84580780  0.46536379  1  0.375292  0  -0.130493  -0.159992  0  3.89467  0
C  C149  1  0.15683709  0.52570551  0.58482392  1  0.375533  0  -0.144274  -0.16566  0  3.984171  0
C  C150  1  0.93265060  0.46218213  0.55224426  1  0.390001  0  -0.145961  -0.174772  0  3.990532  0
C  C151  1  0.40445002  0.67501888  0.71278271  1  0.348212  0  -0.132358  -0.16374  0  3.89635  0
C  C152  1  0.83403016  0.24900417  0.69073871  1  0.420293  0  -0.146026  -0.167812  0  4.001814  0
C  C153  1  0.67486196  0.31887384  0.34142614  1  0.356479  0  -0.130953  -0.159739  0  3.902664  0
C  C154  1  0.41228817  0.34976764  0.13310227  1  0.416892  0  -0.13793  -0.167558  0  3.943103  0
C  C155  1  0.20345930  0.92171502  0.02924671  1  0.409846  0  -0.142716  -0.163988  0  3.955951  0
N  N156  1  0.64393734  0.59781749  0.58606787  1  -0.803093  0  -0.278164  -0.180069  0  3.612266  0
N  N157  1  0.36202580  0.46464434  0.45889970  1  -0.789936  0  -0.279706  -0.177263  0  3.636617  0
N  N158  1  0.56423650  0.71146025  0.59539781  1  -0.800598  0  -0.276911  -0.174888  0  3.578652  0
N  N159  1  0.39696245  0.29258137  0.36167549  1  -0.777158  0  -0.266852  -0.171417  0  3.536629  0
N  N160  1  0.35229829  0.29571725  0.40090234  1  -0.814679  0  -0.271013  -0.177038  0  3.553996  0
N  N161  1  0.59381673  0.70661191  0.54261755  1  -0.787575  0  -0.279636  -0.285388  0  3.504676  0
N  N162  1  0.44982986  0.45777657  0.36359019  1  -0.816865  0  -0.285372  -0.190335  0  3.634593  0
N  N163  1  0.40772592  0.54800584  0.49355950  1  -0.794711  0  -0.285118  -0.18935  0  3.635017  0
N  N164  1  0.33406385  0.52267806  0.00507023  1  -0.497484  0  -0.162432  -0.152076  0  3.284221  0
N  N165  1  0.31274988  0.46052508  0.94432459  1  -0.519474  0  -0.163481  -0.152698  0  3.33168  0
N  N166  1  0.01750209  0.84138286  0.98352047  1  -0.464724  0  -0.150099  -0.128889  0  3.291728  0
N  N167  1  0.50781066  0.40347406  0.54238330  1  -0.768932  0  -0.28134  -0.182377  0  3.656325  0
N  N168  1  0.00920794  0.87186842  0.04262723  1  -0.54048  0  -0.162489  -0.142125  0  3.319114  0
N  N169  1  0.43864672  0.54054568  0.63692131  1  -0.803253  0  -0.275705  -0.27331  0  3.520491  0
N  N170  1  0.60734898  0.46219058  0.39762891  1  -0.812556  0  -0.283418  -0.283921  0  3.513988  0
N  N171  1  0.40340428  0.45640357  0.60272110  1  -0.786248  0  -0.269808  -0.164836  0  3.566944  0
N  N172  1  0.65173959  0.54706653  0.43624992  1  -0.794289  0  -0.27086  -0.176945  0  3.555323  0
N  N173  1  0.55239409  0.40834896  0.50363059  1  -0.80858  0  -0.281651  -0.182782  0  3.628132  0
N  N174  1  0.59952033  0.58818008  0.62482091  1  -0.775008  0  -0.285523  -0.184936  0  3.63834  0
N  N175  1  0.49362783  0.54117169  0.39550742  1  -0.783961  0  -0.282558  -0.177728  0  3.636445  0
O  O176  1  0.64032059  0.78038232  0.48399321  1  -1.083113  0  -0.190853  -0.186552  0  2.563079  0
O  O177  1  0.13050247  0.55530062  0.53413487  1  -1.042841  0  -0.226919  -0.190167  0  2.525795  0
O  O178  1  0.99155563  0.51259922  0.53711423  1  -1.047907  0  -0.227345  -0.194848  0  2.531143  0
O  O179  1  0.45672099  0.64623923  0.74327046  1  -1.097672  0  -0.206947  -0.215024  0  2.52555  0
O  O180  1  0.78581281  0.27078703  0.72181559  1  -1.044088  0  -0.24348  -0.220954  0  2.473802  0
O  O181  1  0.62183510  0.35149170  0.34532774  1  -1.089294  0  -0.193289  -0.191108  0  2.57504  0
O  O182  1  0.34260094  0.35567221  0.13262415  1  -1.075062  0  -0.214784  -0.203719  0  2.525674  0
O  O183  1  0.18016902  0.90684781  0.08483323  1  -1.075058  0  -0.214982  -0.199155  0  2.548586  0
