# generated using pymatgen
data_Co2H18C24N2O13
_symmetry_space_group_name_H-M   'P 1'
_cell_length_a   10.13608110
_cell_length_b   17.90547729
_cell_length_c   18.08035941
_cell_angle_alpha   90.00820793
_cell_angle_beta   93.81739191
_cell_angle_gamma   89.99783154
_symmetry_Int_Tables_number   1
_chemical_formula_structural   Co2H18C24N2O13
_chemical_formula_sum   'Co4 H36 C48 N4 O26'
_cell_volume   3274.14867268
_cell_formula_units_Z   2
loop_
 _symmetry_equiv_pos_site_id
 _symmetry_equiv_pos_as_xyz
  1  'x, y, z'
loop_
 _atom_site_type_symbol
 _atom_site_label
 _atom_site_symmetry_multiplicity
 _atom_site_fract_x
 _atom_site_fract_y
 _atom_site_fract_z
 _atom_site_occupancy
 _atom_site_pbe_bader_charge
 _atom_site_pbe_bader_spin_density
 _atom_site_pbe_cm5_charge
 _atom_site_pbe_ddec_charge
 _atom_site_pbe_ddec_spin_density
 _atom_site_pbe_ddec_sum_bond_order
 _atom_site_pbe_magmom
Co  Co0  1  0.50295250  0.69531530  0.63717927  1  1.330136  2.673603  0.666154  1.01056  2.896264  2.372105  2.647
Co  Co1  1  0.28375650  0.73964567  0.50211890  1  1.268552  2.54471  0.605349  0.987434  2.737289  2.345115  2.525
Co  Co2  1  0.49709309  0.19529367  0.36295076  1  1.331012  2.673616  0.666402  1.010815  2.896749  2.37381  2.647
Co  Co3  1  0.71618484  0.23967078  0.49779572  1  1.267175  2.544501  0.605377  0.987486  2.736981  2.345112  2.525
H  H4  1  0.67406543  0.00952251  0.77235879  1  0.465384  0.0  0.330591  0.282784  -1.1e-05  0.921094  0.0
H  H5  1  0.83939278  0.14143163  0.08680014  1  0.421996  4e-06  0.319534  0.266888  -4e-06  0.950042  0.0
H  H6  1  0.00183064  0.15958770  0.78692357  1  0.09714  1.9e-05  0.110964  0.112613  6e-06  0.988326  0.0
H  H7  1  0.11140252  0.16765654  0.91566006  1  0.124586  3e-06  0.113999  0.117985  1e-06  0.98845  0.0
H  H8  1  0.76307645  0.07316623  0.00277056  1  0.056993  -2e-06  0.110885  0.106968  0.0  0.992706  0.0
H  H9  1  0.65751553  0.06320386  0.87757783  1  0.079308  -1e-06  0.108578  0.103208  -1e-06  0.997311  0.0
H  H10  1  0.58850038  0.91233396  0.69808780  1  0.100687  0.000213  0.114702  0.130259  -2.5e-05  0.990036  0.0
H  H11  1  0.43996713  0.96235547  0.47548850  1  0.110428  0.0008  0.111174  0.123273  0.000399  0.998756  0.0
H  H12  1  0.61915237  0.13647528  0.61039473  1  0.106225  -0.00023  0.105535  0.102281  -0.000606  1.079938  0.0
H  H13  1  0.18725755  0.15456407  0.16874883  1  0.163884  0.000603  0.110317  0.138062  0.000336  1.026135  0.0
H  H14  1  0.04841700  0.20782625  0.38219903  1  0.120053  0.000969  0.106046  0.120165  0.000559  1.009162  0.0
H  H15  1  0.76683657  0.16019971  0.20003043  1  0.08922  0.000168  0.109536  0.123849  -5.2e-05  0.99586  0.0
H  H16  1  0.11710410  0.85463361  0.50339264  1  0.616016  0.000213  0.335446  0.41537  -8.2e-05  0.85692  0.0
H  H17  1  0.15682644  0.83612467  0.42377103  1  0.615832  -0.000268  0.316076  0.405682  -0.000378  0.893142  0.0
H  H18  1  0.06639395  0.66721100  0.46421171  1  0.6258  0.000141  0.334296  0.419973  -0.000117  0.851108  0.0
H  H19  1  0.15667432  0.64468206  0.39969965  1  0.656365  0.001079  0.298012  0.387979  0.000755  0.941584  0.001
H  H20  1  0.27918889  0.73432445  0.34080289  1  0.653004  0.000547  0.301277  0.392879  0.000255  0.935147  0.0
H  H21  1  0.39372787  0.79000436  0.36961075  1  0.634595  0.000818  0.339887  0.421999  0.000284  0.849435  0.0
H  H22  1  0.32590191  0.50945938  0.22762615  1  0.464218  0.0  0.33045  0.282364  -1.1e-05  0.921268  0.0
H  H23  1  0.16063071  0.64143990  0.91317092  1  0.421873  4e-06  0.31956  0.266854  -4e-06  0.94992  0.0
H  H24  1  0.99822797  0.65961741  0.21309576  1  0.096908  1.9e-05  0.110938  0.112718  6e-06  0.988165  0.0
H  H25  1  0.88865475  0.66773971  0.08435648  1  0.124686  3e-06  0.113985  0.118204  1e-06  0.988282  0.0
H  H26  1  0.23691460  0.57315659  0.99720942  1  0.056737  -2e-06  0.110949  0.107015  0.0  0.992699  0.0
H  H27  1  0.34246715  0.56312172  0.12239763  1  0.079004  -1e-06  0.108679  0.103304  -1e-06  0.997314  0.0
H  H28  1  0.41151415  0.41226511  0.30187583  1  0.100413  0.000214  0.114852  0.130356  -2.4e-05  0.989998  0.0
H  H29  1  0.56000123  0.46234258  0.52449301  1  0.111072  0.000799  0.111229  0.123341  0.000399  0.998652  0.0
H  H30  1  0.38075492  0.63642502  0.38963166  1  0.10694  -0.000236  0.105521  0.102089  -0.000613  1.079887  0.0
H  H31  1  0.81270628  0.65459998  0.83127528  1  0.16381  0.000604  0.110302  0.138316  0.000337  1.025999  0.0
H  H32  1  0.95151077  0.70786275  0.61781397  1  0.120336  0.000968  0.106135  0.120306  0.000558  1.009096  0.0
H  H33  1  0.23311931  0.66021621  0.79997478  1  0.088721  0.000167  0.109324  0.123477  -5.4e-05  0.996009  0.0
H  H34  1  0.88314392  0.35449744  0.49663109  1  0.620333  0.000212  0.33559  0.41534  -7.9e-05  0.857824  0.0
H  H35  1  0.84323258  0.33610091  0.57624948  1  0.61682  -0.000265  0.316288  0.406027  -0.000374  0.892667  0.0
H  H36  1  0.93348462  0.16713305  0.53577802  1  0.626207  0.000139  0.334009  0.419774  -0.000117  0.852393  0.0
H  H37  1  0.84323902  0.14463331  0.60028668  1  0.656269  0.001087  0.298014  0.388126  0.000759  0.941326  0.001
H  H38  1  0.72074704  0.23434052  0.65916883  1  0.653332  0.000545  0.301247  0.39271  0.000253  0.935414  0.0
H  H39  1  0.60623444  0.29004496  0.63040866  1  0.63373  0.000815  0.339878  0.422073  0.000281  0.849918  0.0
C  C40  1  0.82418307  0.10970680  0.82341263  1  -0.049228  -1.7e-05  -0.017388  -0.044965  -3.4e-05  4.025253  0.0
C  C41  1  0.95129642  0.14052252  0.83478555  1  -0.060265  0.000112  -0.074907  -0.0811  5.4e-05  3.962358  0.0
C  C42  1  0.01147827  0.14570272  0.90581064  1  0.014804  9e-06  -0.073035  -0.085009  1e-06  3.952205  0.0
C  C43  1  0.94458493  0.12286614  0.96741656  1  0.014509  0.000128  -0.004082  -0.012229  6.6e-05  3.969743  0.0
C  C44  1  0.81705186  0.09271950  0.95621938  1  -0.093352  -0.0  -0.085053  -0.1119  -3e-06  3.9945  0.0
C  C45  1  0.75770003  0.08561265  0.88477762  1  -0.043922  0.000114  -0.087364  -0.111778  5.6e-05  4.005592  0.0
C  C46  1  0.76578379  0.10490605  0.74583279  1  1.362719  0.000641  0.250648  0.48649  0.00042  4.100605  0.001
C  C47  1  0.01773475  0.13241710  0.04202969  1  1.369332  0.000196  0.23579  0.463168  0.000111  4.14669  0.0
C  C48  1  0.61358316  0.02756498  0.66266947  1  0.287768  0.001372  0.088221  0.22698  0.000548  4.053183  0.001
C  C49  1  0.57100637  0.95352728  0.65399126  1  -0.033381  -0.004896  -0.079752  -0.184592  -0.005553  3.913705  -0.003
C  C50  1  0.50545857  0.93046595  0.58733950  1  0.041879  0.010298  -0.011697  -0.009399  0.005229  3.979953  0.009
C  C51  1  0.48728571  0.98049682  0.52823704  1  -0.001591  -0.00133  -0.070212  -0.105024  -0.001939  3.907728  -0.001
C  C52  1  0.53152174  0.05409720  0.53689635  1  0.006413  0.003766  -0.011161  -0.004536  0.001798  3.980247  0.003
C  C53  1  0.59059828  0.07843483  0.60467308  1  0.001936  -0.005567  -0.086168  -0.174556  -0.006274  3.918081  -0.003
C  C54  1  0.45875509  0.85119406  0.57966594  1  1.582403  -0.006968  0.219766  0.601737  -0.008469  4.166748  -0.005
C  C55  1  0.51995183  0.10655542  0.47323158  1  1.529867  0.002321  0.215215  0.588446  -0.000463  4.139594  0.001
C  C56  1  0.97398102  0.15616728  0.17502311  1  0.302355  0.001707  0.09134  0.238119  0.000705  4.048563  0.002
C  C57  1  0.10552850  0.16297442  0.20373074  1  0.016079  -0.004601  -0.082381  -0.181694  -0.00521  3.878897  -0.003
C  C58  1  0.13032345  0.18135610  0.27864592  1  -0.028359  0.00418  -0.014515  -0.004987  0.002163  3.998471  0.003
C  C59  1  0.02649322  0.19294638  0.32435632  1  -0.04027  -0.002355  -0.081182  -0.119128  -0.002968  3.934154  -0.001
C  C60  1  0.89575998  0.18501222  0.29580061  1  0.085214  0.011496  -0.02015  -0.018125  0.005896  4.011624  0.009
C  C61  1  0.86967183  0.16631504  0.22129327  1  -0.108913  -0.005118  -0.088681  -0.200549  -0.005813  3.937523  -0.003
C  C62  1  0.26874248  0.18890050  0.31149257  1  1.53533  -0.006948  0.190343  0.548816  -0.009145  4.201282  -0.008
C  C63  1  0.78444877  0.19644366  0.34486906  1  1.561099  -0.009446  0.219472  0.600364  -0.011521  4.165675  -0.007
C  C64  1  0.17582785  0.60967746  0.17657832  1  -0.050095  -1.7e-05  -0.01746  -0.045497  -3.4e-05  4.025465  0.0
C  C65  1  0.04874155  0.64054510  0.16521750  1  -0.059573  0.000111  -0.074944  -0.080984  5.4e-05  3.961936  0.0
C  C66  1  0.98857032  0.64575781  0.09419359  1  0.015626  9e-06  -0.07313  -0.085551  1e-06  3.951672  0.0
C  C67  1  0.05545011  0.62290781  0.03257282  1  0.013126  0.000128  -0.004032  -0.011915  6.6e-05  3.968694  0.0
C  C68  1  0.18294998  0.59271202  0.04377155  1  -0.091257  -1e-06  -0.085167  -0.11207  -4e-06  3.994208  0.0
C  C69  1  0.24230121  0.58556625  0.11521007  1  -0.044754  0.000114  -0.087371  -0.111579  5.6e-05  4.005267  0.0
C  C70  1  0.23419674  0.60485546  0.25415511  1  1.363094  0.00064  0.250838  0.486873  0.000419  4.100358  0.001
C  C71  1  0.98228294  0.63247391  0.95796475  1  1.369513  0.000196  0.235787  0.46292  0.000111  4.147548  0.0
C  C72  1  0.38637537  0.52750588  0.33731821  1  0.287842  0.001375  0.088486  0.227137  0.00055  4.052771  0.001
C  C73  1  0.42898440  0.45347395  0.34597278  1  -0.034827  -0.004906  -0.079954  -0.184838  -0.005563  3.913667  -0.003
C  C74  1  0.49452437  0.43044380  0.41262760  1  0.040838  0.010293  -0.012023  -0.009637  0.005224  3.980026  0.009
C  C75  1  0.51266990  0.48047840  0.47174485  1  -0.001305  -0.001337  -0.070151  -0.1048  -0.001946  3.907468  -0.001
C  C76  1  0.46838580  0.55406690  0.46311067  1  0.007064  0.00379  -0.011067  -0.004516  0.001813  3.979779  0.003
C  C77  1  0.40931904  0.57838422  0.39532838  1  0.002114  -0.005595  -0.086342  -0.174459  -0.006305  3.917151  -0.003
C  C78  1  0.54127614  0.35118374  0.42030411  1  1.584055  -0.007046  0.219638  0.6012  -0.008553  4.166949  -0.005
C  C79  1  0.47997690  0.60655702  0.52677765  1  1.529764  0.002336  0.215073  0.58818  -0.000437  4.139474  0.001
C  C80  1  0.02602061  0.65619635  0.82497789  1  0.303685  0.001704  0.091437  0.238012  0.000704  4.049451  0.002
C  C81  1  0.89446956  0.66298728  0.79629265  1  0.015718  -0.004585  -0.082436  -0.182174  -0.00519  3.879074  -0.003
C  C82  1  0.86976175  0.68137257  0.72137814  1  -0.028971  0.004172  -0.014438  -0.004468  0.002158  3.998632  0.003
C  C83  1  0.97354817  0.69298077  0.67564600  1  -0.039367  -0.002344  -0.081417  -0.119706  -0.002956  3.934668  -0.001
C  C84  1  0.10428693  0.68506113  0.70418699  1  0.083668  0.01149  -0.020025  -0.017908  0.005891  4.011738  0.009
C  C85  1  0.13030774  0.66634350  0.77869277  1  -0.109032  -0.005104  -0.088523  -0.200123  -0.005798  3.937128  -0.003
C  C86  1  0.73136396  0.68892467  0.68854394  1  1.536256  -0.006953  0.190059  0.547983  -0.009142  4.202107  -0.008
C  C87  1  0.21558668  0.69648471  0.65512133  1  1.561693  -0.00939  0.219178  0.600576  -0.011441  4.16588  -0.007
N  N88  1  0.67976981  0.04774686  0.73113171  1  -1.270645  0.000409  -0.384466  -0.35566  0.000184  3.575871  0.0
N  N89  1  0.93824853  0.14020341  0.10004463  1  -1.222527  0.000166  -0.395937  -0.370267  2.9e-05  3.591478  0.0
N  N90  1  0.32019365  0.54768873  0.26885847  1  -1.269972  0.000409  -0.384477  -0.355312  0.000183  3.575812  0.0
N  N91  1  0.06177278  0.64023647  0.89994719  1  -1.22304  0.000166  -0.395963  -0.369995  2.9e-05  3.591712  0.0
O  O92  1  0.79811754  0.15098643  0.69779515  1  -1.18719  0.000425  -0.292985  -0.51984  -7.5e-05  2.218966  0.0
O  O93  1  0.13984674  0.13458872  0.04790804  1  -1.077276  0.000284  -0.295283  -0.466103  0.000116  2.066969  0.0
O  O94  1  0.49894615  0.80680313  0.63104598  1  -1.157617  0.069073  -0.305177  -0.553136  0.035972  2.377901  0.056
O  O95  1  0.38245663  0.83555027  0.52259064  1  -1.166361  0.066869  -0.326363  -0.600001  0.034375  2.381423  0.059
O  O96  1  0.47490991  0.08561470  0.41004032  1  -1.112123  0.086455  -0.287238  -0.496943  0.044194  2.162162  0.072
O  O97  1  0.55582008  0.17586191  0.48308856  1  -1.165717  0.114403  -0.325775  -0.630307  0.059801  2.508278  0.098
O  O98  1  0.36742857  0.17972445  0.27121813  1  -1.122831  0.106089  -0.3241  -0.541958  0.054161  2.138669  0.091
O  O99  1  0.28910885  0.20400121  0.38016649  1  -1.130223  0.084595  -0.321445  -0.542255  0.042461  2.16032  0.075
O  O100  1  0.81488508  0.22359332  0.40906980  1  -1.157897  0.081072  -0.320905  -0.581208  0.041569  2.416628  0.072
O  O101  1  0.66851199  0.17896793  0.31909579  1  -1.148358  0.071508  -0.311792  -0.561381  0.037288  2.361894  0.061
O  O102  1  0.11173607  0.81583776  0.46554464  1  -1.179557  0.040693  -0.561668  -0.738994  0.021164  2.012015  0.031
O  O103  1  0.15526433  0.65161182  0.45374894  1  -1.235264  0.036383  -0.563089  -0.752762  0.018716  2.085469  0.028
O  O104  1  0.30526096  0.77268443  0.37828199  1  -1.254463  0.029301  -0.555248  -0.764052  0.015483  2.054772  0.021
O  O105  1  0.20185773  0.65094855  0.30219850  1  -1.186741  0.000424  -0.293038  -0.519973  -7.5e-05  2.218774  0.0
O  O106  1  0.86018240  0.63467748  0.95211152  1  -1.077369  0.000283  -0.295087  -0.465927  0.000116  2.068307  0.0
O  O107  1  0.50114722  0.30674488  0.36895023  1  -1.158636  0.069172  -0.305083  -0.552703  0.035997  2.378377  0.056
O  O108  1  0.61760798  0.33558737  0.47738080  1  -1.166663  0.066992  -0.326302  -0.599843  0.034447  2.38167  0.06
O  O109  1  0.52509715  0.58562955  0.58995647  1  -1.112125  0.08639  -0.287266  -0.497027  0.044156  2.161854  0.072
O  O110  1  0.44405729  0.67584219  0.51688575  1  -1.165853  0.11435  -0.325547  -0.629968  0.059761  2.507662  0.098
O  O111  1  0.63273313  0.67976890  0.72886416  1  -1.123033  0.106141  -0.32396  -0.541558  0.054208  2.138717  0.091
O  O112  1  0.71095721  0.70401528  0.61987712  1  -1.130464  0.084438  -0.321291  -0.541894  0.042367  2.160486  0.075
O  O113  1  0.18518472  0.72360280  0.59091700  1  -1.158148  0.080999  -0.32061  -0.581251  0.041518  2.416534  0.072
O  O114  1  0.33150400  0.67900521  0.68093392  1  -1.14856  0.071468  -0.311797  -0.561481  0.037272  2.361794  0.061
O  O115  1  0.88819239  0.31570642  0.53447203  1  -1.184691  0.040731  -0.561828  -0.739237  0.021189  2.013799  0.031
O  O116  1  0.84458535  0.15158702  0.54623850  1  -1.235684  0.036314  -0.562981  -0.75286  0.018685  2.086285  0.028
O  O117  1  0.69470726  0.27273303  0.62172747  1  -1.254072  0.029241  -0.55547  -0.764213  0.015458  2.05485  0.021
