# generated using pymatgen
data_NiH16C18(N6O)2
_symmetry_space_group_name_H-M   'P 1'
_cell_length_a   8.61155355
_cell_length_b   8.82128017
_cell_length_c   13.71155439
_cell_angle_alpha   89.99766664
_cell_angle_beta   90.00912787
_cell_angle_gamma   91.30882608
_symmetry_Int_Tables_number   1
_chemical_formula_structural   NiH16C18(N6O)2
_chemical_formula_sum   'Ni2 H32 C36 N24 O4'
_cell_volume   1041.32545879
_cell_formula_units_Z   2
loop_
 _symmetry_equiv_pos_site_id
 _symmetry_equiv_pos_as_xyz
  1  'x, y, z'
loop_
 _atom_site_type_symbol
 _atom_site_label
 _atom_site_symmetry_multiplicity
 _atom_site_fract_x
 _atom_site_fract_y
 _atom_site_fract_z
 _atom_site_occupancy
 _atom_site_hle17_ddec_charge
 _atom_site_hle17_ddec_spin_density
 _atom_site_hle17_ddec_sum_bond_order
 _atom_site_hle17_magmom
 _atom_site_hse06_10hf_ddec_charge
 _atom_site_hse06_10hf_ddec_spin_density
 _atom_site_hse06_10hf_ddec_sum_bond_order
 _atom_site_hse06_10hf_magmom
 _atom_site_hse06_ddec_charge
 _atom_site_hse06_ddec_spin_density
 _atom_site_hse06_ddec_sum_bond_order
 _atom_site_hse06_magmom
 _atom_site_pbe_cm5_charge
 _atom_site_pbe_ddec_charge
 _atom_site_pbe_ddec_spin_density
 _atom_site_pbe_ddec_sum_bond_order
 _atom_site_pbe_magmom
Ni  Ni0  1  0.99999925  0.00000909  0.00000219  1  0.770387  1.876759  2.338003  1.52  0.752026  1.871521  2.749068  1.607  0.826705  1.932817  2.685662  1.69  0.710751  0.700808  1.816976  2.792352  1.536
Ni  Ni1  1  0.50000132  0.00000182  0.50000109  1  0.770252  -1.876741  2.338026  -1.52  0.75193  -1.871499  2.749037  -1.607  0.826602  -1.932798  2.685631  -1.69  0.710759  0.700825  -1.816957  2.79213  -1.536
H  H2  1  0.06510764  0.31195779  0.86396543  1  0.091553  0.000102  0.956891  0.001  0.096488  3.9e-05  1.027651  0.0  0.0994  2.6e-05  1.023434  0.0  0.130163  0.094447  6.5e-05  1.030585  0.0
H  H3  1  0.43488046  0.68802685  0.36396453  1  0.091683  -0.000103  0.956701  -0.001  0.096585  -3.9e-05  1.027505  0.0  0.099499  -2.6e-05  1.023289  0.0  0.130203  0.094539  -6.5e-05  1.030438  0.0
H  H4  1  0.93489030  0.68804993  0.13603575  1  0.091507  0.000102  0.956906  0.001  0.096455  3.9e-05  1.02766  0.0  0.099367  2.6e-05  1.023443  0.0  0.130162  0.094414  6.5e-05  1.030589  0.0
H  H5  1  0.56511429  0.31196164  0.63604758  1  0.091595  -0.000103  0.95678  -0.001  0.09651  -3.9e-05  1.027549  0.0  0.099418  -2.6e-05  1.023342  0.0  0.130216  0.094465  -6.5e-05  1.030481  0.0
H  H6  1  0.58085410  0.30593124  0.80919577  1  0.09918  0.000399  0.981826  0.0  0.109486  0.000379  1.042401  0.0  0.11139  0.000273  1.042378  0.0  0.11739  0.108056  0.000477  1.042621  0.001
H  H7  1  0.91909670  0.69411010  0.30922321  1  0.098973  -0.000399  0.982196  0.0  0.109284  -0.000379  1.042772  0.0  0.11119  -0.000273  1.042752  0.0  0.117337  0.107866  -0.000477  1.042962  -0.001
H  H8  1  0.41914642  0.69408209  0.19080103  1  0.098936  0.000399  0.981983  0.0  0.109244  0.000379  1.042602  0.0  0.111148  0.000273  1.042582  0.0  0.117285  0.107819  0.000477  1.042811  0.001
H  H9  1  0.08089608  0.30588638  0.69077797  1  0.098993  -0.000398  0.982137  0.0  0.109279  -0.000379  1.042732  0.0  0.111186  -0.000273  1.042715  0.0  0.117321  0.107858  -0.000477  1.042936  -0.001
H  H10  1  0.65116766  0.07406632  0.93738546  1  0.102883  0.000168  0.960275  0.0  0.110207  0.000249  1.022069  0.0  0.111974  0.000177  1.022405  0.0  0.115693  0.109089  0.000321  1.021713  0.001
H  H11  1  0.84883547  0.92597077  0.43739030  1  0.102671  -0.000168  0.960274  0.0  0.109994  -0.000249  1.022095  0.0  0.111751  -0.000178  1.022431  0.0  0.115621  0.108872  -0.000322  1.021747  -0.001
H  H12  1  0.34882283  0.92595630  0.06261791  1  0.102729  0.000168  0.960304  0.0  0.110054  0.000249  1.022121  0.0  0.111815  0.000177  1.022456  0.0  0.115663  0.108936  0.000322  1.021769  0.001
H  H13  1  0.15115863  0.07402908  0.56261087  1  0.102664  -0.000168  0.960312  0.0  0.109988  -0.000249  1.022124  0.0  0.111754  -0.000178  1.022459  0.0  0.115628  0.108871  -0.000322  1.021765  -0.001
H  H14  1  0.13318526  0.72195027  0.87880588  1  0.095794  0.000135  0.932921  0.0  0.102948  0.000125  0.995797  0.0  0.105212  8.9e-05  0.992907  0.0  0.13407  0.101262  0.000175  0.998285  0.0
H  H15  1  0.36682448  0.27805738  0.37882020  1  0.095834  -0.000136  0.93293  0.0  0.102956  -0.000126  0.995856  0.0  0.105224  -9e-05  0.992962  0.0  0.134103  0.101266  -0.000176  0.998348  0.0
H  H16  1  0.86679365  0.27804763  0.12120040  1  0.095614  0.000135  0.933094  0.0  0.102778  0.000125  0.995973  0.0  0.105042  8.9e-05  0.993086  0.0  0.134033  0.101088  0.000175  0.998465  0.0
H  H17  1  0.63316377  0.72194146  0.62118462  1  0.095879  -0.000136  0.932905  0.0  0.102989  -0.000126  0.995833  0.0  0.105256  -8.9e-05  0.992937  0.0  0.134102  0.101298  -0.000176  0.998327  0.0
H  H18  1  0.49799060  0.99922536  0.76550821  1  0.112508  0.000551  0.970794  0.001  0.119306  0.000472  1.035389  0.001  0.121256  0.000361  1.035791  0.0  0.120566  0.118044  0.000586  1.03487  0.001
H  H19  1  0.00198883  0.00076642  0.26549951  1  0.112715  -0.00055  0.970843  -0.001  0.119432  -0.000472  1.035527  -0.001  0.121383  -0.000361  1.035935  0.0  0.120641  0.118179  -0.000586  1.034978  -0.001
H  H20  1  0.50199899  0.00075189  0.23449370  1  0.112581  0.000551  0.970951  0.001  0.119385  0.000473  1.035484  0.001  0.12135  0.000361  1.035858  0.0  0.120622  0.118113  0.000586  1.034982  0.001
H  H21  1  0.99800275  0.99922895  0.73450458  1  0.112643  -0.000551  0.970907  -0.001  0.119362  -0.000472  1.035604  -0.001  0.12131  -0.000361  1.036014  0.0  0.1206  0.118111  -0.000586  1.035056  -0.001
H  H22  1  0.29592665  0.17673481  0.87290527  1  0.100692  5.1e-05  0.981714  0.0  0.106852  0.000174  1.047357  0.0  0.10835  0.000109  1.047631  0.0  0.11028  0.104655  0.000236  1.049129  0.001
H  H23  1  0.20411688  0.82326206  0.37292274  1  0.100645  -5.2e-05  0.981485  0.0  0.106717  -0.000175  1.047264  0.0  0.108219  -0.00011  1.047535  0.0  0.110186  0.104524  -0.000237  1.049039  -0.001
H  H24  1  0.70407173  0.82325700  0.12709372  1  0.100601  5.1e-05  0.981777  0.0  0.106821  0.000174  1.047352  0.0  0.108322  0.000109  1.047619  0.0  0.110236  0.104601  0.000236  1.049155  0.001
H  H25  1  0.79587938  0.17673435  0.62708063  1  0.100711  -5.2e-05  0.981386  0.0  0.106782  -0.000175  1.047163  0.0  0.108283  -0.00011  1.047433  0.0  0.110219  0.104606  -0.000237  1.048917  -0.001
H  H26  1  0.84207087  0.42153406  0.76039920  1  0.301959  0.000477  0.918843  0.001  0.28474  0.000398  0.979418  0.001  0.293503  0.000301  0.971491  0.001  0.310932  0.278538  0.000488  0.985239  0.001
H  H27  1  0.65788742  0.57847429  0.26042836  1  0.301715  -0.000477  0.919122  -0.001  0.284384  -0.000398  0.979807  -0.001  0.293146  -0.000301  0.971902  -0.001  0.310773  0.278185  -0.000488  0.985605  -0.001
H  H28  1  0.15793266  0.57846900  0.23959541  1  0.30195  0.000477  0.918865  0.001  0.284641  0.000398  0.979531  0.001  0.29341  0.000301  0.971606  0.001  0.310812  0.278435  0.000488  0.985365  0.001
H  H29  1  0.34210638  0.42151876  0.73958084  1  0.301678  -0.000477  0.919176  -0.001  0.284397  -0.000398  0.97982  -0.001  0.293156  -0.000301  0.971908  -0.001  0.310737  0.278197  -0.000488  0.985636  -0.001
H  H30  1  0.38648766  0.73072530  0.78332187  1  0.30216  0.000482  0.867077  0.001  0.285243  0.00044  0.925924  0.001  0.292177  0.000319  0.920545  0.0  0.330535  0.279577  0.000547  0.931302  0.001
H  H31  1  0.11347287  0.26927325  0.28331274  1  0.302171  -0.000482  0.867066  -0.001  0.285309  -0.00044  0.925861  -0.001  0.292254  -0.000319  0.920471  0.0  0.330507  0.279635  -0.000547  0.931254  -0.001
H  H32  1  0.61348705  0.26925681  0.21668441  1  0.302178  0.000482  0.867117  0.001  0.285395  0.00044  0.925854  0.001  0.292316  0.000319  0.92047  0.0  0.3306  0.279713  0.000547  0.93124  0.001
H  H33  1  0.88651527  0.73072332  0.71669282  1  0.30217  -0.000482  0.867009  -0.001  0.28532  -0.00044  0.925796  -0.001  0.292255  -0.000319  0.920408  0.0  0.330515  0.279645  -0.000547  0.931185  -0.001
C  C34  1  0.75714804  0.75136905  0.92511916  1  0.463035  -0.007424  3.941178  -0.005  0.44178  0.000436  4.228361  0.004  0.469905  -0.000714  4.236703  0.002  0.292522  0.422519  0.001165  4.222274  0.005
C  C35  1  0.74285649  0.24862405  0.42514443  1  0.46278  0.007429  3.941446  0.005  0.441512  -0.000431  4.228655  -0.004  0.469632  0.000722  4.236998  -0.002  0.29242  0.422258  -0.001157  4.222567  -0.005
C  C36  1  0.24287488  0.24865175  0.07486670  1  0.463213  -0.00742  3.941009  -0.005  0.441931  0.000437  4.228186  0.004  0.47006  -0.000715  4.236529  0.002  0.292633  0.422668  0.001165  4.222102  0.005
C  C37  1  0.25716299  0.75137186  0.57485310  1  0.462685  0.007427  3.941155  0.005  0.441457  -0.000431  4.228365  -0.004  0.469578  0.00072  4.2367  -0.002  0.292473  0.422197  -0.001159  4.222292  -0.005
C  C38  1  0.56333583  0.57556878  0.95696029  1  0.072199  -0.003338  3.798642  -0.004  0.058314  -0.000676  4.071828  -0.001  0.067458  -0.000673  4.087737  -0.001  0.110336  0.052207  -0.000934  4.060874  -0.001
C  C39  1  0.93668945  0.42442084  0.45696420  1  0.072089  0.003335  3.798967  0.004  0.05825  0.000679  4.072105  0.001  0.067393  0.000672  4.088015  0.001  0.110372  0.052139  0.000934  4.061156  0.001
C  C40  1  0.43669380  0.42444622  0.04302338  1  0.072197  -0.003339  3.798734  -0.004  0.058382  -0.000676  4.071789  -0.001  0.067528  -0.000673  4.087701  -0.001  0.110382  0.052273  -0.000934  4.060837  -0.001
C  C41  1  0.06333769  0.57556470  0.54302895  1  0.072009  0.003335  3.798913  0.004  0.058223  0.000678  4.07204  0.001  0.067367  0.000672  4.087949  0.001  0.110245  0.052118  0.000934  4.061084  0.001
C  C42  1  0.42243918  0.48182557  0.94218600  1  0.246573  0.000831  3.912835  0.001  0.226925  6.9e-05  4.196244  0.0  0.240522  3.9e-05  4.207462  0.0  0.105857  0.217691  0.000196  4.189149  0.0
C  C43  1  0.07757691  0.51817017  0.44220543  1  0.246709  -0.000831  3.913102  -0.001  0.22701  -7.1e-05  4.196579  0.0  0.240606  -3.8e-05  4.207799  0.0  0.10584  0.217784  -0.000196  4.189473  0.0
C  C44  1  0.57759066  0.51819396  0.05779913  1  0.246912  0.000831  3.912448  0.001  0.227176  6.9e-05  4.195966  0.0  0.240776  3.9e-05  4.207183  0.0  0.105888  0.21794  0.000196  4.188865  0.0
C  C45  1  0.92244795  0.48181656  0.55778699  1  0.246878  -0.00083  3.912929  -0.001  0.227188  -7.1e-05  4.196387  0.0  0.240785  -3.8e-05  4.207605  0.0  0.105992  0.21796  -0.000196  4.189284  0.0
C  C46  1  0.94396619  0.27522286  0.86573275  1  0.197444  -0.006651  3.656644  -0.007  0.146408  -0.001505  3.930136  -0.002  0.161066  -0.002065  3.942616  -0.003  0.136771  0.13676  -0.001202  3.920789  -0.001
C  C47  1  0.55601569  0.72478126  0.36573541  1  0.197299  0.006648  3.656429  0.007  0.14625  0.001504  3.929937  0.002  0.160907  0.002064  3.942425  0.003  0.136794  0.13661  0.001201  3.920588  0.001
C  C48  1  0.05602968  0.72479057  0.13426843  1  0.197623  -0.006651  3.656426  -0.007  0.146542  -0.001506  3.929901  -0.002  0.161207  -0.002065  3.942389  -0.003  0.136847  0.136897  -0.001202  3.92055  -0.001
C  C49  1  0.44398038  0.27521061  0.63427160  1  0.197436  0.006648  3.656366  0.007  0.146409  0.001505  3.929904  0.002  0.161059  0.002064  3.942388  0.003  0.136764  0.136771  0.001201  3.92055  0.001
C  C50  1  0.69053428  0.27164233  0.83928081  1  -0.022915  0.004234  3.727464  0.005  -0.059699  0.001702  3.99404  0.002  -0.059934  0.001568  4.016279  0.002  -0.006274  -0.059423  0.001961  3.979038  0.002
C  C51  1  0.80943494  0.72838087  0.33929764  1  -0.022682  -0.004233  3.727794  -0.005  -0.059545  -0.001702  3.994398  -0.002  -0.059776  -0.001569  4.016644  -0.002  -0.006089  -0.059275  -0.001962  3.979405  -0.002
C  C52  1  0.30946266  0.72836881  0.16071744  1  -0.022695  0.004233  3.727321  0.005  -0.05953  0.001702  3.993922  0.002  -0.05976  0.001569  4.016174  0.002  -0.006139  -0.059252  0.001962  3.97892  0.002
C  C53  1  0.19055901  0.27161558  0.66070499  1  -0.022586  -0.004233  3.727675  -0.005  -0.059384  -0.001703  3.994244  -0.002  -0.059626  -0.001569  4.016489  -0.002  -0.006069  -0.059118  -0.001962  3.979259  -0.002
C  C54  1  0.72698292  0.15738322  0.90260480  1  -0.013419  -0.002593  3.753088  -0.003  -0.042983  -0.000462  4.023199  -0.001  -0.040894  -0.000918  4.046153  -0.002  -0.007431  -0.044936  -6.1e-05  4.007942  0.0
C  C55  1  0.77300495  0.84264370  0.40261065  1  -0.013129  0.002589  3.752993  0.003  -0.042656  0.000461  4.023099  0.001  -0.040554  0.000919  4.046043  0.002  -0.007291  -0.044609  6.1e-05  4.007846  0.0
C  C56  1  0.27300968  0.84263482  0.09739710  1  -0.013116  -0.002591  3.752733  -0.003  -0.042669  -0.000462  4.022877  -0.001  -0.04057  -0.00092  4.045822  -0.002  -0.007374  -0.044626  -6.2e-05  4.007627  0.0
C  C57  1  0.22699015  0.15735273  0.59739199  1  -0.013253  0.002588  3.752922  0.003  -0.042788  0.000461  4.023031  0.001  -0.040698  0.000919  4.045986  0.002  -0.007317  -0.044736  6.1e-05  4.007785  0.0
C  C58  1  0.20110017  0.82337141  0.86197584  1  0.208408  -0.006066  3.66647  -0.007  0.151583  -0.001522  3.94671  -0.002  0.166601  -0.002044  3.958571  -0.003  0.138106  0.141234  -0.001191  3.939451  -0.001
C  C59  1  0.29891396  0.17663655  0.36198520  1  0.208339  0.006067  3.66627  0.007  0.151513  0.001523  3.94655  0.002  0.166528  0.002045  3.958421  0.003  0.138052  0.141168  0.001192  3.939292  0.001
C  C60  1  0.79888096  0.17662417  0.13803117  1  0.208691  -0.006065  3.666404  -0.007  0.151888  -0.001522  3.946716  -0.002  0.166881  -0.002043  3.958572  -0.003  0.138201  0.141527  -0.001191  3.939448  -0.001
C  C61  1  0.70107777  0.82336221  0.63801816  1  0.208204  0.00607  3.666239  0.007  0.151414  0.001523  3.946522  0.002  0.166421  0.002044  3.958383  0.003  0.138043  0.141068  0.001192  3.939257  0.001
C  C62  1  0.39335763  0.97026882  0.80576668  1  0.001904  0.004063  3.674412  0.005  -0.035886  0.001863  3.935689  0.002  -0.033506  0.00161  3.954637  0.002  0.001135  -0.037026  0.002203  3.921931  0.002
C  C63  1  0.10662941  0.02973429  0.30576218  1  0.001554  -0.004065  3.674961  -0.005  -0.036183  -0.001866  3.936208  -0.002  -0.033794  -0.001611  3.955162  -0.002  0.001104  -0.037324  -0.002205  3.92245  -0.002
C  C64  1  0.60663201  0.02970956  0.19423523  1  0.00175  0.00406  3.674598  0.005  -0.035975  0.001863  3.935922  0.002  -0.033628  0.001609  3.954881  0.002  0.001101  -0.037121  0.002202  3.922138  0.002
C  C65  1  0.89336337  0.97026219  0.69424118  1  0.00159  -0.004068  3.674938  -0.005  -0.036154  -0.001865  3.936243  -0.002  -0.033778  -0.001612  3.955192  -0.002  0.001107  -0.037306  -0.002205  3.922494  -0.002
C  C66  1  0.29111125  0.05595032  0.85820948  1  -0.032006  -0.000527  3.737439  -0.001  -0.057119  0.000823  4.004926  0.001  -0.056116  0.000227  4.027346  0.0  -0.012457  -0.057274  0.001263  3.99008  0.001
C  C67  1  0.20891586  0.94406088  0.35821486  1  -0.031587  0.00053  3.737248  0.001  -0.05659  -0.00082  4.004674  -0.001  -0.055597  -0.000224  4.027101  0.0  -0.012171  -0.056755  -0.001259  3.989833  -0.001
C  C68  1  0.70888001  0.94403825  0.14179243  1  -0.031749  -0.000522  3.737359  -0.001  -0.056893  0.000824  4.004782  0.001  -0.055889  0.000229  4.02721  0.0  -0.012295  -0.057043  0.001264  3.989964  0.001
C  C69  1  0.79108046  0.05593666  0.64178778  1  -0.03172  0.000533  3.737169  0.001  -0.05672  -0.00082  4.004629  -0.001  -0.055726  -0.000223  4.027056  0.0  -0.012213  -0.056902  -0.001259  3.989783  -0.001
N  N70  1  0.86594665  0.83163773  0.94034743  1  -0.54329  0.046387  2.963585  0.064  -0.527935  0.032971  3.262486  0.045  -0.554018  0.028126  3.265571  0.039  -0.375877  -0.510632  0.037549  3.260185  0.05
N  N71  1  0.63406743  0.16839111  0.44038681  1  -0.543089  -0.046372  2.96407  -0.064  -0.527697  -0.032967  3.262897  -0.045  -0.553771  -0.028127  3.265983  -0.039  -0.375721  -0.510425  -0.037544  3.260584  -0.05
N  N72  1  0.13406603  0.16838783  0.05964937  1  -0.543309  0.046376  2.963457  0.064  -0.527952  0.032965  3.262348  0.045  -0.55404  0.028123  3.265437  0.039  -0.375836  -0.510646  0.037542  3.260045  0.05
N  N73  1  0.36594766  0.83161057  0.55961582  1  -0.543073  -0.046376  2.963966  -0.064  -0.527688  -0.032971  3.262798  -0.045  -0.55376  -0.028128  3.265878  -0.039  -0.375827  -0.510411  -0.037547  3.260487  -0.05
N  N74  1  0.63696773  0.67075337  0.89709245  1  -0.393396  0.002254  3.220039  0.004  -0.363177  0.000129  3.496227  0.001  -0.383012  -0.000165  3.502615  0.0  -0.328982  -0.34951  0.000743  3.491494  0.002
N  N75  1  0.86304307  0.32922555  0.39710747  1  -0.393217  -0.002253  3.219836  -0.004  -0.363015  -0.000129  3.496012  -0.001  -0.382849  0.000166  3.502407  0.0  -0.329022  -0.349347  -0.000742  3.491277  -0.002
N  N76  1  0.36306174  0.32925822  0.10288830  1  -0.393629  0.002253  3.220026  0.004  -0.36339  0.00013  3.496185  0.001  -0.38321  -0.000166  3.502535  0.0  -0.329163  -0.349718  0.000743  3.491454  0.002
N  N77  1  0.13697610  0.67076357  0.60288860  1  -0.393159  -0.002253  3.219704  -0.004  -0.363041  -0.000128  3.495935  -0.001  -0.382877  0.000166  3.502327  0.0  -0.328958  -0.349376  -0.000742  3.491206  -0.002
N  N78  1  0.88525811  0.16036158  0.91796278  1  -0.334956  0.059129  3.327722  0.087  -0.296376  0.040214  3.625261  0.06  -0.324102  0.032696  3.647138  0.05  -0.347402  -0.276658  0.046654  3.609624  0.068
N  N79  1  0.61474374  0.83964424  0.41795816  1  -0.335088  -0.059139  3.32793  -0.087  -0.296535  -0.040226  3.625478  -0.06  -0.324257  -0.032703  3.64736  -0.05  -0.347482  -0.276839  -0.04667  3.609828  -0.068
N  N80  1  0.11473787  0.83965412  0.08204278  1  -0.335142  0.059132  3.327883  0.087  -0.296589  0.040217  3.625481  0.06  -0.324314  0.032699  3.647353  0.05  -0.347491  -0.276877  0.046658  3.609851  0.068
N  N81  1  0.38525379  0.16035440  0.58204666  1  -0.335043  -0.059138  3.327756  -0.087  -0.296489  -0.040225  3.625297  -0.06  -0.324213  -0.032703  3.647189  -0.05  -0.347477  -0.276796  -0.04667  3.609649  -0.068
N  N82  1  0.82858988  0.34562962  0.81700995  1  -0.291126  0.000918  3.475708  0.001  -0.227267  0.000842  3.712095  0.001  -0.243467  0.000565  3.727292  0.001  -0.388143  -0.216107  0.001104  3.700835  0.002
N  N83  1  0.67138526  0.65438606  0.31702651  1  -0.2908  -0.000918  3.47578  -0.001  -0.226753  -0.000843  3.712101  -0.001  -0.242975  -0.000565  3.727328  -0.001  -0.388092  -0.215597  -0.001105  3.700841  -0.002
N  N84  1  0.17141043  0.65437918  0.18298758  1  -0.291183  0.000918  3.475634  0.001  -0.227172  0.000843  3.711935  0.001  -0.243399  0.000565  3.727161  0.001  -0.388053  -0.216013  0.001104  3.700681  0.002
N  N85  1  0.32860737  0.34560702  0.68298050  1  -0.290855  -0.000919  3.475646  -0.001  -0.226898  -0.000844  3.711983  -0.001  -0.24309  -0.000566  3.727185  -0.001  -0.388025  -0.215741  -0.001105  3.700725  -0.002
N  N86  1  0.17154115  0.96303362  0.89267384  1  -0.345434  0.057791  3.288983  0.085  -0.306152  0.03963  3.585304  0.059  -0.333529  0.031848  3.606499  0.049  -0.345758  -0.286707  0.046454  3.56981  0.068
N  N87  1  0.32847070  0.03698272  0.39267047  1  -0.34548  -0.057791  3.290087  -0.085  -0.306242  -0.039631  3.586449  -0.059  -0.333611  -0.031851  3.607653  -0.049  -0.345999  -0.28682  -0.046451  3.570949  -0.068
N  N88  1  0.82845158  0.03696172  0.10732806  1  -0.3455  0.057788  3.288658  0.085  -0.306206  0.039629  3.584995  0.059  -0.333591  0.031847  3.606206  0.049  -0.3458  -0.286761  0.046453  3.569504  0.068
N  N89  1  0.67152335  0.96301600  0.60733216  1  -0.345383  -0.057798  3.290048  -0.085  -0.306152  -0.039635  3.586401  -0.059  -0.333521  -0.031854  3.607603  -0.049  -0.345979  -0.286733  -0.046454  3.570911  -0.068
N  N90  1  0.33380062  0.82432172  0.80908959  1  -0.276764  0.000786  3.504847  0.001  -0.212974  0.00066  3.747015  0.001  -0.228336  0.000434  3.762092  0.001  -0.380015  -0.202687  0.000891  3.737818  0.001
N  N91  1  0.16617184  0.17567141  0.30908695  1  -0.276869  -0.000789  3.504904  -0.001  -0.213145  -0.000662  3.747057  -0.001  -0.228524  -0.000436  3.762134  -0.001  -0.380052  -0.202853  -0.000894  3.737859  -0.001
N  N92  1  0.66618363  0.17566586  0.19091523  1  -0.276896  0.000785  3.504847  0.001  -0.213379  0.00066  3.747124  0.001  -0.228672  0.000434  3.762143  0.001  -0.380221  -0.203055  0.000891  3.737894  0.001
N  N93  1  0.83382095  0.82432507  0.69091568  1  -0.276734  -0.000789  3.504611  -0.001  -0.213036  -0.000662  3.746774  -0.001  -0.228378  -0.000435  3.761823  -0.001  -0.380011  -0.202728  -0.000894  3.737562  -0.001
O  O94  1  0.32967701  0.46040038  0.87260827  1  -0.528292  0.000351  2.001964  0.001  -0.486823  -8.3e-05  2.220226  0.0  -0.505356  -7.5e-05  2.215301  0.0  -0.317407  -0.473612  1e-06  2.225044  0.0
O  O95  1  0.17032219  0.53959402  0.37264284  1  -0.528355  -0.00035  2.002317  -0.001  -0.486824  8.2e-05  2.220581  0.0  -0.505364  7.5e-05  2.215669  0.0  -0.317398  -0.473609  -0.0  2.225397  0.0
O  O96  1  0.67034496  0.53962498  0.12738050  1  -0.528355  0.00035  2.001954  0.001  -0.486811  -8.3e-05  2.220205  0.0  -0.505343  -7.5e-05  2.215285  0.0  -0.317418  -0.473598  1e-06  2.225013  0.0
O  O97  1  0.82970141  0.46039046  0.62734885  1  -0.528449  -0.00035  2.002221  -0.001  -0.486949  8.2e-05  2.220475  0.0  -0.505476  7.5e-05  2.215532  0.0  -0.317512  -0.473742  -0.0  2.225299  0.0
