# generated using pymatgen
data_AgH6C3SN2Cl
_symmetry_space_group_name_H-M   'P 1'
_cell_length_a   7.99302858
_cell_length_b   7.93363750
_cell_length_c   10.45722783
_cell_angle_alpha   89.99990638
_cell_angle_beta   89.99995452
_cell_angle_gamma   89.99985622
_symmetry_Int_Tables_number   1
_chemical_formula_structural   AgH6C3SN2Cl
_chemical_formula_sum   'Ag4 H24 C12 S4 N8 Cl4'
_cell_volume   663.13246255
_cell_formula_units_Z   4
loop_
 _symmetry_equiv_pos_site_id
 _symmetry_equiv_pos_as_xyz
  1  'x, y, z'
loop_
 _atom_site_type_symbol
 _atom_site_label
 _atom_site_symmetry_multiplicity
 _atom_site_fract_x
 _atom_site_fract_y
 _atom_site_fract_z
 _atom_site_occupancy
 _atom_site_pbe_bader_spin_density
 _atom_site_pbe_cm5_charge
 _atom_site_pbe_ddec_charge
 _atom_site_pbe_ddec_spin_density
 _atom_site_pbe_ddec_sum_bond_order
 _atom_site_pbe_magmom
Ag  Ag0  1  0.06105818  0.75189141  0.64454319  1  0  0.294781  0.325944  0  2.402989  0
Ag  Ag1  1  0.43894087  0.24811247  0.14454663  1  0  0.294783  0.325939  0  2.403074  0
Ag  Ag2  1  0.56105655  0.74810972  0.35545400  1  0  0.294778  0.325943  0  2.403034  0
Ag  Ag3  1  0.93893995  0.25188865  0.85545190  1  0  0.294774  0.325934  0  2.403036  0
H  H4  1  0.33282856  0.95790765  0.53827103  1  0  0.286132  0.255535  0  1.023292  0
H  H5  1  0.16716935  0.04209393  0.03826915  1  0  0.286102  0.255502  0  1.023311  0
H  H6  1  0.83282858  0.54209279  0.46173078  1  0  0.286096  0.255502  0  1.023321  0
H  H7  1  0.66717281  0.45790535  0.96172859  1  0  0.286124  0.25554  0  1.02322  0
H  H8  1  0.30803135  0.31521732  0.81654308  1  0  0.279704  0.266051  0  1.01322  0
H  H9  1  0.19196877  0.68478367  0.31654326  1  0  0.279721  0.26609  0  1.01316  0
H  H10  1  0.80803131  0.18478413  0.18345649  1  0  0.279713  0.266061  0  1.013179  0
H  H11  1  0.69196787  0.81521839  0.68345672  1  0  0.279714  0.266041  0  1.013226  0
H  H12  1  0.44276653  0.25518202  0.46195771  1  0  0.091354  0.071475  0  1.013427  0
H  H13  1  0.05723219  0.74481865  0.96195810  1  0  0.091351  0.071449  0  1.013454  0
H  H14  1  0.94276596  0.24481657  0.53804274  1  0  0.091336  0.071442  0  1.013448  0
H  H15  1  0.55723588  0.75517871  0.03804291  1  0  0.091341  0.071474  0  1.013442  0
H  H16  1  0.60922671  0.12716732  0.52330765  1  0  0.096309  0.095274  0  1.005912  0
H  H17  1  0.89077139  0.87283177  0.02330652  1  0  0.096318  0.095233  0  1.005994  0
H  H18  1  0.10922697  0.37282959  0.47669395  1  0  0.096322  0.095273  0  1.005914  0
H  H19  1  0.39077548  0.62716600  0.97669334  1  0  0.096327  0.095284  0  1.00592  0
H  H20  1  0.60400062  0.27142754  0.72776710  1  0  0.086181  0.062941  0  1.037723  0
H  H21  1  0.89599852  0.72857237  0.22776710  1  0  0.086186  0.062976  0  1.037718  0
H  H22  1  0.10400145  0.22857190  0.27223450  1  0  0.086196  0.062971  0  1.037719  0
H  H23  1  0.39599997  0.77142791  0.77223466  1  0  0.086201  0.062979  0  1.037714  0
H  H24  1  0.50790047  0.43759366  0.63675151  1  0  0.095546  0.094148  0  1.006193  0
H  H25  1  0.99210002  0.56240645  0.13675262  1  0  0.095552  0.094185  0  1.006178  0
H  H26  1  0.00789911  0.06240477  0.36324824  1  0  0.095557  0.094167  0  1.006195  0
H  H27  1  0.49209970  0.93759359  0.86324909  1  0  0.09554  0.094151  0  1.006213  0
C  C28  1  0.48975626  0.18769580  0.54674885  1  0  -0.058594  -0.019274  0  3.808375  0
C  C29  1  0.01024289  0.81230703  0.04674707  1  0  -0.058553  -0.019074  0  3.808402  0
C  C30  1  0.98975562  0.31230393  0.45325348  1  0  -0.05856  -0.019157  0  3.808329  0
C  C31  1  0.51024453  0.68769549  0.95325206  1  0  -0.05859  -0.019246  0  3.808351  0
C  C32  1  0.49929812  0.30451849  0.66400738  1  0  -0.060748  -0.021728  0  3.822184  0
C  C33  1  0.00070216  0.69548282  0.16400671  1  0  -0.0608  -0.02193  0  3.822303  0
C  C34  1  0.99929789  0.19548122  0.33599303  1  0  -0.060787  -0.021866  0  3.822259  0
C  C35  1  0.50070238  0.80451846  0.83599338  1  0  -0.060806  -0.021875  0  3.822301  0
C  C36  1  0.27681071  0.12110225  0.68804931  1  0  0.244279  0.389134  0  4.117741  0
C  C37  1  0.22318955  0.87889649  0.18804732  1  0  0.244234  0.389052  0  4.117813  0
C  C38  1  0.77681130  0.37889550  0.31195124  1  0  0.244218  0.389072  0  4.11779  0
C  C39  1  0.72319025  0.62110171  0.81194977  1  0  0.24424  0.389029  0  4.117802  0
S  S40  1  0.10922851  0.02185157  0.75642509  1  0  -0.208816  -0.378284  0  3.028929  0
S  S41  1  0.39077042  0.97814954  0.25642384  1  0  -0.208819  -0.37829  0  3.028971  0
S  S42  1  0.60922892  0.47814912  0.24357555  1  0  -0.208801  -0.378271  0  3.028943  0
S  S43  1  0.89077270  0.52185201  0.74357411  1  0  -0.20879  -0.378246  0  3.028873  0
N  N44  1  0.36651025  0.06220240  0.58941419  1  0  -0.417406  -0.319203  0  3.523451  0
N  N45  1  0.13348761  0.93779781  0.08941313  1  0  -0.417432  -0.319257  0  3.523583  0
N  N46  1  0.86651059  0.43779638  0.41058630  1  0  -0.417409  -0.319257  0  3.523538  0
N  N47  1  0.63349211  0.56220313  0.91058496  1  0  -0.417401  -0.319197  0  3.523479  0
N  N48  1  0.33947761  0.26901662  0.72789245  1  0  -0.417877  -0.319103  0  3.494411  0
N  N49  1  0.16052135  0.73098707  0.22788973  1  0  -0.417822  -0.319006  0  3.49447  0
N  N50  1  0.83947986  0.23098601  0.27210901  1  0  -0.417827  -0.318997  0  3.494436  0
N  N51  1  0.66052298  0.76901633  0.77210836  1  0  -0.417849  -0.318993  0  3.494469  0
Cl  Cl52  1  0.30076727  0.64679318  0.51090260  1  0  -0.310836  -0.502899  0  1.473203  0
Cl  Cl53  1  0.19923192  0.35320594  0.01090223  1  0  -0.310833  -0.502893  0  1.473171  0
Cl  Cl54  1  0.80076649  0.85320735  0.48909635  1  0  -0.31083  -0.502868  0  1.47316  0
Cl  Cl55  1  0.69923237  0.14679452  0.98909740  1  0  -0.310828  -0.502877  0  1.473182  0
