# generated using pymatgen
data_CdH18C18(IN3)2
_symmetry_space_group_name_H-M   'P 1'
_cell_length_a   8.17287749
_cell_length_b   8.88404306
_cell_length_c   16.44950558
_cell_angle_alpha   89.99995401
_cell_angle_beta   89.99987759
_cell_angle_gamma   115.57574317
_symmetry_Int_Tables_number   1
_chemical_formula_structural   CdH18C18(IN3)2
_chemical_formula_sum   'Cd2 H36 C36 I4 N12'
_cell_volume   1077.33912658
_cell_formula_units_Z   2
loop_
 _symmetry_equiv_pos_site_id
 _symmetry_equiv_pos_as_xyz
  1  'x, y, z'
loop_
 _atom_site_type_symbol
 _atom_site_label
 _atom_site_symmetry_multiplicity
 _atom_site_fract_x
 _atom_site_fract_y
 _atom_site_fract_z
 _atom_site_occupancy
 _atom_site_hle17_bader_spin_density
 _atom_site_hle17_ddec_charge
 _atom_site_hle17_ddec_spin_density
 _atom_site_hle17_ddec_sum_bond_order
 _atom_site_hle17_magmom
 _atom_site_hse06_10hf_bader_spin_density
 _atom_site_hse06_10hf_ddec_charge
 _atom_site_hse06_10hf_ddec_spin_density
 _atom_site_hse06_10hf_ddec_sum_bond_order
 _atom_site_hse06_10hf_magmom
 _atom_site_hse06_bader_spin_density
 _atom_site_hse06_ddec_charge
 _atom_site_hse06_ddec_spin_density
 _atom_site_hse06_ddec_sum_bond_order
 _atom_site_hse06_magmom
 _atom_site_pbe_bader_spin_density
 _atom_site_pbe_cm5_charge
 _atom_site_pbe_ddec_charge
 _atom_site_pbe_ddec_spin_density
 _atom_site_pbe_ddec_sum_bond_order
 _atom_site_pbe_magmom
Cd  Cd0  1  0.50000100  0.50000093  0.00000084  1  0  0.851497  0  1.956666  0  0  0.664879  0  2.38815  0  0  0.71494  0  2.353281  0  0  0.626142  0.63021  0  2.41119  0
Cd  Cd1  1  0.49999938  0.99999875  0.49999875  1  0  0.851493  0  1.956672  0  0  0.664876  0  2.38815  0  0  0.714938  0  2.353279  0  0  0.626145  0.630206  0  2.411194  0
H  H2  1  0.96773362  0.17203308  0.55643319  1  0  0.083775  0  0.990084  0  0  0.086605  0  1.068016  0  0  0.089918  0  1.063678  0  0  0.110524  0.084126  0  1.07115  0
H  H3  1  0.03226786  0.32796624  0.05643140  1  0  0.083771  0  0.990105  0  0  0.086592  0  1.068021  0  0  0.089905  0  1.063684  0  0  0.11053  0.084114  0  1.071156  0
H  H4  1  0.03226902  0.82796427  0.44356938  1  0  0.08381  0  0.9901  0  0  0.086621  0  1.068027  0  0  0.089934  0  1.063691  0  0  0.110526  0.084144  0  1.07116  0
H  H5  1  0.96773471  0.67203611  0.94356934  1  0  0.083784  0  0.990125  0  0  0.086635  0  1.068016  0  0  0.089948  0  1.06368  0  0  0.110535  0.084157  0  1.071153  0
H  H6  1  0.60660432  0.39569528  0.57097055  1  0  0.091377  0  0.997435  0  0  0.09612  0  1.069654  0  0  0.099325  0  1.067022  0  0  0.096617  0.093765  0  1.071673  0
H  H7  1  0.39339707  0.10430398  0.07097090  1  0  0.091378  0  0.997398  0  0  0.096107  0  1.069633  0  0  0.099314  0  1.067  0  0  0.096614  0.093754  0  1.071648  0
H  H8  1  0.39339469  0.60429959  0.42902836  1  0  0.091384  0  0.997517  0  0  0.096119  0  1.069724  0  0  0.099325  0  1.067093  0  0  0.096629  0.093763  0  1.071747  0
H  H9  1  0.60660550  0.89569837  0.92902741  1  0  0.091391  0  0.997455  0  0  0.096122  0  1.069677  0  0  0.099328  0  1.067044  0  0  0.096619  0.093771  0  1.071693  0
H  H10  1  0.99574198  0.43404552  0.76267032  1  0  0.107161  0  0.95868  0  0  0.114256  0  1.022666  0  0  0.117963  0  1.021389  0  0  0.101913  0.111592  0  1.02371  0
H  H11  1  0.00425636  0.06595674  0.26266745  1  0  0.107162  0  0.958718  0  0  0.114259  0  1.022702  0  0  0.117967  0  1.021424  0  0  0.101914  0.111598  0  1.023748  0
H  H12  1  0.00425934  0.56595934  0.23733224  1  0  0.10714  0  0.958705  0  0  0.114251  0  1.022679  0  0  0.117959  0  1.021402  0  0  0.101904  0.11159  0  1.023722  0
H  H13  1  0.99574381  0.93404312  0.73733146  1  0  0.107165  0  0.958691  0  0  0.114271  0  1.022665  0  0  0.117979  0  1.021386  0  0  0.101913  0.111608  0  1.02371  0
H  H14  1  0.94506601  0.62025005  0.62961950  1  0  0.109446  0  0.976065  0  0  0.117599  0  1.042122  0  0  0.120205  0  1.041197  0  0  0.112475  0.115713  0  1.042872  0
H  H15  1  0.05492995  0.87974663  0.12961706  1  0  0.109415  0  0.976098  0  0  0.11756  0  1.04217  0  0  0.120165  0  1.041246  0  0  0.112462  0.115675  0  1.042926  0
H  H16  1  0.05492934  0.37974483  0.37038185  1  0  0.109416  0  0.976105  0  0  0.11756  0  1.042183  0  0  0.120165  0  1.041258  0  0  0.112458  0.115678  0  1.042934  0
H  H17  1  0.94506962  0.12025198  0.87037943  1  0  0.10943  0  0.976069  0  0  0.117572  0  1.042147  0  0  0.120178  0  1.041221  0  0  0.112459  0.115689  0  1.042899  0
H  H18  1  0.26521366  0.61742518  0.60018494  1  0  0.100577  0  0.928833  0  0  0.111099  0  0.997471  0  0  0.112054  0  0.99765  0  0  0.112296  0.110395  0  0.997446  0
H  H19  1  0.73478367  0.88257412  0.10018481  1  0  0.100571  0  0.928832  0  0  0.111084  0  0.997465  0  0  0.112039  0  0.997645  0  0  0.112297  0.110391  0  0.997442  0
H  H20  1  0.73478470  0.38257344  0.39981580  1  0  0.100574  0  0.92883  0  0  0.111087  0  0.997442  0  0  0.112041  0  0.997623  0  0  0.112291  0.11039  0  0.997419  0
H  H21  1  0.26521649  0.11742574  0.89981533  1  0  0.100577  0  0.928837  0  0  0.111101  0  0.997476  0  0  0.112055  0  0.997656  0  0  0.112297  0.110397  0  0.997442  0
H  H22  1  0.26289983  0.42262330  0.57854117  1  0  0.090947  0  0.954848  0  0  0.101437  0  1.026362  0  0  0.103305  0  1.024803  0  0  0.10328  0.100012  0  1.027631  0
H  H23  1  0.73710030  0.07737593  0.07853630  1  0  0.09096  0  0.954816  0  0  0.101443  0  1.026329  0  0  0.103313  0  1.024769  0  0  0.10327  0.100027  0  1.027602  0
H  H24  1  0.73709915  0.57737406  0.42146261  1  0  0.090938  0  0.954845  0  0  0.101404  0  1.026375  0  0  0.103272  0  1.024816  0  0  0.103268  0.099984  0  1.027649  0
H  H25  1  0.26289868  0.92262143  0.92146019  1  0  0.090951  0  0.954835  0  0  0.101446  0  1.026352  0  0  0.103313  0  1.024793  0  0  0.103275  0.100015  0  1.027623  0
H  H26  1  0.11043154  0.43560188  0.90259294  1  0  0.064568  0  0.985071  0  0  0.065895  0  1.064868  0  0  0.068672  0  1.061941  0  0  0.093147  0.063783  0  1.067067  0
H  H27  1  0.88956231  0.06439734  0.40259033  1  0  0.064602  0  0.985086  0  0  0.065865  0  1.06496  0  0  0.068645  0  1.062027  0  0  0.093123  0.063759  0  1.067155  0
H  H28  1  0.88956674  0.56440174  0.09740902  1  0  0.064583  0  0.985064  0  0  0.065888  0  1.064913  0  0  0.068673  0  1.06196  0  0  0.093146  0.063783  0  1.067111  0
H  H29  1  0.11043486  0.93559879  0.59740798  1  0  0.0646  0  0.985057  0  0  0.065903  0  1.064903  0  0  0.068683  0  1.061974  0  0  0.093167  0.063793  0  1.0671  0
H  H30  1  0.38933280  0.50938046  0.18213404  1  0  0.069971  0  0.962468  0  0  0.075422  0  1.031109  0  0  0.07826  0  1.028406  0  0  0.100868  0.073293  0  1.03311  0
H  H31  1  0.61066950  0.99061973  0.68213182  1  0  0.069962  0  0.962444  0  0  0.075408  0  1.031091  0  0  0.078246  0  1.028387  0  0  0.100858  0.073281  0  1.033093  0
H  H32  1  0.61066493  0.49061941  0.81786914  1  0  0.069991  0  0.962471  0  0  0.075438  0  1.031106  0  0  0.078277  0  1.028402  0  0  0.100866  0.07331  0  1.033108  0
H  H33  1  0.38933126  0.00938138  0.31786649  1  0  0.069964  0  0.962433  0  0  0.075426  0  1.031069  0  0  0.078252  0  1.028379  0  0  0.100867  0.073299  0  1.03307  0
H  H34  1  0.52251902  0.50658153  0.67366242  1  0  0.104868  0  0.981357  0  0  0.114332  0  1.044378  0  0  0.117459  0  1.043454  0  0  0.096992  0.112058  0  1.045228  0
H  H35  1  0.47747904  0.99341997  0.17366069  1  0  0.104919  0  0.981459  0  0  0.114357  0  1.0445  0  0  0.117479  0  1.043573  0  0  0.097032  0.112087  0  1.045339  0
H  H36  1  0.47747936  0.49341459  0.32633893  1  0  0.104899  0  0.981433  0  0  0.114354  0  1.044456  0  0  0.117479  0  1.043533  0  0  0.097039  0.112082  0  1.045302  0
H  H37  1  0.52252287  0.00658614  0.82633762  1  0  0.104893  0  0.981385  0  0  0.114343  0  1.044407  0  0  0.11747  0  1.043484  0  0  0.097027  0.112069  0  1.045254  0
C  C38  1  0.91142137  0.26014477  0.56931809  1  0  0.155723  0  3.663699  0  0  0.097145  0  3.925133  0  0  0.110743  0  3.938003  0  0  0.13063  0.088412  0  3.916189  0
C  C39  1  0.08858003  0.23985450  0.06931566  1  0  0.155728  0  3.663698  0  0  0.097176  0  3.925136  0  0  0.110775  0  3.938004  0  0  0.130636  0.088444  0  3.91619  0
C  C40  1  0.08858127  0.73985257  0.43068387  1  0  0.155666  0  3.663684  0  0  0.097126  0  3.925121  0  0  0.110724  0  3.937989  0  0  0.130627  0.088396  0  3.91617  0
C  C41  1  0.91142073  0.76014661  0.93068325  1  0  0.155726  0  3.663764  0  0  0.097138  0  3.925198  0  0  0.110736  0  3.93807  0  0  0.130619  0.088404  0  3.916256  0
C  C42  1  0.73083690  0.38150666  0.57902544  1  0  -0.006063  0  3.774521  0  0  -0.040118  0  4.041507  0  0  -0.038001  0  4.061339  0  0  -0.01519  -0.041506  0  4.028159  0
C  C43  1  0.26916141  0.11849133  0.07902531  1  0  -0.006059  0  3.774647  0  0  -0.040112  0  4.041652  0  0  -0.037994  0  4.061485  0  0  -0.015213  -0.041496  0  4.0283  0
C  C44  1  0.26916514  0.61848944  0.42097469  1  0  -0.006034  0  3.774451  0  0  -0.040065  0  4.04142  0  0  -0.037948  0  4.061252  0  0  -0.015154  -0.041447  0  4.028075  0
C  C45  1  0.73083510  0.88150855  0.92097300  1  0  -0.00602  0  3.774343  0  0  -0.040049  0  4.041313  0  0  -0.037932  0  4.061145  0  0  -0.015153  -0.041435  0  4.027969  0
C  C46  1  0.13427371  0.44915527  0.77140235  1  0  -0.179801  0  3.716312  0  0  -0.197148  0  3.960791  0  0  -0.205363  0  3.981767  0  0  -0.093864  -0.191854  0  3.94669  0
C  C47  1  0.86572394  0.05084821  0.27139978  1  0  -0.17972  0  3.716308  0  0  -0.197064  0  3.960754  0  0  -0.205281  0  3.981732  0  0  -0.093846  -0.191772  0  3.946657  0
C  C48  1  0.86572520  0.55084710  0.22860021  1  0  -0.179753  0  3.716229  0  0  -0.19712  0  3.96072  0  0  -0.205338  0  3.981699  0  0  -0.093863  -0.191823  0  3.94662  0
C  C49  1  0.13427559  0.94915291  0.72859914  1  0  -0.179794  0  3.716276  0  0  -0.197129  0  3.96074  0  0  -0.205345  0  3.981716  0  0  -0.093862  -0.191834  0  3.946643  0
C  C50  1  0.25127725  0.47155336  0.70574925  1  0  0.140537  0  3.709809  0  0  0.154707  0  3.947697  0  0  0.159429  0  3.9696  0  0  0.010539  0.151806  0  3.932724  0
C  C51  1  0.74872021  0.02844914  0.20574620  1  0  0.140376  0  3.70991  0  0  0.154554  0  3.94777  0  0  0.159278  0  3.969672  0  0  0.010484  0.151673  0  3.932801  0
C  C52  1  0.74871985  0.52844778  0.29425271  1  0  0.140455  0  3.709914  0  0  0.154606  0  3.947805  0  0  0.159327  0  3.969709  0  0  0.010506  0.151719  0  3.932836  0
C  C53  1  0.25127932  0.97155198  0.79425150  1  0  0.140474  0  3.709839  0  0  0.15462  0  3.947772  0  0  0.159342  0  3.969676  0  0  0.010505  0.151717  0  3.932796  0
C  C54  1  0.89717264  0.49356355  0.60744260  1  0  -0.069533  0  3.674803  0  0  -0.107308  0  3.93059  0  0  -0.105812  0  3.948738  0  0  -0.008336  -0.108279  0  3.918439  0
C  C55  1  0.10282490  0.00643308  0.10744147  1  0  -0.069548  0  3.674898  0  0  -0.10731  0  3.93068  0  0  -0.105816  0  3.948832  0  0  -0.008336  -0.108278  0  3.918531  0
C  C56  1  0.10282212  0.50643009  0.39255814  1  0  -0.069539  0  3.674791  0  0  -0.107323  0  3.930601  0  0  -0.105828  0  3.948752  0  0  -0.008354  -0.108298  0  3.918455  0
C  C57  1  0.89717648  0.99356677  0.89255623  1  0  -0.069521  0  3.674712  0  0  -0.107302  0  3.930503  0  0  -0.105807  0  3.948652  0  0  -0.008331  -0.108278  0  3.918358  0
C  C58  1  0.20336233  0.48529191  0.61848829  1  0  -0.058476  0  3.651748  0  0  -0.118481  0  3.887983  0  0  -0.11546  0  3.898025  0  0  -0.048144  -0.120494  0  3.881283  0
C  C59  1  0.79663811  0.01471092  0.11848581  1  0  -0.058438  0  3.651749  0  0  -0.118422  0  3.887972  0  0  -0.115409  0  3.898019  0  0  -0.048098  -0.120488  0  3.881339  0
C  C60  1  0.79663721  0.51470921  0.38151367  1  0  -0.058451  0  3.651706  0  0  -0.118378  0  3.887848  0  0  -0.115358  0  3.897891  0  0  -0.048096  -0.120431  0  3.881203  0
C  C61  1  0.20336327  0.98528894  0.88151251  1  0  -0.058445  0  3.651697  0  0  -0.118485  0  3.888016  0  0  -0.115466  0  3.898061  0  0  -0.048116  -0.120487  0  3.881298  0
C  C62  1  0.19720756  0.44775732  0.85008128  1  0  0.122823  0  3.739422  0  0  0.095554  0  3.991075  0  0  0.102809  0  4.009554  0  0  0.035363  0.090901  0  3.97856  0
C  C63  1  0.80279083  0.05224584  0.35007938  1  0  0.122822  0  3.739473  0  0  0.095588  0  3.99111  0  0  0.102844  0  4.009587  0  0  0.035407  0.090927  0  3.978604  0
C  C64  1  0.80279498  0.55224753  0.14992007  1  0  0.122874  0  3.739395  0  0  0.095602  0  3.991042  0  0  0.102864  0  4.009522  0  0  0.035399  0.090936  0  3.97854  0
C  C65  1  0.19721114  0.94775527  0.64991954  1  0  0.12285  0  3.739415  0  0  0.095583  0  3.991055  0  0  0.102839  0  4.009535  0  0  0.03537  0.090926  0  3.978542  0
C  C66  1  0.47664339  0.48139640  0.80260492  1  0  0.133416  0  3.725823  0  0  0.105174  0  3.972938  0  0  0.112452  0  3.991293  0  0  0.038982  0.100541  0  3.960436  0
C  C67  1  0.52335408  0.01860696  0.30260152  1  0  0.133589  0  3.725855  0  0  0.105318  0  3.972969  0  0  0.112606  0  3.99133  0  0  0.039039  0.100683  0  3.96047  0
C  C68  1  0.52335615  0.51860472  0.19739825  1  0  0.133597  0  3.725815  0  0  0.105333  0  3.972932  0  0  0.112613  0  3.991287  0  0  0.039059  0.100702  0  3.960427  0
C  C69  1  0.47664605  0.98139541  0.69739619  1  0  0.133493  0  3.725835  0  0  0.105249  0  3.97295  0  0  0.112529  0  3.991304  0  0  0.039009  0.100614  0  3.96045  0
C  C70  1  0.42590668  0.48737556  0.72261106  1  0  -0.166168  0  3.706884  0  0  -0.181342  0  3.945675  0  0  -0.189531  0  3.967025  0  0  -0.088461  -0.176128  0  3.931405  0
C  C71  1  0.57409127  0.01262812  0.22260942  1  0  -0.166233  0  3.707083  0  0  -0.181392  0  3.945883  0  0  -0.189569  0  3.967222  0  0  -0.088519  -0.17618  0  3.931608  0
C  C72  1  0.57409286  0.51262556  0.27739090  1  0  -0.16625  0  3.707093  0  0  -0.181416  0  3.945906  0  0  -0.189602  0  3.967254  0  0  -0.088543  -0.176205  0  3.931634  0
C  C73  1  0.42591004  0.98737675  0.77738889  1  0  -0.166215  0  3.706969  0  0  -0.181365  0  3.945769  0  0  -0.189554  0  3.967119  0  0  -0.08852  -0.176155  0  3.931503  0
I  I74  1  0.70141100  0.29994613  0.95244703  1  0  -0.566605  0  0.908554  0  0  -0.517533  0  1.209854  0  0  -0.53455  0  1.187892  0  0  -0.265797  -0.504875  0  1.224728  0
I  I75  1  0.29859227  0.20005534  0.45244683  1  0  -0.566601  0  0.908548  0  0  -0.517519  0  1.209842  0  0  -0.534532  0  1.187878  0  0  -0.265803  -0.504861  0  1.224721  0
I  I76  1  0.29859097  0.70005498  0.04755310  1  0  -0.566596  0  0.908531  0  0  -0.517518  0  1.209818  0  0  -0.534533  0  1.187853  0  0  -0.265804  -0.504864  0  1.224703  0
I  I77  1  0.70141155  0.79994450  0.54755209  1  0  -0.566609  0  0.908527  0  0  -0.517537  0  1.209843  0  0  -0.534552  0  1.187882  0  0  -0.265803  -0.504876  0  1.224717  0
N  N78  1  0.74170282  0.23690499  0.55543631  1  0  -0.374723  0  3.273775  0  0  -0.297063  0  3.544887  0  0  -0.31823  0  3.565264  0  0  -0.360082  -0.282569  0  3.530402  0
N  N79  1  0.25829867  0.26309433  0.05543552  1  0  -0.374765  0  3.273815  0  0  -0.2971  0  3.544912  0  0  -0.31827  0  3.565293  0  0  -0.360074  -0.282609  0  3.530425  0
N  N80  1  0.25829860  0.76309236  0.44456443  1  0  -0.374822  0  3.273843  0  0  -0.297166  0  3.544937  0  0  -0.318338  0  3.565324  0  0  -0.360134  -0.282675  0  3.530453  0
N  N81  1  0.74170390  0.73690802  0.94456401  1  0  -0.374836  0  3.273869  0  0  -0.297187  0  3.545001  0  0  -0.318354  0  3.565376  0  0  -0.360127  -0.282694  0  3.530519  0
N  N82  1  0.01030941  0.41478573  0.60072313  1  0  -0.05305  0  3.577693  0  0  0.042309  0  3.789938  0  0  0.027755  0  3.816345  0  0  -0.243721  0.051959  0  3.771928  0
N  N83  1  0.98968936  0.08521343  0.10072041  1  0  -0.052972  0  3.577645  0  0  0.042361  0  3.789885  0  0  0.027808  0  3.816292  0  0  -0.243723  0.052022  0  3.771889  0
N  N84  1  0.98969020  0.58521038  0.39927943  1  0  -0.052915  0  3.577614  0  0  0.042406  0  3.789847  0  0  0.027853  0  3.816254  0  0  -0.243692  0.052066  0  3.771843  0
N  N85  1  0.01031018  0.91478769  0.89927729  1  0  -0.052983  0  3.577672  0  0  0.042389  0  3.789918  0  0  0.027834  0  3.816328  0  0  -0.24368  0.052039  0  3.771905  0
N  N86  1  0.36509944  0.46313793  0.86576980  1  0  -0.326546  0  3.263128  0  0  -0.251108  0  3.519314  0  0  -0.270881  0  3.540002  0  0  -0.333112  -0.237768  0  3.505012  0
N  N87  1  0.63489764  0.03686518  0.36576688  1  0  -0.326663  0  3.263134  0  0  -0.251212  0  3.519334  0  0  -0.270986  0  3.540016  0  0  -0.333134  -0.237869  0  3.505035  0
N  N88  1  0.63490128  0.53686569  0.13423276  1  0  -0.326703  0  3.263161  0  0  -0.25124  0  3.519348  0  0  -0.271019  0  3.540039  0  0  -0.333155  -0.237892  0  3.505044  0
N  N89  1  0.36510131  0.96313469  0.63423083  1  0  -0.326608  0  3.263137  0  0  -0.251165  0  3.519334  0  0  -0.270943  0  3.540025  0  0  -0.333121  -0.237824  0  3.505033  0
