# generated using pymatgen
data_AgH22C10SN5O4
_symmetry_space_group_name_H-M   'P 1'
_cell_length_a   6.28413295
_cell_length_b   10.59806392
_cell_length_c   30.58472744
_cell_angle_alpha   89.99953629
_cell_angle_beta   90.00009266
_cell_angle_gamma   92.07290575
_symmetry_Int_Tables_number   1
_chemical_formula_structural   AgH22C10SN5O4
_chemical_formula_sum   'Ag4 H88 C40 S4 N20 O16'
_cell_volume   2035.59897132
_cell_formula_units_Z   4
loop_
 _symmetry_equiv_pos_site_id
 _symmetry_equiv_pos_as_xyz
  1  'x, y, z'
loop_
 _atom_site_type_symbol
 _atom_site_label
 _atom_site_symmetry_multiplicity
 _atom_site_fract_x
 _atom_site_fract_y
 _atom_site_fract_z
 _atom_site_occupancy
 _atom_site_pbe_bader_charge
 _atom_site_pbe_bader_spin_density
 _atom_site_pbe_cm5_charge
 _atom_site_pbe_ddec_charge
 _atom_site_pbe_ddec_spin_density
 _atom_site_pbe_ddec_sum_bond_order
 _atom_site_pbe_magmom
Ag  Ag0  1  0.86435590  0.59708565  0.75955521  1  0.569626  0  0.456877  0.362757  0  1.732132  0
Ag  Ag1  1  0.63564468  0.90292093  0.25955420  1  0.569667  0  0.456878  0.362735  0  1.732071  0
Ag  Ag2  1  0.13563924  0.40291825  0.24044463  1  0.569658  0  0.456888  0.362774  0  1.731981  0
Ag  Ag3  1  0.36435357  0.09708200  0.74044596  1  0.56966  0  0.456884  0.362769  0  1.732006  0
H  H4  1  0.21895522  0.22387564  0.83842211  1  0.056857  0  0.118764  0.093568  0  0.971146  0
H  H5  1  0.28105092  0.27612319  0.33841955  1  0.056813  0  0.11876  0.093591  0  0.971104  0
H  H6  1  0.78103834  0.77612827  0.16157806  1  0.056897  0  0.118728  0.093467  0  0.971212  0
H  H7  1  0.71895337  0.72387591  0.66157996  1  0.056902  0  0.118778  0.093572  0  0.971118  0
H  H8  1  0.50217862  0.23587069  0.83848982  1  0.056662  0  0.117425  0.083296  0  0.967503  0
H  H9  1  0.99782389  0.26412688  0.33848836  1  0.057257  0  0.117426  0.083293  0  0.967467  0
H  H10  1  0.49781159  0.76413136  0.16150838  1  0.056538  0  0.117385  0.083242  0  0.967498  0
H  H11  1  0.00218223  0.73587503  0.66151213  1  0.057233  0  0.117451  0.083331  0  0.967507  0
H  H12  1  0.15224294  0.56377179  0.84640566  1  0.086918  0  0.127061  0.111931  0  0.97766  0
H  H13  1  0.34776442  0.93622835  0.34640235  1  0.086806  0  0.127073  0.111969  0  0.977725  0
H  H14  1  0.84776199  0.43623486  0.15359548  1  0.087248  0  0.127085  0.112002  0  0.977627  0
H  H15  1  0.65223509  0.06377079  0.65359651  1  0.086867  0  0.127071  0.111939  0  0.977734  0
H  H16  1  0.01804052  0.41260032  0.84204223  1  0.04772  0  0.113835  0.072136  0  0.986074  0
H  H17  1  0.48196555  0.08739748  0.34203865  1  0.047716  0  0.113818  0.072112  0  0.986059  0
H  H18  1  0.98195804  0.58740638  0.15795891  1  0.048016  0  0.113813  0.0721  0  0.986135  0
H  H19  1  0.51803054  0.91259885  0.65795922  1  0.04802  0  0.113805  0.072083  0  0.986008  0
H  H20  1  0.68233311  0.44112331  0.84432974  1  0.077262  0  0.113907  0.073617  0  0.989255  0
H  H21  1  0.81767588  0.05887502  0.34432879  1  0.077365  0  0.113862  0.07354  0  0.989248  0
H  H22  1  0.31766648  0.55887677  0.15566814  1  0.077215  0  0.11392  0.07362  0  0.989277  0
H  H23  1  0.18232404  0.94112884  0.65567170  1  0.077416  0  0.113849  0.07352  0  0.989148  0
H  H24  1  0.53008321  0.58043295  0.84605750  1  0.113798  0  0.125329  0.110613  0  0.971547  0
H  H25  1  0.96992832  0.91956398  0.34605591  1  0.113613  0  0.12532  0.11058  0  0.971546  0
H  H26  1  0.46992243  0.41956329  0.15394136  1  0.113746  0  0.125326  0.110616  0  0.971414  0
H  H27  1  0.03007294  0.08043703  0.65394327  1  0.113551  0  0.125286  0.110503  0  0.971563  0
H  H28  1  0.02461563  0.29608528  0.77582863  1  0.040925  0  0.113258  0.071004  0  1.003942  0
H  H29  1  0.47538549  0.20391597  0.27582570  1  0.040969  0  0.113282  0.071049  0  1.003937  0
H  H30  1  0.97537030  0.70392247  0.22417251  1  0.040961  0  0.113292  0.071046  0  1.003974  0
H  H31  1  0.52461554  0.79608221  0.72417381  1  0.04091  0  0.113282  0.071036  0  1.003965  0
H  H32  1  0.16480102  0.35898767  0.72902384  1  0.130587  0  0.119044  0.091586  0  1.038836  0
H  H33  1  0.33519690  0.14101752  0.22902136  1  0.130862  0  0.119049  0.091588  0  1.038912  0
H  H34  1  0.83518323  0.64101916  0.27097665  1  0.13057  0  0.119088  0.091626  0  1.038877  0
H  H35  1  0.66479800  0.85898354  0.77097815  1  0.130909  0  0.119045  0.091578  0  1.038947  0
H  H36  1  0.35072072  0.55712360  0.73308346  1  0.094936  0  0.120201  0.09587  0  0.973344  0
H  H37  1  0.14927658  0.94288018  0.23308104  1  0.094812  0  0.12018  0.095824  0  0.973303  0
H  H38  1  0.64927148  0.44288316  0.26691670  1  0.094949  0  0.120202  0.095884  0  0.973296  0
H  H39  1  0.85071658  0.05711901  0.76691815  1  0.094882  0  0.120191  0.095844  0  0.973357  0
H  H40  1  0.34653849  0.64897512  0.78298307  1  0.115058  0  0.118412  0.09402  0  1.022038  0
H  H41  1  0.15346392  0.85102841  0.28298058  1  0.115163  0  0.11842  0.093999  0  1.022102  0
H  H42  1  0.65345992  0.35102969  0.21701742  1  0.115109  0  0.118394  0.093934  0  1.022179  0
H  H43  1  0.84652923  0.14897078  0.71701893  1  0.115118  0  0.118473  0.094033  0  1.022142  0
H  H44  1  0.55096607  0.37227909  0.72969972  1  0.082062  0  0.119893  0.094859  0  1.0182  0
H  H45  1  0.94903149  0.12772574  0.22969765  1  0.081977  0  0.119905  0.09486  0  1.018181  0
H  H46  1  0.44901961  0.62772583  0.27030012  1  0.082117  0  0.119855  0.09474  0  1.018142  0
H  H47  1  0.05096524  0.87227814  0.77030186  1  0.082027  0  0.119904  0.094884  0  1.018123  0
H  H48  1  0.68942945  0.31814541  0.77688514  1  0.051131  0  0.111971  0.066621  0  1.011001  0
H  H49  1  0.81057138  0.18185642  0.27688352  1  0.05111  0  0.112002  0.066688  0  1.010997  0
H  H50  1  0.31056553  0.68185659  0.22311274  1  0.051273  0  0.111984  0.066688  0  1.01088  0
H  H51  1  0.18942535  0.81814746  0.72311665  1  0.051153  0  0.111989  0.066649  0  1.011154  0
H  H52  1  0.93065686  0.55210509  0.59467757  1  0.052422  0  0.107985  0.135093  0  0.974856  0
H  H53  1  0.56933980  0.94788830  0.09467641  1  0.052334  0  0.108023  0.135211  0  0.974814  0
H  H54  1  0.06933637  0.44789504  0.40532325  1  0.052408  0  0.108026  0.13522  0  0.97499  0
H  H55  1  0.43067568  0.05209275  0.90532506  1  0.05234  0  0.107972  0.135189  0  0.974887  0
H  H56  1  0.95252532  0.39025250  0.58001134  1  0.071596  0  0.106754  0.128176  0  0.991555  0
H  H57  1  0.54746889  0.10974447  0.08000720  1  0.071441  0  0.106722  0.128199  0  0.991524  0
H  H58  1  0.04746783  0.60974669  0.41999046  1  0.071519  0  0.106715  0.128146  0  0.991598  0
H  H59  1  0.45254047  0.89023947  0.91999035  1  0.071451  0  0.10667  0.128074  0  0.991735  0
H  H60  1  0.55464269  0.35629421  0.59164882  1  0.036899  0  0.091705  0.061216  0  0.991407  0
H  H61  1  0.94535452  0.14369963  0.09164637  1  0.037005  0  0.09178  0.0613  0  0.991393  0
H  H62  1  0.44535658  0.64370209  0.40835233  1  0.036973  0  0.091743  0.061243  0  0.991454  0
H  H63  1  0.05464888  0.85628908  0.90835281  1  0.036979  0  0.091703  0.061206  0  0.991365  0
H  H64  1  0.54044805  0.51443961  0.60987697  1  0.039142  0  0.10462  0.087465  0  0.978093  0
H  H65  1  0.95954918  0.98555910  0.10987814  1  0.03909  0  0.104618  0.087473  0  0.978103  0
H  H66  1  0.45954327  0.48555676  0.39012320  1  0.039155  0  0.104616  0.087457  0  0.978061  0
H  H67  1  0.04047053  0.01443420  0.89012334  1  0.039328  0  0.104644  0.087489  0  0.97814  0
H  H68  1  0.33338273  0.60544551  0.56080656  1  0.016661  0  0.103828  0.082717  0  0.967233  0
H  H69  1  0.16662781  0.89456021  0.06080787  1  0.016603  0  0.103803  0.082703  0  0.967222  0
H  H70  1  0.66661360  0.39455365  0.43919459  1  0.016664  0  0.103791  0.082692  0  0.967186  0
H  H71  1  0.83339723  0.10543965  0.93919295  1  0.016621  0  0.103707  0.082532  0  0.967209  0
H  H72  1  0.26012874  0.45262658  0.53973513  1  0.036385  0  0.086505  0.048397  0  1.0044  0
H  H73  1  0.23987549  0.04737535  0.03973321  1  0.03633  0  0.086515  0.04842  0  1.004412  0
H  H74  1  0.73986592  0.54737166  0.46026667  1  0.036421  0  0.086531  0.048459  0  1.004372  0
H  H75  1  0.76013643  0.95261990  0.96026500  1  0.036387  0  0.086493  0.048432  0  1.004313  0
H  H76  1  0.55527751  0.31979796  0.51203626  1  0.018006  0  0.086896  0.04993  0  0.986178  0
H  H77  1  0.94472875  0.18019669  0.01203404  1  0.018067  0  0.08691  0.049946  0  0.986193  0
H  H78  1  0.44472829  0.68020018  0.48796456  1  0.01796  0  0.086882  0.0499  0  0.986114  0
H  H79  1  0.05528587  0.81979287  0.98796777  1  0.01806  0  0.086916  0.049914  0  0.986125  0
H  H80  1  0.82116857  0.38558027  0.51407187  1  0.005829  0  0.102644  0.082729  0  0.97841  0
H  H81  1  0.67883109  0.11441155  0.01406973  1  0.005876  0  0.10262  0.082703  0  0.978401  0
H  H82  1  0.17882442  0.61441703  0.48592895  1  0.005745  0  0.102593  0.082666  0  0.978429  0
H  H83  1  0.32118671  0.88557798  0.98593076  1  0.005638  0  0.102595  0.082645  0  0.978458  0
H  H84  1  0.03950502  0.75642183  0.83752479  1  0.60537  0  0.276453  0.363645  0  0.985954  0
H  H85  1  0.46049729  0.74357572  0.33752501  1  0.605306  0  0.27647  0.363719  0  0.985824  0
H  H86  1  0.96049275  0.24357543  0.16247374  1  0.605228  0  0.276422  0.363647  0  0.98593  0
H  H87  1  0.53949762  0.25642534  0.66247515  1  0.605328  0  0.276436  0.363626  0  0.985928  0
H  H88  1  0.80102100  0.79916694  0.83784857  1  0.637833  0  0.278975  0.379362  0  0.960236  0
H  H89  1  0.69898317  0.70083781  0.33784848  1  0.63787  0  0.278986  0.379357  0  0.960257  0
H  H90  1  0.19898034  0.20083501  0.16215095  1  0.637875  0  0.27897  0.379332  0  0.960294  0
H  H91  1  0.30101189  0.29916514  0.66215234  1  0.637855  0  0.279008  0.379392  0  0.960208  0
C  C92  1  0.35725606  0.28215287  0.82786417  1  0.570493  0  0.018211  0.010188  0  3.898883  0
C  C93  1  0.14274684  0.21784623  0.32786107  1  0.570084  0  0.018117  0.009977  0  3.899119  0
C  C94  1  0.64273105  0.71785015  0.17213567  1  0.570475  0  0.018269  0.010363  0  3.898838  0
C  C95  1  0.85725593  0.78215382  0.67213877  1  0.57003  0  0.018105  0.009965  0  3.899167  0
C  C96  1  0.15937261  0.46954333  0.83200188  1  0.558923  0  0.0195  0.009669  0  3.874243  0
C  C97  1  0.34063667  0.03045561  0.33199873  1  0.55879  0  0.019467  0.009569  0  3.874329  0
C  C98  1  0.84062930  0.53046523  0.16799862  1  0.558033  0  0.01944  0.009564  0  3.8743  0
C  C99  1  0.65936459  0.96954540  0.66800046  1  0.558381  0  0.019464  0.009629  0  3.874186  0
C  C100  1  0.53677219  0.48459739  0.83273203  1  0.542087  0  0.019921  0.012467  0  3.868189  0
C  C101  1  0.96323213  0.01540314  0.33273061  1  0.541941  0  0.020036  0.012717  0  3.867927  0
C  C102  1  0.46321994  0.51540843  0.16726683  1  0.54203  0  0.019997  0.01259  0  3.867989  0
C  C103  1  0.03676143  0.98460077  0.66726792  1  0.541911  0  0.020077  0.012826  0  3.867719  0
C  C104  1  0.16475696  0.35229487  0.76476162  1  0.519987  0  0.009228  -0.013071  0  3.872983  0
C  C105  1  0.33524115  0.14770949  0.26475879  1  0.519724  0  0.009225  -0.013127  0  3.873037  0
C  C106  1  0.83523541  0.64771377  0.23523887  1  0.5198  0  0.009204  -0.013297  0  3.873238  0
C  C107  1  0.66475359  0.85228968  0.73523941  1  0.519742  0  0.0092  -0.013183  0  3.873035  0
C  C108  1  0.35016052  0.55381084  0.76900336  1  0.472558  0  0.010965  -0.017173  0  3.851463  0
C  C109  1  0.14983705  0.94619305  0.26899994  1  0.472945  0  0.01097  -0.017211  0  3.851374  0
C  C110  1  0.64983153  0.44619403  0.23099681  1  0.472609  0  0.01098  -0.017268  0  3.851497  0
C  C111  1  0.85015173  0.05381090  0.73099695  1  0.472566  0  0.010892  -0.017315  0  3.851562  0
C  C112  1  0.54671889  0.36509948  0.76543946  1  0.566111  0  0.009373  -0.012562  0  3.890444  0
C  C113  1  0.95328196  0.13490357  0.26543901  1  0.566371  0  0.009268  -0.012788  0  3.890627  0
C  C114  1  0.45326496  0.63490263  0.23455809  1  0.566189  0  0.009356  -0.012628  0  3.890206  0
C  C115  1  0.04672416  0.86509835  0.73455985  1  0.566326  0  0.009295  -0.012791  0  3.890802  0
C  C116  1  0.86014289  0.45667259  0.59915902  1  -0.16348  0  -0.157546  -0.361705  0  3.919351  0
C  C117  1  0.63985150  0.04332488  0.09915739  1  -0.163271  0  -0.157579  -0.361933  0  3.919363  0
C  C118  1  0.13984994  0.54332282  0.40084278  1  -0.163522  0  -0.157573  -0.36188  0  3.91956  0
C  C119  1  0.36016470  0.95666467  0.90084375  1  -0.163488  0  -0.157421  -0.361651  0  3.919513  0
C  C120  1  0.62473813  0.45318615  0.58716181  1  0.337981  0  -0.070235  -0.031118  0  3.957884  0
C  C121  1  0.87526701  0.04680772  0.08716027  1  0.338064  0  -0.070359  -0.031298  0  3.958025  0
C  C122  1  0.37525955  0.54681016  0.41283999  1  0.338083  0  -0.070281  -0.031142  0  3.957993  0
C  C123  1  0.12475714  0.95318176  0.91283990  1  0.337925  0  -0.070312  -0.031196  0  3.957912  0
C  C124  1  0.37328637  0.53519062  0.53592235  1  0.314455  0  -0.067313  -0.071014  0  3.974808  0
C  C125  1  0.12672204  0.96481097  0.03592345  1  0.314504  0  -0.067257  -0.070968  0  3.97467  0
C  C126  1  0.62670320  0.46480387  0.46407945  1  0.314521  0  -0.06726  -0.070987  0  3.974834  0
C  C127  1  0.87330459  0.03518888  0.96407868  1  0.314595  0  -0.067154  -0.070757  0  3.97464  0
C  C128  1  0.65361746  0.40906512  0.50947213  1  0.326831  0  -0.069013  -0.071622  0  3.961777  0
C  C129  1  0.84639069  0.09093334  0.00947077  1  0.326837  0  -0.06894  -0.071587  0  3.961676  0
C  C130  1  0.34637378  0.59093030  0.49052902  1  0.327016  0  -0.068933  -0.071464  0  3.961494  0
C  C131  1  0.15363132  0.90906843  0.99052972  1  0.326961  0  -0.069  -0.071563  0  3.961854  0
S  S132  1  0.90315162  0.41520597  0.65514847  1  3.150069  0  0.49673  1.206246  0  6.154742  0
S  S133  1  0.59683894  0.08479781  0.15514605  1  3.150023  0  0.496733  1.206283  0  6.154825  0
S  S134  1  0.09683883  0.58479891  0.34485366  1  3.150082  0  0.496756  1.206246  0  6.154637  0
S  S135  1  0.40317680  0.91520497  0.84485378  1  3.149927  0  0.496579  1.205963  0  6.154924  0
N  N136  1  0.54598391  0.49350745  0.78410742  1  -0.999373  0  -0.354663  -0.159453  0  3.454692  0
N  N137  1  0.95402014  0.00649419  0.28410570  1  -0.999708  0  -0.35467  -0.159367  0  3.454596  0
N  N138  1  0.45401290  0.50649738  0.21589111  1  -1.000045  0  -0.354659  -0.159299  0  3.454645  0
N  N139  1  0.04597794  0.99350684  0.71589447  1  -0.999637  0  -0.354667  -0.159371  0  3.454538  0
N  N140  1  0.35066623  0.40828067  0.84709940  1  -1.008552  0  -0.354248  -0.211292  0  3.418618  0
N  N141  1  0.14934456  0.09171603  0.34709732  1  -1.008452  0  -0.354222  -0.211277  0  3.418595  0
N  N142  1  0.64933853  0.59172409  0.15289913  1  -1.008139  0  -0.354277  -0.211495  0  3.418575  0
N  N143  1  0.85066148  0.90828494  0.65290219  1  -1.008497  0  -0.354199  -0.21126  0  3.41853  0
N  N144  1  0.35780694  0.28754529  0.77914017  1  -0.951652  0  -0.3546  -0.160479  0  3.463367  0
N  N145  1  0.14219737  0.21245586  0.27913839  1  -0.951775  0  -0.354493  -0.160326  0  3.463657  0
N  N146  1  0.64218670  0.71245956  0.22085935  1  -0.951372  0  -0.354592  -0.16036  0  3.463384  0
N  N147  1  0.85780715  0.78754607  0.72086145  1  -0.951772  0  -0.354515  -0.160241  0  3.463601  0
N  N148  1  0.15547676  0.48095764  0.78331351  1  -0.936194  0  -0.352071  -0.162321  0  3.446482  0
N  N149  1  0.34452614  0.01904532  0.28331039  1  -0.936107  0  -0.352062  -0.162119  0  3.446225  0
N  N150  1  0.84451703  0.51904910  0.21668764  1  -0.935921  0  -0.352076  -0.162018  0  3.4461  0
N  N151  1  0.65547186  0.98095478  0.71668944  1  -0.935739  0  -0.352025  -0.162092  0  3.44608  0
N  N152  1  0.59287606  0.49968446  0.54282850  1  -1.052839  0  -0.350794  -0.161114  0  3.487195  0
N  N153  1  0.90712733  0.00031139  0.04282710  1  -1.052967  0  -0.350772  -0.160953  0  3.487087  0
N  N154  1  0.40711852  0.50031283  0.45717330  1  -1.05298  0  -0.350767  -0.161049  0  3.487312  0
N  N155  1  0.09289038  0.99967720  0.95717306  1  -1.052862  0  -0.350755  -0.161084  0  3.487558  0
O  O156  1  0.77453532  0.50011720  0.68148696  1  -1.338386  0  -0.355891  -0.620674  0  2.264936  0
O  O157  1  0.72546245  0.99988174  0.18148440  1  -1.338185  0  -0.355894  -0.620677  0  2.264749  0
O  O158  1  0.22545743  0.49987726  0.31851517  1  -1.338187  0  -0.355966  -0.620708  0  2.264596  0
O  O159  1  0.27455027  0.00012295  0.81851740  1  -1.338021  0  -0.355861  -0.620596  0  2.264734  0
O  O160  1  0.83107982  0.28127686  0.65972380  1  -1.343828  0  -0.352154  -0.620803  0  2.193077  0
O  O161  1  0.66891538  0.21872488  0.15972137  1  -1.343861  0  -0.352142  -0.620811  0  2.193209  0
O  O162  1  0.16892136  0.71872321  0.34027735  1  -1.343901  0  -0.352132  -0.6208  0  2.193245  0
O  O163  1  0.33109344  0.78127134  0.84027684  1  -1.343707  0  -0.352155  -0.6208  0  2.193001  0
O  O164  1  0.13469400  0.43440403  0.66216617  1  -1.351979  0  -0.355239  -0.622713  0  2.18295  0
O  O165  1  0.36530801  0.06559888  0.16216555  1  -1.352042  0  -0.355217  -0.62266  0  2.183104  0
O  O166  1  0.86530799  0.56560548  0.33783399  1  -1.352  0  -0.355206  -0.622646  0  2.183069  0
O  O167  1  0.63470358  0.93439259  0.83783330  1  -1.35217  0  -0.35512  -0.622518  0  2.183355  0
O  O168  1  0.89065117  0.72516271  0.83410597  1  -1.257084  0  -0.612554  -0.782183  0  2.013119  0
O  O169  1  0.60936204  0.77483638  0.33410466  1  -1.256998  0  -0.612585  -0.782252  0  2.013045  0
O  O170  1  0.10935764  0.27483351  0.16589485  1  -1.256924  0  -0.612527  -0.782183  0  2.013149  0
O  O171  1  0.39063294  0.22516563  0.66589485  1  -1.256984  0  -0.612577  -0.782179  0  2.013139  0
