# generated using pymatgen
data_H9PbC9NO5
_symmetry_space_group_name_H-M   'P 1'
_cell_length_a   7.31570404
_cell_length_b   8.88826212
_cell_length_c   9.28794209
_cell_angle_alpha   76.97447937
_cell_angle_beta   66.28408067
_cell_angle_gamma   78.24547902
_symmetry_Int_Tables_number   1
_chemical_formula_structural   H9PbC9NO5
_chemical_formula_sum   'H18 Pb2 C18 N2 O10'
_cell_volume   534.36344496
_cell_formula_units_Z   2
loop_
 _symmetry_equiv_pos_site_id
 _symmetry_equiv_pos_as_xyz
  1  'x, y, z'
loop_
 _atom_site_type_symbol
 _atom_site_label
 _atom_site_symmetry_multiplicity
 _atom_site_fract_x
 _atom_site_fract_y
 _atom_site_fract_z
 _atom_site_occupancy
 _atom_site_hle17_bader_spin_density
 _atom_site_hle17_ddec_charge
 _atom_site_hle17_ddec_spin_density
 _atom_site_hle17_ddec_sum_bond_order
 _atom_site_hle17_magmom
 _atom_site_hse06_10hf_bader_spin_density
 _atom_site_hse06_10hf_ddec_charge
 _atom_site_hse06_10hf_ddec_spin_density
 _atom_site_hse06_10hf_ddec_sum_bond_order
 _atom_site_hse06_10hf_magmom
 _atom_site_hse06_bader_spin_density
 _atom_site_hse06_ddec_charge
 _atom_site_hse06_ddec_spin_density
 _atom_site_hse06_ddec_sum_bond_order
 _atom_site_hse06_magmom
 _atom_site_pbe_bader_spin_density
 _atom_site_pbe_cm5_charge
 _atom_site_pbe_ddec_charge
 _atom_site_pbe_ddec_spin_density
 _atom_site_pbe_ddec_sum_bond_order
 _atom_site_pbe_magmom
H  H0  1  0.91154807  0.65631526  0.71330474  1  0  0.422348  0  0.888808  0  0  0.387743  0  0.959202  0  0  0.399033  0  0.943135  0  0  0.289242  0.379795  0  0.970498  0
H  H1  1  0.08846503  0.34367751  0.28669686  1  0  0.422364  0  0.888803  0  0  0.387826  0  0.959127  0  0  0.399122  0  0.94305  0  0  0.289264  0.379876  0  0.970428  0
H  H2  1  0.69434733  0.66337387  0.85579240  1  0  0.423962  0  0.819814  0  0  0.408485  0  0.871162  0  0  0.416191  0  0.862967  0  0  0.32286  0.402817  0  0.877413  0
H  H3  1  0.30566019  0.33662465  0.14420983  1  0  0.423983  0  0.819801  0  0  0.408525  0  0.871095  0  0  0.416227  0  0.862909  0  0  0.322894  0.402865  0  0.877333  0
H  H4  1  0.08423794  0.58875473  0.09783612  1  0  0.090124  0  0.972134  0  0  0.096047  0  1.046816  0  0  0.099927  0  1.042683  0  0  0.104075  0.093478  0  1.048951  0
H  H5  1  0.91577161  0.41125666  0.90216280  1  0  0.090133  0  0.972142  0  0  0.096077  0  1.046786  0  0  0.099957  0  1.042655  0  0  0.104092  0.093512  0  1.048918  0
H  H6  1  0.58711552  0.10472337  0.24231877  1  0  0.130364  0  0.949156  0  0  0.150265  0  1.011338  0  0  0.152104  0  1.01075  0  0  0.095593  0.149005  0  1.011595  0
H  H7  1  0.41286991  0.89527361  0.75769200  1  0  0.130344  0  0.949135  0  0  0.150249  0  1.011315  0  0  0.152089  0  1.010722  0  0  0.095585  0.14899  0  1.011569  0
H  H8  1  0.49395703  0.92760177  0.35950446  1  0  0.125593  0  0.958962  0  0  0.143337  0  1.01988  0  0  0.146  0  1.018348  0  0  0.091518  0.141611  0  1.0206  0
H  H9  1  0.50603193  0.07239186  0.64049832  1  0  0.125572  0  0.959049  0  0  0.143319  0  1.019959  0  0  0.145976  0  1.018437  0  0  0.091531  0.141589  0  1.020683  0
H  H10  1  0.42832568  0.02004388  0.19146090  1  0  0.124601  0  0.97779  0  0  0.143163  0  1.044987  0  0  0.145254  0  1.043965  0  0  0.094413  0.141661  0  1.045771  0
H  H11  1  0.57166323  0.97995791  0.80854129  1  0  0.124633  0  0.977864  0  0  0.143195  0  1.045035  0  0  0.145285  0  1.044014  0  0  0.094433  0.141695  0  1.045811  0
H  H12  1  0.91115971  0.92778757  0.63315073  1  0  0.128153  0  0.951064  0  0  0.152782  0  1.006621  0  0  0.154418  0  1.006203  0  0  0.100998  0.152174  0  1.006073  0
H  H13  1  0.08883541  0.07220501  0.36684919  1  0  0.128176  0  0.951153  0  0  0.15282  0  1.006677  0  0  0.154459  0  1.006256  0  0  0.101002  0.152209  0  1.006138  0
H  H14  1  0.14582331  0.96293546  0.62074248  1  0  0.123527  0  0.937012  0  0  0.147377  0  0.991101  0  0  0.148941  0  0.990863  0  0  0.096093  0.146198  0  0.990893  0
H  H15  1  0.85417364  0.03706301  0.37925348  1  0  0.123554  0  0.937017  0  0  0.147385  0  0.991135  0  0  0.148953  0  0.990889  0  0  0.09607  0.146207  0  0.990921  0
H  H16  1  0.92778378  0.10118491  0.69046471  1  0  0.109881  0  0.977001  0  0  0.125409  0  1.050818  0  0  0.127425  0  1.050126  0  0  0.091322  0.124033  0  1.05092  0
H  H17  1  0.07221328  0.89881250  0.30952390  1  0  0.109798  0  0.977048  0  0  0.125402  0  1.05079  0  0  0.127418  0  1.050101  0  0  0.091339  0.124032  0  1.050883  0
Pb  Pb18  1  0.67047259  0.45232749  0.63542902  1  0  1.392958  0  1.335765  0  0  1.218868  0  1.713239  0  0  1.277132  0  1.669632  0  0  0.678813  1.176565  0  1.74347  0
Pb  Pb19  1  0.32952742  0.54767096  0.36457134  1  0  1.39295  0  1.335665  0  0  1.21888  0  1.713131  0  0  1.277143  0  1.669526  0  0  0.678852  1.176581  0  1.743374  0
C  C20  1  0.78304952  0.68709138  0.34596846  1  0  0.685124  0  3.873246  0  0  0.631854  0  4.159719  0  0  0.668554  0  4.15224  0  0  0.222601  0.606951  0  4.163879  0
C  C21  1  0.21694827  0.31291060  0.65402759  1  0  0.684904  0  3.873656  0  0  0.631609  0  4.160183  0  0  0.668296  0  4.152712  0  0  0.222565  0.60672  0  4.164346  0
C  C22  1  0.83409827  0.76668104  0.17753922  1  0  -0.179526  0  3.72532  0  0  -0.158961  0  3.961902  0  0  -0.172779  0  3.984291  0  0  -0.01987  -0.150451  0  3.947052  0
C  C23  1  0.16590926  0.23331748  0.82246301  1  0  -0.179366  0  3.725181  0  0  -0.158893  0  3.961837  0  0  -0.172654  0  3.984161  0  0  -0.019846  -0.150419  0  3.947036  0
C  C24  1  0.72655375  0.90454868  0.12709771  1  0  0.311411  0  3.711138  0  0  0.312106  0  3.963188  0  0  0.323255  0  3.981241  0  0  0.127448  0.305015  0  3.950619  0
C  C25  1  0.27343473  0.09545542  0.87290522  1  0  0.311447  0  3.711387  0  0  0.312232  0  3.963339  0  0  0.323362  0  3.981383  0  0  0.127396  0.305151  0  3.950783  0
C  C26  1  0.93612709  0.89656486  0.86035048  1  0  0.305281  0  3.726909  0  0  0.30473  0  3.980822  0  0  0.316165  0  3.99836  0  0  0.12657  0.297427  0  3.968855  0
C  C27  1  0.06386904  0.10343821  0.13964911  1  0  0.305446  0  3.7266  0  0  0.304852  0  3.980577  0  0  0.316287  0  3.998112  0  0  0.126623  0.297547  0  3.968615  0
C  C28  1  0.04472686  0.75378545  0.90132344  1  0  -0.192087  0  3.73219  0  0  -0.172063  0  3.972095  0  0  -0.18551  0  3.993771  0  0  -0.025554  -0.163953  0  3.958219  0
C  C29  1  0.95527480  0.24622004  0.09867494  1  0  -0.192019  0  3.732198  0  0  -0.171942  0  3.972087  0  0  -0.185389  0  3.993768  0  0  -0.025446  -0.163825  0  3.958206  0
C  C30  1  0.99742434  0.69487961  0.06218773  1  0  -0.013399  0  3.72897  0  0  -0.055385  0  3.987836  0  0  -0.048062  0  4.00366  0  0  -0.067586  -0.059596  0  3.976401  0
C  C31  1  0.00257334  0.30513156  0.93781724  1  0  -0.013552  0  3.728963  0  0  -0.05553  0  3.987817  0  0  -0.048228  0  4.003632  0  0  -0.067655  -0.059734  0  3.976385  0
C  C32  1  0.54890953  0.99270289  0.23852039  1  0  -0.385076  0  3.690526  0  0  -0.468389  0  3.927975  0  0  -0.471782  0  3.933186  0  0  -0.247237  -0.46581  0  3.923862  0
C  C33  1  0.45108299  0.00729548  0.76147918  1  0  -0.385129  0  3.690585  0  0  -0.468455  0  3.92804  0  0  -0.471847  0  3.933255  0  0  -0.24727  -0.465875  0  3.923921  0
C  C34  1  0.98393477  0.97716316  0.69160053  1  0  -0.380247  0  3.714078  0  0  -0.46727  0  3.955198  0  0  -0.470644  0  3.961996  0  0  -0.245239  -0.464682  0  3.949299  0
C  C35  1  0.01605832  0.02283992  0.30839574  1  0  -0.380248  0  3.714238  0  0  -0.467309  0  3.955325  0  0  -0.470686  0  3.962119  0  0  -0.245236  -0.464721  0  3.949423  0
C  C36  1  0.19951504  0.65994080  0.77978917  1  0  0.684929  0  3.883419  0  0  0.630038  0  4.183255  0  0  0.665857  0  4.175054  0  0  0.216402  0.605626  0  4.188656  0
C  C37  1  0.80048757  0.34006712  0.22020194  1  0  0.685094  0  3.882978  0  0  0.630098  0  4.182961  0  0  0.665918  0  4.174759  0  0  0.21642  0.60569  0  4.18836  0
N  N38  1  0.78403284  0.96862872  0.97191067  1  0  -0.406888  0  2.997514  0  0  -0.375436  0  3.262578  0  0  -0.390514  0  3.276317  0  0  -0.31943  -0.365637  0  3.253061  0
N  N39  1  0.21596350  0.03137320  0.02808801  1  0  -0.40706  0  2.997388  0  0  -0.375611  0  3.262431  0  0  -0.390695  0  3.276186  0  0  -0.31951  -0.365806  0  3.252908  0
O  O40  1  0.92203202  0.63677260  0.39933452  1  0  -0.653422  0  1.997785  0  0  -0.581248  0  2.231689  0  0  -0.613107  0  2.226214  0  0  -0.283886  -0.559025  0  2.234538  0
O  O41  1  0.07796737  0.36322118  0.60066592  1  0  -0.653384  0  1.997947  0  0  -0.581172  0  2.231823  0  0  -0.613032  0  2.226356  0  0  -0.283935  -0.558951  0  2.234675  0
O  O42  1  0.59928473  0.66257908  0.43156221  1  0  -0.689398  0  2.027644  0  0  -0.609032  0  2.265584  0  0  -0.642545  0  2.258253  0  0  -0.285324  -0.585091  0  2.269722  0
O  O43  1  0.40071380  0.33741124  0.56843601  1  0  -0.689231  0  2.027789  0  0  -0.608891  0  2.265793  0  0  -0.642378  0  2.258409  0  0  -0.285227  -0.584935  0  2.269902  0
O  O44  1  0.15901174  0.65339210  0.66014375  1  0  -0.663022  0  2.013734  0  0  -0.592766  0  2.241497  0  0  -0.622036  0  2.234697  0  0  -0.298099  -0.572787  0  2.2458  0
O  O45  1  0.84099713  0.34660753  0.33986319  1  0  -0.663289  0  2.013444  0  0  -0.592954  0  2.241181  0  0  -0.622236  0  2.234384  0  0  -0.298129  -0.572974  0  2.245485  0
O  O46  1  0.35382174  0.58965830  0.80924311  1  0  -0.664136  0  1.959659  0  0  -0.599393  0  2.201273  0  0  -0.629338  0  2.192071  0  0  -0.311064  -0.578915  0  2.207255  0
O  O47  1  0.64619039  0.41035542  0.19075773  1  0  -0.664106  0  1.959623  0  0  -0.599356  0  2.201314  0  0  -0.629297  0  2.19211  0  0  -0.31108  -0.578884  0  2.2073  0
O  O48  1  0.76383871  0.65082515  0.74455489  1  0  -0.831021  0  1.869969  0  0  -0.772254  0  2.057826  0  0  -0.79394  0  2.03146  0  0  -0.554664  -0.756419  0  2.075906  0
O  O49  1  0.23616953  0.34916172  0.25544842  1  0  -0.831048  0  1.869973  0  0  -0.772364  0  2.057681  0  0  -0.794051  0  2.03131  0  0  -0.554725  -0.756532  0  2.075762  0
