# generated using pymatgen
data_Zn2H10C37S6(O13F3)2
_symmetry_space_group_name_H-M   'P 1'
_cell_length_a   16.26833658
_cell_length_b   16.41657611
_cell_length_c   28.76042239
_cell_angle_alpha   89.58073015
_cell_angle_beta   89.81660538
_cell_angle_gamma   90.17253531
_symmetry_Int_Tables_number   1
_chemical_formula_structural   Zn2H10C37S6(O13F3)2
_chemical_formula_sum   'Zn4 H20 C74 S12 O52 F12'
_cell_volume   7680.77673197
_cell_formula_units_Z   2
loop_
 _symmetry_equiv_pos_site_id
 _symmetry_equiv_pos_as_xyz
  1  'x, y, z'
loop_
 _atom_site_type_symbol
 _atom_site_label
 _atom_site_symmetry_multiplicity
 _atom_site_fract_x
 _atom_site_fract_y
 _atom_site_fract_z
 _atom_site_occupancy
 _atom_site_pbe_bader_charge
 _atom_site_pbe_bader_spin_density
 _atom_site_pbe_cm5_charge
 _atom_site_pbe_ddec_charge
 _atom_site_pbe_ddec_spin_density
 _atom_site_pbe_ddec_sum_bond_order
 _atom_site_pbe_magmom
Zn  Zn0  1  0.49631385  0.08472480  0.49818123  1  1.317274  0  0.739906  0.978924  0  2.08959  0
Zn  Zn1  1  0.49990525  0.91754574  0.50080038  1  1.317907  0  0.737665  0.974556  0  2.120759  0
Zn  Zn2  1  0.91270100  0.50587460  0.00010074  1  1.308491  0  0.737465  0.970643  0  2.081766  0
Zn  Zn3  1  0.08143678  0.50552781  0.99972932  1  1.329139  0  0.747005  0.990046  0  2.095932  0
H  H4  1  0.94665158  0.39139054  0.86358074  1  0.160766  0  0.12295  0.13858  0  0.980875  0
H  H5  1  0.12730109  0.73056687  0.07403035  1  0.15926  0  0.12262  0.137406  0  0.986814  0
H  H6  1  0.73739685  0.87541168  0.57108260  1  0.117518  0  0.123992  0.15268  0  0.966994  0
H  H7  1  0.40124525  0.01936404  0.35280797  1  0.109078  0  0.124733  0.153863  0  0.958982  0
H  H8  1  0.28115208  0.14861230  0.57989326  1  0.164951  0  0.118705  0.137635  0  0.991372  0
H  H9  1  0.73334285  0.92947718  0.44160443  1  0.128086  0  0.114766  0.129485  0  1.003297  0
H  H10  1  0.73085300  0.08494460  0.69480267  1  0.111657  0  0.120488  0.13037  0  0.988361  0
H  H11  1  0.11537430  0.92844432  0.38672499  1  0.135749  0  0.116259  0.129906  0  1.008675  0
H  H12  1  0.60564738  0.18023039  0.69889412  1  0.635226  0  0.3588  0.40889  0  0.829439  0
H  H13  1  0.08237737  0.87620512  0.46225909  1  0.645015  0  0.351853  0.405497  0  0.837824  0
H  H14  1  0.91388322  0.41061770  0.76578469  1  0.638544  0  0.364936  0.415679  0  0.816931  0
H  H15  1  0.26025566  0.82287960  0.10849650  1  0.641089  0  0.362513  0.412079  0  0.822889  0
H  H16  1  0.21049639  0.78530435  0.80611605  1  0.660429  0  0.360722  0.41198  0  0.823362  0
H  H17  1  0.78198835  0.15458769  0.05772350  1  0.638316  0  0.344432  0.399329  0  0.85276  0
H  H18  1  0.24398526  0.17057015  0.90868339  1  0.663377  0  0.351086  0.417704  0  0.832422  0
H  H19  1  0.79860238  0.65391483  0.18478857  1  0.664126  0  0.342161  0.40796  0  0.859856  0
H  H20  1  0.20757048  0.28090332  0.62257203  1  0.644161  0  0.359136  0.406105  0  0.829946  0
H  H21  1  0.82053753  0.79362314  0.43109644  1  0.644302  0  0.361417  0.41022  0  0.824722  0
H  H22  1  0.15300828  0.10963247  0.95968620  1  0.655058  0  0.334245  0.394896  0  0.894878  0
H  H23  1  0.89066378  0.58700207  0.22454441  1  0.650133  0  0.332062  0.391852  0  0.903974  0
C  C24  1  0.38826039  0.96380434  0.43943296  1  1.601112  0  0.225648  0.610387  0  4.15619  0
C  C25  1  0.60686667  0.97183081  0.56231254  1  1.570491  0  0.222044  0.601492  0  4.15287  0
C  C26  1  0.02608364  0.67202527  0.86338693  1  0.518829  0  0.116659  0.287958  0  4.0446  0
C  C27  1  0.90225925  0.26705535  0.09614237  1  0.444352  0  0.117336  0.28525  0  4.023069  0
C  C28  1  0.92495713  0.80627895  0.86782655  1  0.548524  0  0.103189  0.124127  0  4.033724  0
C  C29  1  0.03754849  0.24878654  0.15224169  1  0.598345  0  0.105478  0.122283  0  4.031376  0
C  C30  1  0.91671840  0.74385248  0.90053845  1  0.576938  0  0.113462  0.199346  0  4.074682  0
C  C31  1  0.03304802  0.31470334  0.12169326  1  0.536182  0  0.121001  0.215389  0  4.033915  0
C  C32  1  0.07891671  0.19556061  0.87409547  1  -0.135887  0  0.002858  -0.134422  0  3.830641  0
C  C33  1  0.95935379  0.73085684  0.17078764  1  -0.129069  0  0.004255  -0.130929  0  3.827196  0
C  C34  1  0.07876524  0.25256413  0.91041113  1  -0.072651  0  -0.000222  -0.109768  0  3.889013  0
C  C35  1  0.97050776  0.66199295  0.14281074  1  -0.087931  0  0.000404  -0.106981  0  3.893739  0
C  C36  1  0.80061936  0.92998268  0.62854843  1  0.493561  0  0.121814  0.266117  0  4.021204  0
C  C37  1  0.27904229  0.00315551  0.32687538  1  0.484091  0  0.120508  0.266668  0  4.031398  0
C  C38  1  0.73585383  0.92207397  0.59776214  1  0.064609  0  -0.081688  -0.214317  0  3.955521  0
C  C39  1  0.33960246  0.99675796  0.36037718  1  0.091009  0  -0.084066  -0.220533  0  3.952831  0
C  C40  1  0.20930653  0.09371965  0.63492603  1  -0.16235  0  -0.008384  -0.12587  0  3.941779  0
C  C41  1  0.80720732  0.96348469  0.38230956  1  -0.174991  0  -0.009335  -0.122212  0  3.937419  0
C  C42  1  0.27301031  0.09631167  0.60284538  1  0.049828  0  -0.071178  -0.089308  0  3.961035  0
C  C43  1  0.74108505  0.97112124  0.41239072  1  0.056136  0  -0.077899  -0.097838  0  3.990121  0
C  C44  1  0.99831293  0.00809699  0.75057847  1  0.308388  0  0.079307  0.294643  0  4.113332  0
C  C45  1  0.00230631  0.00175323  0.24750041  1  0.340947  0  0.080645  0.29413  0  4.113733  0
C  C46  1  0.39157836  0.03291787  0.56136232  1  1.561916  0  0.229415  0.637458  0  4.116025  0
C  C47  1  0.61075532  0.03365825  0.43901849  1  1.586634  0  0.224126  0.624776  0  4.13772  0
C  C48  1  0.80133213  0.98978906  0.66322623  1  0.115873  0  0.006466  0.046175  0  4.107882  0
C  C49  1  0.19753407  0.97879987  0.33545938  1  0.152503  0  0.00241  0.037921  0  4.10856  0
C  C50  1  0.66930284  0.97544526  0.60030079  1  -0.011887  0  0.005331  0.015698  0  3.923512  0
C  C51  1  0.32055569  0.96340397  0.40402932  1  -0.022739  0  0.007952  0.024191  0  3.917077  0
C  C52  1  0.19752401  0.02475440  0.66422502  1  0.171798  0  0.010908  0.051931  0  4.112264  0
C  C53  1  0.81615184  0.01595955  0.34313675  1  0.181928  0  0.012473  0.056865  0  4.099878  0
C  C54  1  0.32748252  0.03075182  0.59827304  1  0.096166  0  -0.005716  -0.091371  0  3.936531  0
C  C55  1  0.68220160  0.03252505  0.40617873  1  0.064367  0  -0.012825  -0.102036  0  3.960501  0
C  C56  1  0.02355502  0.20410204  0.83610670  1  0.16955  0  0.030794  0.151281  0  4.039469  0
C  C57  1  0.01289012  0.79921163  0.16582235  1  0.157185  0  0.031263  0.15176  0  4.037641  0
C  C58  1  0.03283370  0.32479389  0.90542895  1  -0.027343  0  0.00815  0.005172  0  3.882877  0
C  C59  1  0.02775774  0.66480292  0.10582641  1  0.003495  0  0.007148  0.003286  0  3.895619  0
C  C60  1  0.98431090  0.80322619  0.83219789  1  0.179409  0  0.013978  0.082938  0  4.112685  0
C  C61  1  0.97503390  0.18975663  0.15505994  1  0.155088  0  0.018177  0.088196  0  4.103742  0
C  C62  1  0.96854024  0.67609100  0.89972306  1  0.086383  0  -0.025233  -0.230649  0  3.969442  0
C  C63  1  0.96459548  0.32587189  0.09260016  1  0.177143  0  -0.016763  -0.211209  0  3.935384  0
C  C64  1  0.92574070  0.00624811  0.72012211  1  -0.062008  0  -0.01393  -0.080495  0  3.910522  0
C  C65  1  0.07772160  0.99897456  0.27571812  1  -0.056681  0  -0.020585  -0.095359  0  3.916535  0
C  C66  1  0.00152211  0.08152229  0.77970387  1  0.263329  0  0.01399  -0.005905  0  3.819652  0
C  C67  1  0.00077799  0.92831990  0.21838586  1  0.149145  0  0.019879  0.01237  0  3.804193  0
C  C68  1  0.73233039  0.04092134  0.66677300  1  0.071741  0  -0.063623  -0.101364  0  3.925177  0
C  C69  1  0.17894260  0.94541942  0.37947508  1  0.012579  0  -0.062853  -0.096825  0  3.907399  0
C  C70  1  0.07278752  0.00919789  0.72140483  1  -0.011691  0  -0.006908  -0.056385  0  3.866268  0
C  C71  1  0.93220070  0.00376489  0.28012811  1  0.025982  0  0.001683  -0.038733  0  3.860403  0
C  C72  1  0.99497281  0.93495990  0.78058258  1  -0.318827  0  -0.001444  -0.042971  0  3.861361  0
C  C73  1  0.99787383  0.07290941  0.21614499  1  -0.341705  0  -0.00543  -0.057645  0  3.866116  0
C  C74  1  0.86832838  0.99798712  0.69383444  1  -0.13175  0  -0.02251  -0.051738  0  4.109085  0
C  C75  1  0.13488364  0.98957383  0.30210952  1  -0.149027  0  -0.02106  -0.040838  0  4.102245  0
C  C76  1  0.99143204  0.87205059  0.80279017  1  0.178813  0  -0.032102  -0.062048  0  4.112844  0
C  C77  1  0.98499351  0.12551808  0.18736242  1  0.195798  0  -0.022423  -0.048219  0  4.103916  0
C  C78  1  0.01308514  0.14024478  0.80413025  1  -0.381282  0  -0.032855  -0.098479  0  4.112908  0
C  C79  1  0.00494813  0.86859234  0.19402404  1  -0.282144  0  -0.032968  -0.105701  0  4.111138  0
C  C80  1  0.13148486  0.01729047  0.69577652  1  -0.141207  0  -0.020868  -0.046822  0  4.103452  0
C  C81  1  0.87938297  0.00860773  0.30977651  1  -0.197454  0  -0.029478  -0.07103  0  4.112094  0
C  C82  1  0.96727517  0.61327724  0.93768990  1  1.61447  0  0.226164  0.64682  0  4.132851  0
C  C83  1  0.96176827  0.39469257  0.05864667  1  1.619973  0  0.226019  0.648839  0  4.122573  0
C  C84  1  0.03230467  0.39433224  0.93952939  1  1.620827  0  0.222242  0.602402  0  4.166554  0
C  C85  1  0.02776218  0.60563153  0.06608160  1  1.613902  0  0.224429  0.607845  0  4.160216  0
C  C86  1  0.66736290  0.03437644  0.63581033  1  -0.114912  0  -0.008705  -0.11036  0  3.932124  0
C  C87  1  0.23961509  0.93734124  0.41320546  1  -0.139658  0  -0.012862  -0.123763  0  3.955271  0
C  C88  1  0.25386953  0.96087455  0.66017123  1  0.569178  0  0.111116  0.142334  0  4.022427  0
C  C89  1  0.75729124  0.07773920  0.33776316  1  0.560318  0  0.113882  0.146619  0  4.01513  0
C  C90  1  0.31771506  0.96307040  0.62771249  1  0.550403  0  0.119908  0.195905  0  4.019236  0
C  C91  1  0.69183134  0.08665614  0.36891952  1  0.546338  0  0.112748  0.175638  0  4.05835  0
C  C92  1  0.97638465  0.27594908  0.83297000  1  -0.133563  0  0.006295  -0.098114  0  3.874036  0
C  C93  1  0.07640309  0.79555706  0.13224741  1  -0.125508  0  0.005294  -0.100195  0  3.878288  0
C  C94  1  0.98275046  0.33589570  0.86645209  1  0.03941  0  -0.061919  -0.080848  0  3.922999  0
C  C95  1  0.08163879  0.73075521  0.10173513  1  0.029891  0  -0.064851  -0.089367  0  3.939682  0
C  C96  1  0.03412801  0.73253201  0.82927613  1  -0.062607  0  -0.025579  -0.263695  0  3.925273  0
C  C97  1  0.90590785  0.19951095  0.12568949  1  -0.013916  0  -0.021075  -0.251596  0  3.919429  0
S  S98  1  0.57949019  0.09867191  0.64359878  1  3.058183  0  0.542567  1.167214  0  5.964673  0
S  S99  1  0.21281510  0.89579992  0.46889372  1  3.033855  0  0.541264  1.162118  0  6.003578  0
S  S100  1  0.90476620  0.28589917  0.78585070  1  3.088954  0  0.545347  1.145936  0  6.014487  0
S  S101  1  0.14785805  0.87877965  0.12858629  1  3.075204  0  0.545139  1.148264  0  6.011375  0
S  S102  1  0.10633330  0.71825390  0.78281965  1  3.093531  0  0.543138  1.17682  0  6.008999  0
S  S103  1  0.82091168  0.12972585  0.12705558  1  3.116379  0  0.541125  1.174401  0  6.02169  0
S  S104  1  0.14942749  0.11071764  0.86568374  1  3.060908  0  0.545162  1.137774  0  5.991655  0
S  S105  1  0.87729073  0.75106227  0.21264885  1  3.094286  0  0.546231  1.129996  0  5.997572  0
S  S106  1  0.13779124  0.17531382  0.64045990  1  3.061628  0  0.54118  1.161164  0  6.00545  0
S  S107  1  0.88140952  0.88477580  0.39058480  1  3.051218  0  0.54455  1.15674  0  5.999626  0
S  S108  1  0.12616972  0.23516757  0.96678137  1  3.116824  0  0.546021  1.150084  0  6.015006  0
S  S109  1  0.92187423  0.56436660  0.15416973  1  3.103677  0  0.548697  1.153663  0  5.994386  0
O  O110  1  0.41540321  0.03357728  0.44983979  1  -1.163493  0  -0.304695  -0.560747  0  2.311243  0
O  O111  1  0.58571994  0.90103846  0.54752497  1  -1.122814  0  -0.312723  -0.519849  0  2.219023  0
O  O112  1  0.42122481  0.96563900  0.54852553  1  -1.15858  0  -0.303182  -0.564147  0  2.404878  0
O  O113  1  0.58126335  0.10276962  0.45113564  1  -1.109711  0  -0.307254  -0.5135  0  2.234649  0
O  O114  1  0.41151964  0.10321513  0.54429806  1  -1.115216  0  -0.310948  -0.523943  0  2.223974  0
O  O115  1  0.58618499  0.96423615  0.45290675  1  -1.16732  0  -0.309844  -0.570456  0  2.314848  0
O  O116  1  0.41539866  0.89530163  0.45459691  1  -1.114446  0  -0.306179  -0.515028  0  2.236521  0
O  O117  1  0.58284121  0.03960129  0.54630924  1  -1.162397  0  -0.298824  -0.561397  0  2.368932  0
O  O118  1  0.89683616  0.58624045  0.95101403  1  -1.108003  0  -0.306832  -0.5133  0  2.232489  0
O  O119  1  0.02993925  0.42330694  0.04512764  1  -1.163433  0  -0.301006  -0.561857  0  2.421103  0
O  O120  1  0.10201461  0.42385896  0.95191943  1  -1.119085  0  -0.306406  -0.517091  0  2.248015  0
O  O121  1  0.95811987  0.58970233  0.04884507  1  -1.163442  0  -0.303349  -0.56148  0  2.327927  0
O  O122  1  0.96225836  0.42097097  0.95071647  1  -1.164864  0  -0.303058  -0.557921  0  2.292957  0
O  O123  1  0.09793978  0.58252126  0.05059444  1  -1.129626  0  -0.308203  -0.515316  0  2.226016  0
O  O124  1  0.03642462  0.59272341  0.95382284  1  -1.158594  0  -0.30409  -0.563322  0  2.326368  0
O  O125  1  0.89099626  0.42010261  0.04489321  1  -1.105789  0  -0.309147  -0.517414  0  2.245017  0
O  O126  1  0.58750948  0.17311927  0.61719973  1  -1.280179  0  -0.319225  -0.536222  0  2.093521  0
O  O127  1  0.50763695  0.04803810  0.64136214  1  -1.283965  0  -0.296674  -0.506831  0  2.167917  0
O  O128  1  0.58940446  0.12276184  0.69795679  1  -1.174726  0  -0.360785  -0.535834  0  2.120806  0
O  O129  1  0.21850500  0.80842442  0.46733871  1  -1.240606  0  -0.319794  -0.534155  0  2.07988  0
O  O130  1  0.25429511  0.94264124  0.50362703  1  -1.289678  0  -0.298041  -0.502179  0  2.170889  0
O  O131  1  0.11741641  0.92048640  0.47355862  1  -1.186938  0  -0.354223  -0.522325  0  2.148094  0
O  O132  1  0.94651447  0.27365031  0.74242436  1  -1.266536  0  -0.294914  -0.509666  0  2.122326  0
O  O133  1  0.83211525  0.24154643  0.79871255  1  -1.268008  0  -0.300782  -0.496119  0  2.080874  0
O  O134  1  0.88106304  0.38130405  0.78920280  1  -1.192953  0  -0.354454  -0.529536  0  2.124076  0
O  O135  1  0.10771265  0.94599014  0.10646688  1  -1.260668  0  -0.289318  -0.48121  0  2.088638  0
O  O136  1  0.18954613  0.88568752  0.17239282  1  -1.274605  0  -0.302958  -0.523867  0  2.108752  0
O  O137  1  0.21329957  0.84431165  0.09105941  1  -1.188367  0  -0.355363  -0.529739  0  2.12559  0
O  O138  1  0.10200915  0.63484606  0.76912500  1  -1.264552  0  -0.304404  -0.502524  0  2.106714  0
O  O139  1  0.09890253  0.78409670  0.75007711  1  -1.264829  0  -0.292574  -0.515055  0  2.173553  0
O  O140  1  0.19281740  0.72843190  0.80974962  1  -1.200333  0  -0.357559  -0.527988  0  2.104046  0
O  O141  1  0.84608822  0.05504515  0.14829540  1  -1.278397  0  -0.28442  -0.479092  0  2.144279  0
O  O142  1  0.75023839  0.17425857  0.14265120  1  -1.273874  0  -0.314779  -0.527775  0  2.085589  0
O  O143  1  0.81005252  0.10867556  0.07279998  1  -1.182479  0  -0.360363  -0.526018  0  2.126319  0
O  O144  1  0.10928135  0.03465322  0.87510973  1  -1.267624  0  -0.29304  -0.489941  0  2.116971  0
O  O145  1  0.19135112  0.12817928  0.82287211  1  -1.249564  0  -0.282053  -0.47751  0  2.110096  0
O  O146  1  0.21588927  0.11716336  0.90740489  1  -1.215261  0  -0.350581  -0.545732  0  2.224833  0
O  O147  1  0.91195813  0.75644086  0.25806177  1  -1.25432  0  -0.276807  -0.460312  0  2.148426  0
O  O148  1  0.82857895  0.81380156  0.19166760  1  -1.25044  0  -0.281908  -0.47429  0  2.102375  0
O  O149  1  0.82153781  0.66925577  0.21549401  1  -1.21929  0  -0.349821  -0.539491  0  2.229169  0
O  O150  1  0.06079400  0.15005707  0.62127992  1  -1.266444  0  -0.301692  -0.497732  0  2.082122  0
O  O151  1  0.14399879  0.20843181  0.68655309  1  -1.283883  0  -0.31478  -0.53485  0  2.100181  0
O  O152  1  0.17534474  0.24203881  0.60441217  1  -1.191453  0  -0.35637  -0.527004  0  2.125984  0
O  O153  1  0.87233482  0.82536561  0.35451368  1  -1.260623  0  -0.30156  -0.517012  0  2.136957  0
O  O154  1  0.95969593  0.92100129  0.40096007  1  -1.286598  0  -0.299164  -0.514636  0  2.135936  0
O  O155  1  0.85046090  0.84349426  0.43899936  1  -1.191427  0  -0.359277  -0.532463  0  2.124949  0
O  O156  1  0.21320237  0.25136821  0.96222033  1  -1.289287  0  -0.312453  -0.537418  0  2.113234  0
O  O157  1  0.07660960  0.27528322  0.00066770  1  -1.276525  0  -0.280732  -0.475121  0  2.214126  0
O  O158  1  0.11039011  0.14104274  0.97651658  1  -1.200992  0  -0.349767  -0.505865  0  2.170907  0
O  O159  1  0.83551252  0.57069746  0.14266091  1  -1.286157  0  -0.309065  -0.535389  0  2.120584  0
O  O160  1  0.97242826  0.50246563  0.13449181  1  -1.282728  0  -0.276473  -0.481224  0  2.244874  0
O  O161  1  0.93308758  0.55336304  0.20871001  1  -1.193547  0  -0.350924  -0.507437  0  2.161243  0
F  F162  1  0.24611032  0.89485110  0.68794161  1  -0.615349  0  -0.083888  -0.103433  0  1.371473  0
F  F163  1  0.76291582  0.12946146  0.30143677  1  -0.608676  0  -0.075057  -0.092142  0  1.361394  0
F  F164  1  0.87575463  0.87168479  0.87132320  1  -0.611691  0  -0.07941  -0.095619  0  1.36704  0
F  F165  1  0.10401758  0.24195014  0.17970840  1  -0.61183  0  -0.079498  -0.09689  0  1.368492  0
F  F166  1  0.86515617  0.87879450  0.62499891  1  -0.616868  0  -0.087774  -0.127134  0  1.320071  0
F  F167  1  0.29826704  0.03579280  0.28493304  1  -0.619154  0  -0.089558  -0.129266  0  1.320384  0
F  F168  1  0.36822017  0.89872620  0.62679854  1  -0.608701  0  -0.075733  -0.087318  0  1.381479  0
F  F169  1  0.63734312  0.14632371  0.36053922  1  -0.608224  0  -0.078909  -0.095997  0  1.363032  0
F  F170  1  0.07505568  0.60611765  0.86165364  1  -0.616663  0  -0.076509  -0.097798  0  1.384978  0
F  F171  1  0.83551756  0.27445485  0.06823393  1  -0.624399  0  -0.075878  -0.119718  0  1.391978  0
F  F172  1  0.86034017  0.75213643  0.93438530  1  -0.609142  0  -0.075659  -0.090611  0  1.360583  0
F  F173  1  0.09604060  0.36725872  0.12183918  1  -0.595031  0  -0.069135  -0.07647  0  1.392841  0
