# generated using pymatgen
data_AgH12C12N3ClF
_symmetry_space_group_name_H-M   'P 1'
_cell_length_a   4.47042882
_cell_length_b   14.47698650
_cell_length_c   18.63310000
_cell_angle_alpha   90.00000000
_cell_angle_beta   90.00000000
_cell_angle_gamma   90.00000000
_symmetry_Int_Tables_number   1
_chemical_formula_structural   AgH12C12N3ClF
_chemical_formula_sum   'Ag4 H48 C48 N12 Cl4 F4'
_cell_volume   1205.90325778
_cell_formula_units_Z   4
loop_
 _symmetry_equiv_pos_site_id
 _symmetry_equiv_pos_as_xyz
  1  'x, y, z'
loop_
 _atom_site_type_symbol
 _atom_site_label
 _atom_site_symmetry_multiplicity
 _atom_site_fract_x
 _atom_site_fract_y
 _atom_site_fract_z
 _atom_site_occupancy
 _atom_site_pbe_bader_charge
 _atom_site_pbe_bader_spin_density
 _atom_site_pbe_cm5_charge
 _atom_site_pbe_ddec_charge
 _atom_site_pbe_ddec_spin_density
 _atom_site_pbe_ddec_sum_bond_order
 _atom_site_pbe_magmom
Ag  Ag0  1  0.80224742  0.31328550  0.56074298  1  0.460864  0  0.283709  0.258355  0  2.288652  0
Ag  Ag1  1  0.30224617  0.18671496  0.43925648  1  0.460878  0  0.283707  0.258362  0  2.288643  0
Ag  Ag2  1  0.19775284  0.81328528  0.93925648  1  0.460854  0  0.283717  0.25836  0  2.288656  0
Ag  Ag3  1  0.69775409  0.68671474  0.06074352  1  0.460876  0  0.283715  0.258367  0  2.288625  0
H  H4  1  0.34130059  0.36031256  0.70205656  1  0.118497  0  0.110066  0.07146  0  1.012211  0
H  H5  1  0.84130184  0.13968791  0.29794344  1  0.118496  0  0.110061  0.071466  0  1.012205  0
H  H6  1  0.65869967  0.86031233  0.79794344  1  0.118505  0  0.110067  0.071477  0  1.012187  0
H  H7  1  0.15869842  0.63968769  0.20205656  1  0.118497  0  0.110064  0.071477  0  1.012202  0
H  H8  1  0.09514971  0.39484391  0.84974588  1  0.06926  0  0.094135  0.099658  0  1.006194  0
H  H9  1  0.59515096  0.10515586  0.15025412  1  0.069375  0  0.094137  0.099686  0  1.006148  0
H  H10  1  0.90485056  0.89484438  0.65025412  1  0.069373  0  0.094143  0.099674  0  1.00616  0
H  H11  1  0.40484930  0.60515564  0.34974588  1  0.069376  0  0.094141  0.099705  0  1.006136  0
H  H12  1  0.44262868  0.43015513  0.81486870  1  0.045632  0  0.094503  0.10222  0  1.014164  0
H  H13  1  0.94262993  0.06984465  0.18513130  1  0.04563  0  0.094499  0.102214  0  1.014168  0
H  H14  1  0.55737159  0.93015491  0.68513076  1  0.045631  0  0.094502  0.102202  0  1.014167  0
H  H15  1  0.05737034  0.56984511  0.31486870  1  0.045624  0  0.094495  0.102214  0  1.01418  0
H  H16  1  0.94033932  0.55180890  0.83966329  1  0.124701  0  0.101088  0.129627  0  0.991281  0
H  H17  1  0.44034031  0.94819112  0.16033671  1  0.124702  0  0.10107  0.12959  0  0.991237  0
H  H18  1  0.05966094  0.05180912  0.66033671  1  0.124698  0  0.101068  0.129584  0  0.991251  0
H  H19  1  0.55965996  0.44819134  0.33966329  1  0.124699  0  0.101074  0.129593  0  0.991267  0
H  H20  1  0.24972325  0.57865496  0.78447494  1  0.087758  0  0.105425  0.122764  0  0.990368  0
H  H21  1  0.74972673  0.92134506  0.21552452  1  0.087742  0  0.105419  0.122734  0  0.990396  0
H  H22  1  0.75027702  0.07865449  0.71552452  1  0.087315  0  0.105422  0.122764  0  0.990381  0
H  H23  1  0.25027577  0.42134528  0.28447548  1  0.087758  0  0.105426  0.122758  0  0.990363  0
H  H24  1  0.93380975  0.24496811  0.69757582  1  0.095175  0  0.089031  0.072375  0  1.04374  0
H  H25  1  0.43381073  0.25503236  0.30242418  1  0.095171  0  0.089025  0.072345  0  1.043792  0
H  H26  1  0.06619052  0.74496788  0.80242418  1  0.09517  0  0.089027  0.072378  0  1.043742  0
H  H27  1  0.56619177  0.75503213  0.19757582  1  0.095171  0  0.089031  0.072374  0  1.043747  0
H  H28  1  0.15829801  0.23329026  0.77742297  1  0.107313  0  0.103319  0.091866  0  1.001326  0
H  H29  1  0.65829703  0.26671020  0.22257703  1  0.107303  0  0.103315  0.091847  0  1.001344  0
H  H30  1  0.84170225  0.73329004  0.72257703  1  0.107299  0  0.103315  0.091868  0  1.00133  0
H  H31  1  0.34170324  0.76670998  0.27742297  1  0.107309  0  0.103316  0.091862  0  1.001336  0
H  H32  1  0.41522415  0.41617225  0.51768734  1  0.08714  0  0.080657  0.087823  0  1.112927  0
H  H33  1  0.91522316  0.08382753  0.48231266  1  0.087153  0  0.080639  0.087811  0  1.11292  0
H  H34  1  0.58477388  0.91617202  0.98231320  1  0.087139  0  0.080657  0.087825  0  1.112928  0
H  H35  1  0.08477487  0.58382730  0.01768734  1  0.087157  0  0.08065  0.087811  0  1.112915  0
H  H36  1  0.04878503  0.47458357  0.43144726  1  0.063  0  0.093246  0.103603  0  1.018773  0
H  H37  1  0.54878628  0.02541620  0.56855274  1  0.062995  0  0.093242  0.10359  0  1.018794  0
H  H38  1  0.95121300  0.97458335  0.06855274  1  0.062998  0  0.093237  0.103601  0  1.018795  0
H  H39  1  0.45121398  0.52541667  0.93144726  1  0.063005  0  0.093225  0.103569  0  1.018834  0
H  H40  1  0.85156931  0.63654269  0.44173004  1  0.06901  0  0.096782  0.09624  0  1.01684  0
H  H41  1  0.35157030  0.86345732  0.55827050  1  0.068998  0  0.096779  0.096232  0  1.016854  0
H  H42  1  0.14843095  0.13654292  0.05826996  1  0.069018  0  0.096762  0.096228  0  1.016832  0
H  H43  1  0.64842773  0.36345755  0.94173004  1  0.069016  0  0.096764  0.096243  0  1.016834  0
H  H44  1  0.01746812  0.73502037  0.54364652  1  0.064605  0  0.097048  0.093224  0  1.024155  0
H  H45  1  0.51746937  0.76497965  0.45635294  1  0.064604  0  0.097052  0.093232  0  1.02414  0
H  H46  1  0.98253214  0.23501991  0.95635294  1  0.064605  0  0.097048  0.093231  0  1.024146  0
H  H47  1  0.48253313  0.26497987  0.04364706  1  0.064607  0  0.097054  0.093234  0  1.024134  0
H  H48  1  0.38514873  0.67497127  0.63202419  1  0.125597  0  0.098374  0.104074  0  1.073423  0
H  H49  1  0.88514551  0.82502874  0.36797581  1  0.125614  0  0.098375  0.104084  0  1.073458  0
H  H50  1  0.61485153  0.17497081  0.86797581  1  0.125583  0  0.098382  0.104093  0  1.073435  0
H  H51  1  0.11485475  0.32502828  0.13202473  1  0.12561  0  0.098389  0.104105  0  1.073412  0
C  C52  1  0.77705745  0.42626689  0.63322367  1  0.815768  0  0.070466  -0.119371  0  3.745673  0
C  C53  1  0.27705843  0.07373289  0.36677633  1  0.815684  0  0.070452  -0.119403  0  3.745745  0
C  C54  1  0.22294058  0.92626666  0.86677633  1  0.815678  0  0.070481  -0.119352  0  3.745682  0
C  C55  1  0.72294183  0.57373266  0.13322367  1  0.81569  0  0.070462  -0.119362  0  3.745757  0
C  C56  1  0.89004884  0.51697707  0.72746618  1  0.971205  0  0.236732  0.298543  0  3.979223  0
C  C57  1  0.39004983  0.98302226  0.27253436  1  0.971192  0  0.236731  0.298556  0  3.979227  0
C  C58  1  0.10995142  0.01697729  0.77253382  1  0.971214  0  0.236728  0.298516  0  3.979264  0
C  C59  1  0.60995043  0.48302249  0.22746618  1  0.97121  0  0.236722  0.298512  0  3.979306  0
C  C60  1  0.13916338  0.37191235  0.73453102  1  0.297952  0  0.015752  0.071391  0  3.811066  0
C  C61  1  0.63916240  0.12808743  0.26546898  1  0.297967  0  0.015724  0.071323  0  3.81112  0
C  C62  1  0.86083912  0.87191350  0.76546898  1  0.297969  0  0.015723  0.071318  0  3.81116  0
C  C63  1  0.36083787  0.62808790  0.23453102  1  0.297963  0  0.015729  0.071329  0  3.811106  0
C  C64  1  0.20260472  0.42864584  0.80388610  1  -0.034579  0  -0.155892  -0.196258  0  3.830884  0
C  C65  1  0.70260374  0.07135394  0.19611337  1  -0.034713  0  -0.15588  -0.196249  0  3.830829  0
C  C66  1  0.79739554  0.92864630  0.69611337  1  -0.034713  0  -0.155884  -0.196205  0  3.830821  0
C  C67  1  0.29739429  0.57135371  0.30388663  1  -0.034701  0  -0.155874  -0.196269  0  3.830813  0
C  C68  1  0.07201770  0.52741639  0.79362479  1  -0.013857  0  -0.146641  -0.237633  0  3.887528  0
C  C69  1  0.57202119  0.97258362  0.20637468  1  -0.013849  0  -0.146602  -0.237551  0  3.887455  0
C  C70  1  0.92798033  0.02741593  0.70637468  1  -0.013424  0  -0.146616  -0.237581  0  3.887484  0
C  C71  1  0.42798131  0.47258385  0.29362532  1  -0.013869  0  -0.146625  -0.23757  0  3.887499  0
C  C72  1  0.00209823  0.27799777  0.74806661  1  0.423389  0  -0.048494  0.018036  0  3.826181  0
C  C73  1  0.50209948  0.22200269  0.25193339  1  0.423415  0  -0.048483  0.018089  0  3.826229  0
C  C74  1  0.99790203  0.77799755  0.75193339  1  0.423403  0  -0.048497  0.017998  0  3.826231  0
C  C75  1  0.49790078  0.72200247  0.24806661  1  0.423411  0  -0.048493  0.018013  0  3.826213  0
C  C76  1  0.42562136  0.54260947  0.58004841  1  0.240275  0  0.090591  0.14666  0  3.984339  0
C  C77  1  0.92562261  0.95739124  0.41995105  1  0.240267  0  0.090627  0.146744  0  3.984204  0
C  C78  1  0.57437667  0.04260970  0.91995159  1  0.240258  0  0.090589  0.146658  0  3.984303  0
C  C79  1  0.07437989  0.45739077  0.08004895  1  0.2403  0  0.090624  0.146688  0  3.984256  0
C  C80  1  0.33127918  0.48643273  0.52334824  1  0.021477  0  -0.096856  -0.166272  0  3.997332  0
C  C81  1  0.83127819  0.01356636  0.47665176  1  0.021469  0  -0.096869  -0.166348  0  3.997336  0
C  C82  1  0.66871885  0.98643319  0.97665176  1  0.021486  0  -0.096861  -0.166273  0  3.997334  0
C  C83  1  0.16872207  0.51356613  0.02334824  1  0.021724  0  -0.09685  -0.166278  0  3.997359  0
C  C84  1  0.12565909  0.52060558  0.47390504  1  0.014271  0  -0.094042  -0.067645  0  4.007854  0
C  C85  1  0.62566034  0.97939582  0.52609496  1  0.014246  0  -0.094019  -0.067581  0  4.007812  0
C  C86  1  0.87434118  0.02060512  0.02609496  1  0.014276  0  -0.094076  -0.067689  0  4.007862  0
C  C87  1  0.37433769  0.47939535  0.97390558  1  0.014046  0  -0.094008  -0.067581  0  4.007827  0
C  C88  1  0.01350206  0.61019329  0.48037042  1  -0.106222  0  -0.097938  -0.100556  0  4.016028  0
C  C89  1  0.51350331  0.88980673  0.51962958  1  -0.106181  0  -0.097932  -0.100535  0  4.015977  0
C  C90  1  0.98649597  0.11019351  0.01962905  1  -0.106215  0  -0.097864  -0.100507  0  4.016003  0
C  C91  1  0.48649919  0.38980557  0.98037095  1  -0.106247  0  -0.097904  -0.100553  0  4.015946  0
C  C92  1  0.10716869  0.66543890  0.53748330  1  -0.060558  0  -0.093908  -0.068399  0  4.021063  0
C  C93  1  0.60716770  0.83456112  0.46251670  1  -0.060562  0  -0.093929  -0.068449  0  4.021095  0
C  C94  1  0.89283157  0.16543913  0.96251670  1  -0.060561  0  -0.093935  -0.06844  0  4.021125  0
C  C95  1  0.39283480  0.33456203  0.03748330  1  -0.060598  0  -0.093942  -0.068431  0  4.021178  0
C  C96  1  0.31303037  0.63225175  0.58737408  1  -0.008961  0  -0.097741  -0.171343  0  3.982645  0
C  C97  1  0.81302939  0.86774758  0.41262538  1  -0.008958  0  -0.097749  -0.171348  0  3.982592  0
C  C98  1  0.68696765  0.13225266  0.91262538  1  -0.008946  0  -0.097732  -0.171311  0  3.982573  0
C  C99  1  0.18697535  0.36774711  0.08737462  1  -0.008981  0  -0.097772  -0.171364  0  3.982594  0
N  N100  1  0.93630839  0.43323036  0.69509260  1  -1.233432  0  -0.24275  -0.057133  0  3.792846  0
N  N101  1  0.43630937  0.06676942  0.30490686  1  -1.233341  0  -0.242746  -0.057136  0  3.792925  0
N  N102  1  0.06368964  0.93323082  0.80490686  1  -1.233358  0  -0.242741  -0.057128  0  3.793018  0
N  N103  1  0.56368865  0.56676920  0.19509314  1  -1.233333  0  -0.242753  -0.057149  0  3.792963  0
N  N104  1  0.70162397  0.56686936  0.69026625  1  -0.718946  0  -0.217131  -0.301882  0  3.062984  0
N  N105  1  0.20162719  0.93313066  0.30973375  1  -0.718946  0  -0.217119  -0.301857  0  3.062986  0
N  N106  1  0.29837406  0.06686958  0.80973375  1  -0.718968  0  -0.217108  -0.30186  0  3.062956  0
N  N107  1  0.79837307  0.43313020  0.19026625  1  -0.718971  0  -0.217097  -0.301815  0  3.062992  0
N  N108  1  0.63398840  0.50948725  0.63201507  1  -0.847758  0  -0.118108  0.15249  0  3.720575  0
N  N109  1  0.13398715  0.99051277  0.36798439  1  -0.84777  0  -0.118107  0.152472  0  3.720556  0
N  N110  1  0.36601187  0.00948747  0.86798493  1  -0.847748  0  -0.118122  0.152474  0  3.720485  0
N  N111  1  0.86601088  0.49051230  0.13201507  1  -0.847759  0  -0.118132  0.152426  0  3.720645  0
Cl  Cl112  1  0.79796819  0.29734365  0.42241173  1  -0.632565  0  -0.324537  -0.459325  0  1.467253  0
Cl  Cl113  1  0.29796918  0.20265613  0.57758773  1  -0.63255  0  -0.32454  -0.459337  0  1.467252  0
Cl  Cl114  1  0.20203207  0.79734412  0.07758773  1  -0.632559  0  -0.324534  -0.459328  0  1.467251  0
Cl  Cl115  1  0.70203332  0.70265659  0.92241173  1  -0.632549  0  -0.324545  -0.459338  0  1.467253  0
F  F116  1  0.74034956  0.28835007  0.79092529  1  -0.646004  0  -0.126879  -0.174587  0  1.338584  0
F  F117  1  0.24035054  0.21164971  0.20907471  1  -0.646025  0  -0.12689  -0.174598  0  1.338617  0
F  F118  1  0.25965071  0.78835053  0.70907471  1  -0.646007  0  -0.126895  -0.174571  0  1.338602  0
F  F119  1  0.75964972  0.71164949  0.29092529  1  -0.646027  0  -0.126889  -0.174565  0  1.338589  0
