# generated using pymatgen
data_BaH10C8N2O7
_symmetry_space_group_name_H-M   'P 1'
_cell_length_a   4.59246255
_cell_length_b   7.05485144
_cell_length_c   17.94255825
_cell_angle_alpha   88.69642025
_cell_angle_beta   85.85062266
_cell_angle_gamma   70.80083100
_symmetry_Int_Tables_number   1
_chemical_formula_structural   BaH10C8N2O7
_chemical_formula_sum   'Ba2 H20 C16 N4 O14'
_cell_volume   547.55157236
_cell_formula_units_Z   2
loop_
 _symmetry_equiv_pos_site_id
 _symmetry_equiv_pos_as_xyz
  1  'x, y, z'
loop_
 _atom_site_type_symbol
 _atom_site_label
 _atom_site_symmetry_multiplicity
 _atom_site_fract_x
 _atom_site_fract_y
 _atom_site_fract_z
 _atom_site_occupancy
 _atom_site_hle17_bader_spin_density
 _atom_site_hle17_ddec_charge
 _atom_site_hle17_ddec_spin_density
 _atom_site_hle17_ddec_sum_bond_order
 _atom_site_hle17_magmom
 _atom_site_hse06_10hf_bader_spin_density
 _atom_site_hse06_10hf_ddec_charge
 _atom_site_hse06_10hf_ddec_spin_density
 _atom_site_hse06_10hf_ddec_sum_bond_order
 _atom_site_hse06_10hf_magmom
 _atom_site_hse06_bader_spin_density
 _atom_site_hse06_ddec_charge
 _atom_site_hse06_ddec_spin_density
 _atom_site_hse06_ddec_sum_bond_order
 _atom_site_hse06_magmom
 _atom_site_pbe_bader_spin_density
 _atom_site_pbe_cm5_charge
 _atom_site_pbe_ddec_charge
 _atom_site_pbe_ddec_spin_density
 _atom_site_pbe_ddec_sum_bond_order
 _atom_site_pbe_magmom
Ba  Ba0  1  0.42200789  0.15862766  0.25013590  1  0  1.650565  0  1.101998  0  0  1.499267  0  1.500276  0  0  1.541237  0  1.454964  0  0  0.924037  1.468392  0  1.532403  0
Ba  Ba1  1  0.57799427  0.84137118  0.74986377  1  0  1.650534  0  1.102047  0  0  1.499242  0  1.500312  0  0  1.541212  0  1.454997  0  0  0.924052  1.468375  0  1.532443  0
H  H2  1  0.84373714  0.85419000  0.45362067  1  0  0.087852  0  0.947704  0  0  0.101215  0  1.014989  0  0  0.102426  0  1.014004  0  0  0.112949  0.100272  0  1.015889  0
H  H3  1  0.28169386  0.86607187  0.04098203  1  0  0.0867  0  0.949781  0  0  0.10046  0  1.016455  0  0  0.101741  0  1.015452  0  0  0.112949  0.099433  0  1.017493  0
H  H4  1  0.15625167  0.14582236  0.54637967  1  0  0.087949  0  0.947662  0  0  0.101277  0  1.014962  0  0  0.10249  0  1.01397  0  0  0.11297  0.100332  0  1.015858  0
H  H5  1  0.71831862  0.13391946  0.95901752  1  0  0.086687  0  0.949715  0  0  0.100442  0  1.016434  0  0  0.101723  0  1.015431  0  0  0.112948  0.09942  0  1.017467  0
H  H6  1  0.89365655  0.66072694  0.38767227  1  0  0.129876  0  0.937401  0  0  0.139359  0  1.001903  0  0  0.143391  0  0.997876  0  0  0.129837  0.13639  0  1.004964  0
H  H7  1  0.45006847  0.67599193  0.10605789  1  0  0.128738  0  0.93987  0  0  0.138004  0  1.004654  0  0  0.142059  0  1.000715  0  0  0.127802  0.135058  0  1.00761  0
H  H8  1  0.10632863  0.33928392  0.61232871  1  0  0.129908  0  0.937402  0  0  0.139334  0  1.001936  0  0  0.143364  0  0.997915  0  0  0.129827  0.136365  0  1.004993  0
H  H9  1  0.54994629  0.32399489  0.89394110  1  0  0.128703  0  0.939924  0  0  0.138046  0  1.004645  0  0  0.142103  0  1.000703  0  0  0.127836  0.135103  0  1.007602  0
H  H10  1  0.16017977  0.76933199  0.56133474  1  0  0.126523  0  0.938814  0  0  0.136113  0  1.002498  0  0  0.139295  0  1.000736  0  0  0.128798  0.133799  0  1.00388  0
H  H11  1  0.07496776  0.76033441  0.93371179  1  0  0.126903  0  0.942726  0  0  0.136746  0  1.005534  0  0  0.139848  0  1.003884  0  0  0.129513  0.134454  0  1.006928  0
H  H12  1  0.83980978  0.23067886  0.43866615  1  0  0.126532  0  0.938943  0  0  0.13617  0  1.002584  0  0  0.139352  0  1.000821  0  0  0.128822  0.133852  0  1.00397  0
H  H13  1  0.92503221  0.23966443  0.06628847  1  0  0.126946  0  0.94279  0  0  0.136798  0  1.005555  0  0  0.139899  0  1.003903  0  0  0.129531  0.134498  0  1.006952  0
H  H14  1  0.41334964  0.83741847  0.49500442  1  0  0.095375  0  0.929443  0  0  0.108341  0  0.994254  0  0  0.110615  0  0.992025  0  0  0.11853  0.106584  0  0.99613  0
H  H15  1  0.74930987  0.83707627  0.99888951  1  0  0.094304  0  0.931065  0  0  0.106903  0  0.99637  0  0  0.109091  0  0.994164  0  0  0.117834  0.105153  0  0.998362  0
H  H16  1  0.58664363  0.16258938  0.50499533  1  0  0.095296  0  0.929475  0  0  0.108264  0  0.994314  0  0  0.11054  0  0.99208  0  0  0.118474  0.106507  0  0.996188  0
H  H17  1  0.25068588  0.16291358  0.00111146  1  0  0.094328  0  0.9311  0  0  0.106982  0  0.996319  0  0  0.109152  0  0.994137  0  0  0.117824  0.105223  0  0.998316  0
H  H18  1  0.65193485  0.56216698  0.28905582  1  0  0.423828  0  0.874976  0  0  0.396096  0  0.933885  0  0  0.406521  0  0.918563  0  0  0.300746  0.388674  0  0.944797  0
H  H19  1  0.78825138  0.55886725  0.20918742  1  0  0.424653  0  0.871269  0  0  0.397136  0  0.929891  0  0  0.407349  0  0.914857  0  0  0.302132  0.389859  0  0.940602  0
H  H20  1  0.34807032  0.43782585  0.71094441  1  0  0.423827  0  0.874981  0  0  0.396108  0  0.933863  0  0  0.40653  0  0.918546  0  0  0.30075  0.388689  0  0.944768  0
H  H21  1  0.21175723  0.44113608  0.79081377  1  0  0.424675  0  0.871234  0  0  0.397161  0  0.929849  0  0  0.407373  0  0.914819  0  0  0.302157  0.389885  0  0.940561  0
C  C22  1  0.13904425  0.86560804  0.35594866  1  0  0.684213  0  3.890922  0  0  0.639823  0  4.189205  0  0  0.672302  0  4.182017  0  0  0.215608  0.617799  0  4.193217  0
C  C23  1  0.99503722  0.86919450  0.14199685  1  0  0.682097  0  3.892035  0  0  0.637962  0  4.189992  0  0  0.670434  0  4.182962  0  0  0.214284  0.615941  0  4.193895  0
C  C24  1  0.86093004  0.13440283  0.64405083  1  0  0.684093  0  3.891115  0  0  0.639791  0  4.189218  0  0  0.67227  0  4.182026  0  0  0.215603  0.617765  0  4.193223  0
C  C25  1  0.00498172  0.13080131  0.85800366  1  0  0.682284  0  3.891733  0  0  0.638149  0  4.189703  0  0  0.670622  0  4.182674  0  0  0.214409  0.616143  0  4.19359  0
C  C26  1  0.01358083  0.74704253  0.41570532  1  0  -0.15975  0  3.639784  0  0  -0.221434  0  3.896145  0  0  -0.220607  0  3.901176  0  0  -0.058571  -0.221881  0  3.892602  0
C  C27  1  0.23501052  0.75617039  0.08002334  1  0  -0.157394  0  3.641517  0  0  -0.219141  0  3.897643  0  0  -0.218584  0  3.902966  0  0  -0.058899  -0.219478  0  3.894084  0
C  C28  1  0.98640947  0.25296682  0.58429558  1  0  -0.16002  0  3.63994  0  0  -0.221635  0  3.89616  0  0  -0.220819  0  3.901223  0  0  -0.058681  -0.222108  0  3.892675  0
C  C29  1  0.76500568  0.24381793  0.91997506  1  0  -0.157291  0  3.641377  0  0  -0.219101  0  3.897509  0  0  -0.218547  0  3.902834  0  0  -0.058922  -0.219483  0  3.894037  0
C  C30  1  0.35185521  0.70903708  0.51853013  1  0  -0.137923  0  3.666104  0  0  -0.197833  0  3.923509  0  0  -0.197678  0  3.929865  0  0  -0.046025  -0.19792  0  3.919281  0
C  C31  1  0.94163402  0.70574298  0.97764849  1  0  -0.140306  0  3.670096  0  0  -0.200377  0  3.92601  0  0  -0.20003  0  3.932244  0  0  -0.04643  -0.200563  0  3.921941  0
C  C32  1  0.64813435  0.29097377  0.48147020  1  0  -0.137873  0  3.666268  0  0  -0.197894  0  3.923715  0  0  -0.197741  0  3.930078  0  0  -0.046022  -0.197965  0  3.919463  0
C  C33  1  0.05836894  0.29424985  0.02235288  1  0  -0.140443  0  3.670366  0  0  -0.200557  0  3.926236  0  0  -0.200188  0  3.932461  0  0  -0.046455  -0.200732  0  3.922166  0
C  C34  1  0.37833970  0.41922059  0.44029788  1  0  0.538793  0  3.796796  0  0  0.488517  0  4.094901  0  0  0.51844  0  4.09293  0  0  0.256603  0.468249  0  4.095748  0
C  C35  1  0.19811467  0.42700071  0.06121229  1  0  0.535891  0  3.801489  0  0  0.486184  0  4.097992  0  0  0.516121  0  4.095839  0  0  0.25512  0.46589  0  4.098949  0
C  C36  1  0.62164110  0.58079028  0.55970372  1  0  0.538709  0  3.796664  0  0  0.488402  0  4.094749  0  0  0.518326  0  4.092774  0  0  0.256525  0.468137  0  4.095594  0
C  C37  1  0.80189195  0.57299362  0.93878678  1  0  0.535983  0  3.80111  0  0  0.486179  0  4.09781  0  0  0.516118  0  4.095662  0  0  0.255188  0.465887  0  4.098772  0
N  N38  1  0.25159325  0.61360717  0.45915270  1  0  -0.162144  0  3.472554  0  0  -0.081982  0  3.711665  0  0  -0.101705  0  3.733395  0  0  -0.273715  -0.068654  0  3.696615  0
N  N39  1  0.13475770  0.61784441  0.03843922  1  0  -0.161315  0  3.47724  0  0  -0.081442  0  3.715134  0  0  -0.101134  0  3.736938  0  0  -0.274959  -0.068063  0  3.69998  0
N  N40  1  0.74839562  0.38640069  0.54084823  1  0  -0.162107  0  3.472641  0  0  -0.081856  0  3.711668  0  0  -0.101582  0  3.733392  0  0  -0.273713  -0.068528  0  3.696604  0
N  N41  1  0.86524680  0.38214543  0.96156104  1  0  -0.161334  0  3.477067  0  0  -0.081461  0  3.715076  0  0  -0.101158  0  3.73688  0  0  -0.274931  -0.068074  0  3.699912  0
O  O42  1  0.94819164  0.02880081  0.33456560  1  0  -0.717551  0  1.999251  0  0  -0.657429  0  2.244479  0  0  -0.684936  0  2.237036  0  0  -0.374305  -0.637944  0  2.248901  0
O  O43  1  0.02510987  0.02937925  0.16559990  1  0  -0.71997  0  1.999927  0  0  -0.659564  0  2.245134  0  0  -0.687232  0  2.237728  0  0  -0.375456  -0.639924  0  2.249518  0
O  O44  1  0.05179963  0.97119804  0.66543258  1  0  -0.717466  0  1.999021  0  0  -0.657364  0  2.244165  0  0  -0.684873  0  2.236728  0  0  -0.374285  -0.637874  0  2.248584  0
O  O45  1  0.97491068  0.97060906  0.83439953  1  0  -0.720048  0  1.999758  0  0  -0.659639  0  2.244967  0  0  -0.687311  0  2.237561  0  0  -0.375505  -0.639998  0  2.249349  0
O  O46  1  0.76966356  0.46521865  0.24969000  1  0  -0.882631  0  1.751733  0  0  -0.828429  0  1.912983  0  0  -0.84839  0  1.883132  0  0  -0.594855  -0.814157  0  1.933906  0
O  O47  1  0.23034078  0.53478019  0.75030963  1  0  -0.882643  0  1.751734  0  0  -0.828446  0  1.912986  0  0  -0.848406  0  1.883136  0  0  -0.594863  -0.814175  0  1.933905  0
O  O48  1  0.42123995  0.79626335  0.33250449  1  0  -0.682133  0  1.978826  0  0  -0.622013  0  2.207264  0  0  -0.648077  0  2.19859  0  0  -0.335509  -0.603726  0  2.212691  0
O  O49  1  0.78316854  0.79929399  0.16481009  1  0  -0.679087  0  1.97503  0  0  -0.619421  0  2.202531  0  0  -0.645254  0  2.19389  0  0  -0.334391  -0.601234  0  2.207866  0
O  O50  1  0.57875559  0.20373999  0.66749470  1  0  -0.68201  0  1.97919  0  0  -0.621944  0  2.207579  0  0  -0.648001  0  2.198906  0  0  -0.335481  -0.603654  0  2.213008  0
O  O51  1  0.21685483  0.20069282  0.83519489  1  0  -0.679201  0  1.975012  0  0  -0.619543  0  2.202525  0  0  -0.645361  0  2.193849  0  0  -0.334467  -0.601355  0  2.207858  0
O  O52  1  0.28235253  0.34055477  0.38984696  1  0  -0.608948  0  1.966847  0  0  -0.562485  0  2.214256  0  0  -0.584601  0  2.206044  0  0  -0.337506  -0.547125  0  2.219582  0
O  O53  1  0.36841262  0.35519461  0.11325241  1  0  -0.60709  0  1.966284  0  0  -0.560486  0  2.212435  0  0  -0.582552  0  2.204209  0  0  -0.33606  -0.545181  0  2.217789  0
O  O54  1  0.71764145  0.65945608  0.61015108  1  0  -0.608924  0  1.966908  0  0  -0.562481  0  2.214362  0  0  -0.584596  0  2.206149  0  0  -0.337505  -0.547118  0  2.219686  0
O  O55  1  0.63159696  0.64479821  0.88674550  1  0  -0.607161  0  1.966186  0  0  -0.560515  0  2.21239  0  0  -0.582582  0  2.204165  0  0  -0.336151  -0.545213  0  2.217753  0
