# generated using pymatgen
data_CoH18C18(NO3)2
_symmetry_space_group_name_H-M   'P 1'
_cell_length_a   8.14929459
_cell_length_b   6.85833988
_cell_length_c   9.29637080
_cell_angle_alpha   107.06084670
_cell_angle_beta   98.49766363
_cell_angle_gamma   100.80288517
_symmetry_Int_Tables_number   1
_chemical_formula_structural   CoH18C18(NO3)2
_chemical_formula_sum   'Co1 H18 C18 N2 O6'
_cell_volume   476.40316981
_cell_formula_units_Z   1
loop_
 _symmetry_equiv_pos_site_id
 _symmetry_equiv_pos_as_xyz
  1  'x, y, z'
loop_
 _atom_site_type_symbol
 _atom_site_label
 _atom_site_symmetry_multiplicity
 _atom_site_fract_x
 _atom_site_fract_y
 _atom_site_fract_z
 _atom_site_occupancy
 _atom_site_hle17_ddec_charge
 _atom_site_hle17_ddec_spin_density
 _atom_site_hle17_ddec_sum_bond_order
 _atom_site_hle17_magmom
 _atom_site_hse06_10hf_ddec_charge
 _atom_site_hse06_10hf_ddec_spin_density
 _atom_site_hse06_10hf_ddec_sum_bond_order
 _atom_site_hse06_10hf_magmom
 _atom_site_hse06_ddec_charge
 _atom_site_hse06_ddec_spin_density
 _atom_site_hse06_ddec_sum_bond_order
 _atom_site_hse06_magmom
 _atom_site_pbe_cm5_charge
 _atom_site_pbe_ddec_charge
 _atom_site_pbe_ddec_spin_density
 _atom_site_pbe_ddec_sum_bond_order
 _atom_site_pbe_magmom
Co  Co0  1  0.00000413  0.50000022  0.00000311  1  0.758689  -1.186523  2.398539  -1.088  0.748081  -1.063734  2.823052  -0.997  0.804156  -1.037168  2.754522  -0.98  0.648199  0.718629  -1.078951  2.862149  -1.003
H  H1  1  0.65036881  0.58705653  0.64194647  1  0.100856  -0.000202  0.942562  0.0  0.113875  -2.1e-05  1.001278  0.0  0.11746  -2e-05  0.998805  0.0  0.107513  0.111112  1e-06  1.003375  0.0
H  H2  1  0.34962348  0.41293938  0.35803616  1  0.100889  -0.0002  0.942497  0.0  0.113844  -2.1e-05  1.001279  0.0  0.117427  -2e-05  0.998806  0.0  0.107484  0.111083  0.0  1.00337  0.0
H  H3  1  0.15884277  0.44242426  0.49274127  1  0.103109  0.00027  0.969002  0.0  0.112153  -2e-06  1.032387  0.0  0.115163  5e-06  1.031139  0.0  0.107439  0.10997  2e-05  1.033932  0.0
H  H4  1  0.84114600  0.55756311  0.50725965  1  0.103101  0.000273  0.968896  0.0  0.112133  -2e-06  1.032305  0.0  0.115138  5e-06  1.031056  0.0  0.107425  0.109944  2e-05  1.033859  0.0
H  H5  1  0.25281518  0.12261689  0.48478267  1  0.108417  9.5e-05  0.977643  0.0  0.116114  3.9e-05  1.041033  0.0  0.117939  1.2e-05  1.042313  0.0  0.100476  0.114893  5.6e-05  1.04043  0.0
H  H6  1  0.74718285  0.87737210  0.51521964  1  0.108428  9.5e-05  0.977585  0.0  0.116117  3.9e-05  1.040992  0.0  0.117944  1.2e-05  1.042265  0.0  0.100458  0.114897  5.6e-05  1.040388  0.0
H  H7  1  0.58402819  0.66262418  0.88700047  1  0.126258  0.000183  0.981312  0.0  0.132856  -9.9e-05  1.044695  0.0  0.137419  -3.9e-05  1.042132  0.0  0.106298  0.12923  -0.000188  1.046723  0.0
H  H8  1  0.41597869  0.33738236  0.11298924  1  0.126289  0.000186  0.981315  0.0  0.132786  -9.9e-05  1.04481  0.0  0.137357  -3.9e-05  1.042238  0.0  0.106246  0.129161  -0.000188  1.046831  0.0
H  H9  1  0.36836466  0.64547657  0.05106834  1  0.089774  -7.9e-05  0.960421  -0.001  0.096981  0.000116  1.02442  0.0  0.099677  6.9e-05  1.02145  0.0  0.120805  0.094803  0.00011  1.027286  0.0
H  H10  1  0.63165066  0.35452863  0.94892745  1  0.08981  -8e-05  0.960367  -0.001  0.097  0.000116  1.0244  0.0  0.09969  6.8e-05  1.021431  0.0  0.120804  0.094819  0.00011  1.027269  0.0
H  H11  1  0.46647989  0.81962604  0.34240893  1  0.090521  4.3e-05  0.94857  0.0  0.102504  6.9e-05  1.00829  0.0  0.104882  2.9e-05  1.007304  0.0  0.10364  0.100488  7.3e-05  1.009407  0.0
H  H12  1  0.53352891  0.18039035  0.65759272  1  0.090474  4.3e-05  0.948674  0.0  0.102529  6.9e-05  1.008302  0.0  0.104915  2.9e-05  1.007329  0.0  0.103625  0.10052  7.3e-05  1.009402  0.0
H  H13  1  0.96532319  0.44465039  0.67296762  1  0.081726  1.1e-05  0.968088  -0.001  0.09006  0.000158  1.031765  0.0  0.092642  0.000114  1.028931  0.0  0.118757  0.08797  0.00022  1.034506  0.0
H  H14  1  0.03467951  0.55534944  0.32704283  1  0.081677  1e-05  0.967963  -0.001  0.090011  0.000158  1.031674  0.0  0.092594  0.000114  1.028838  0.0  0.118674  0.087886  0.00022  1.034461  0.0
H  H15  1  0.09840732  0.18728516  0.12590155  1  0.403772  0.000116  0.890167  0.0  0.378857  -0.000292  0.953364  -0.001  0.387575  -0.000139  0.940789  -0.001  0.288978  0.373146  -0.000449  0.961567  -0.001
H  H16  1  0.90159298  0.81271507  0.87410763  1  0.403749  0.000116  0.890284  0.0  0.378827  -0.000292  0.953457  -0.001  0.387547  -0.000139  0.940879  -0.001  0.288928  0.373118  -0.000449  0.96166  -0.001
H  H17  1  0.08262500  0.15469241  0.94912617  1  0.399832  0.000858  0.917366  0.001  0.367747  0.00033  0.984351  0.0  0.379726  0.000385  0.966898  0.0  0.280787  0.359319  0.000242  0.996572  0.0
H  H18  1  0.91737271  0.84530339  0.05088288  1  0.399825  0.000858  0.91737  0.001  0.367732  0.00033  0.98437  0.0  0.379712  0.000385  0.966918  0.0  0.28076  0.359308  0.000242  0.996589  0.0
C  C19  1  0.51760374  0.53652747  0.57802321  1  -0.101287  0.010127  3.725036  0.005  -0.122297  0.005179  3.981133  0.002  -0.122588  0.002232  3.995798  0.001  -0.080129  -0.121519  0.007646  3.970041  0.004
C  C20  1  0.48238449  0.46346749  0.42195768  1  -0.101519  0.009962  3.725316  0.005  -0.122522  0.005169  3.981416  0.002  -0.122818  0.002231  3.996084  0.001  -0.080156  -0.12172  0.007633  3.97034  0.004
C  C21  1  0.39189583  0.54822588  0.67343509  1  0.129282  0.02004  3.813386  0.013  0.142338  0.008559  4.046888  0.005  0.150262  0.005206  4.066198  0.003  0.003293  0.137775  0.010265  4.03211  0.006
C  C22  1  0.60809279  0.45176951  0.32656100  1  0.129254  0.020121  3.813768  0.013  0.142438  0.008566  4.047024  0.005  0.150365  0.005209  4.066346  0.003  0.003293  0.137803  0.010273  4.032343  0.006
C  C23  1  0.21350523  0.49162487  0.61561648  1  -0.161807  -0.00329  3.713544  -0.005  -0.175851  -0.000106  3.956107  -0.001  -0.183928  -0.000653  3.975021  -0.001  -0.082383  -0.172154  0.000721  3.944502  0.0
C  C24  1  0.78648454  0.50837028  0.38437862  1  -0.161949  -0.00333  3.713847  -0.005  -0.176024  -0.000107  3.956427  -0.001  -0.184097  -0.000654  3.975334  -0.001  -0.082443  -0.172311  0.000719  3.944842  0.0
C  C25  1  0.28453639  0.99505237  0.40042121  1  -0.221025  0.002954  3.652205  0.002  -0.234291  0.001307  3.904965  0.001  -0.24452  0.000499  3.922084  0.0  -0.093949  -0.229092  0.003527  3.895857  0.002
C  C26  1  0.71546368  0.00494761  0.59957929  1  -0.221087  0.002931  3.651997  0.002  -0.234359  0.001308  3.904789  0.001  -0.244589  0.000498  3.921916  0.0  -0.093959  -0.229161  0.003529  3.895684  0.002
C  C27  1  0.44721192  0.61168185  0.83468481  1  -0.170979  -0.002855  3.682002  -0.005  -0.185252  8.2e-05  3.922829  -0.001  -0.193792  -0.000586  3.939371  -0.001  -0.083018  -0.177343  0.001117  3.90992  0.0
C  C28  1  0.55278666  0.38831800  0.16530365  1  -0.170938  -0.002896  3.682026  -0.005  -0.185133  8e-05  3.922769  -0.001  -0.193681  -0.000587  3.939304  -0.001  -0.082999  -0.177205  0.001115  3.909882  0.0
C  C29  1  0.15404536  0.89154051  0.25531846  1  0.663877  0.007102  3.887518  0.004  0.621167  0.003254  4.185779  0.002  0.659595  0.001776  4.176477  0.001  0.206502  0.59442  0.00542  4.192688  0.003
C  C30  1  0.84596222  0.10846323  0.74468905  1  0.66397  0.007104  3.887129  0.004  0.621271  0.003255  4.185363  0.002  0.659699  0.001777  4.176057  0.001  0.206543  0.594524  0.00542  4.192277  0.003
C  C31  1  0.32889600  0.60354146  0.92683560  1  0.129739  0.019929  3.664279  0.013  0.101569  0.008298  3.913487  0.005  0.113496  0.005828  3.926362  0.004  0.045354  0.093406  0.009101  3.905546  0.005
C  C32  1  0.67111259  0.39647007  0.07316610  1  0.129611  0.019991  3.664256  0.013  0.101446  0.008301  3.913489  0.005  0.113384  0.00583  3.92636  0.004  0.045335  0.093259  0.009104  3.90554  0.005
C  C33  1  0.43646610  0.94579118  0.42981958  1  -0.009764  0.004437  3.762199  0.002  -0.028894  0.001966  4.013562  0.001  -0.026753  0.000917  4.033411  0.0  -0.078923  -0.031367  0.003845  4.002723  0.002
C  C34  1  0.56353509  0.05421671  0.57017945  1  -0.009727  0.004459  3.762234  0.002  -0.028892  0.001966  4.013557  0.001  -0.026774  0.000918  4.033424  0.0  -0.078881  -0.031366  0.003845  4.002722  0.002
C  C35  1  0.10323712  0.49108593  0.71512240  1  0.114886  0.01802  3.696142  0.012  0.084816  0.007109  3.948851  0.004  0.095336  0.005319  3.963367  0.003  0.040171  0.077761  0.007375  3.941168  0.004
C  C36  1  0.89675742  0.50891198  0.28488350  1  0.115074  0.018087  3.695918  0.012  0.084996  0.007113  3.948674  0.004  0.095524  0.00532  3.963184  0.003  0.040232  0.077968  0.00738  3.94093  0.004
N  N37  1  0.15792474  0.53976554  0.86932288  1  -0.250006  0.016247  3.335111  0.01  -0.202887  0.010027  3.61634  0.007  -0.225335  0.008024  3.629782  0.005  -0.339911  -0.190546  0.010644  3.607592  0.008
N  N38  1  0.84208330  0.46023615  0.13067458  1  -0.250001  0.016196  3.334818  0.01  -0.202917  0.010024  3.616109  0.007  -0.225378  0.008023  3.629561  0.005  -0.339862  -0.190522  0.010642  3.6073  0.008
O  O39  1  0.04246785  0.98777433  0.22195638  1  -0.62835  0.004563  1.941178  0.004  -0.57274  0.002342  2.147019  0.002  -0.596684  0.001311  2.134357  0.001  -0.320789  -0.557388  0.004201  2.156273  0.003
O  O40  1  0.95753401  0.01221894  0.77804832  1  -0.628364  0.00456  1.941051  0.004  -0.572758  0.002342  2.14689  0.002  -0.596701  0.00131  2.134223  0.001  -0.320807  -0.557404  0.004201  2.15614  0.003
O  O41  1  0.13767167  0.25869321  0.05473603  1  -0.803271  -0.024405  1.907727  -0.043  -0.766765  -0.023492  2.094031  -0.039  -0.791855  -0.018425  2.062929  -0.031  -0.573136  -0.746877  -0.029267  2.113839  -0.047
O  O42  1  0.86232759  0.74130381  0.94526914  1  -0.803217  -0.024405  1.90778  -0.043  -0.766747  -0.023492  2.09397  -0.039  -0.791836  -0.018425  2.06287  -0.031  -0.573052  -0.746852  -0.029267  2.113748  -0.047
O  O43  1  0.16242966  0.70645365  0.17450996  1  -0.574769  0.019143  2.19109  0.015  -0.545941  0.007044  2.475089  0.006  -0.587632  0.006721  2.468278  0.006  -0.301813  -0.517173  0.004797  2.477859  0.003
O  O44  1  0.83757521  0.29355373  0.82549369  1  -0.574829  0.019139  2.190971  0.015  -0.545979  0.007044  2.474972  0.006  -0.587667  0.00672  2.468153  0.006  -0.301809  -0.517214  0.004797  2.477747  0.003
