# generated using pymatgen
data_CdH22C22N6O7
_symmetry_space_group_name_H-M   'P 1'
_cell_length_a   10.69371021
_cell_length_b   14.21797099
_cell_length_c   18.10291801
_cell_angle_alpha   99.25679818
_cell_angle_beta   90.00007810
_cell_angle_gamma   89.99948971
_symmetry_Int_Tables_number   1
_chemical_formula_structural   CdH22C22N6O7
_chemical_formula_sum   'Cd4 H88 C88 N24 O28'
_cell_volume   2716.57548926
_cell_formula_units_Z   4
loop_
 _symmetry_equiv_pos_site_id
 _symmetry_equiv_pos_as_xyz
  1  'x, y, z'
loop_
 _atom_site_type_symbol
 _atom_site_label
 _atom_site_symmetry_multiplicity
 _atom_site_fract_x
 _atom_site_fract_y
 _atom_site_fract_z
 _atom_site_occupancy
 _atom_site_pbe_bader_charge
 _atom_site_pbe_bader_spin_density
 _atom_site_pbe_cm5_charge
 _atom_site_pbe_ddec_charge
 _atom_site_pbe_ddec_spin_density
 _atom_site_pbe_ddec_sum_bond_order
 _atom_site_pbe_magmom
Cd  Cd0  1  0.14378036  0.39069355  0.81859271  1  1.236388  0  0.753507  0.775237  0  2.210168  0
Cd  Cd1  1  0.64378497  0.60930504  0.68141343  1  1.236541  0  0.753466  0.775184  0  2.210317  0
Cd  Cd2  1  0.85621861  0.60930030  0.18141047  1  1.236636  0  0.753504  0.775195  0  2.210445  0
Cd  Cd3  1  0.35621400  0.39069445  0.31858436  1  1.236459  0  0.753449  0.775144  0  2.2104  0
H  H4  1  0.84283122  0.42421114  0.77266335  1  0.191055  0  0.117199  0.097405  0  1.035344  0
H  H5  1  0.34283075  0.57578608  0.72734001  1  0.191167  0  0.1172  0.097413  0  1.035423  0
H  H6  1  0.15716775  0.57578623  0.22733639  1  0.191019  0  0.117179  0.097438  0  1.035309  0
H  H7  1  0.65716823  0.42421204  0.27266369  1  0.19227  0  0.117183  0.097355  0  1.035429  0
H  H8  1  0.67417077  0.34399135  0.69038037  1  0.123428  0  0.114235  0.135851  0  1.004458  0
H  H9  1  0.17416019  0.65601119  0.80961356  1  0.123457  0  0.114294  0.135923  0  1.00431  0
H  H10  1  0.32582727  0.65600458  0.30961754  1  0.123402  0  0.114235  0.135831  0  1.004442  0
H  H11  1  0.82582943  0.34399892  0.19037777  1  0.123355  0  0.114212  0.135836  0  1.004385  0
H  H12  1  0.72201468  0.18782275  0.60794182  1  0.133771  0  0.113778  0.116683  0  1.026391  0
H  H13  1  0.22200711  0.81218377  0.89205594  1  0.133584  0  0.113747  0.116634  0  1.026447  0
H  H14  1  0.27798991  0.81217744  0.39205494  1  0.133688  0  0.113771  0.116687  0  1.026472  0
H  H15  1  0.77798625  0.18782495  0.10793909  1  0.133771  0  0.113773  0.116614  0  1.026453  0
H  H16  1  0.10030617  0.21522865  0.69552662  1  0.10823  0  0.116617  0.088178  0  1.041563  0
H  H17  1  0.60030338  0.78476736  0.80447752  1  0.108405  0  0.116612  0.088126  0  1.041526  0
H  H18  1  0.89969842  0.78477372  0.30447538  1  0.10826  0  0.116629  0.088186  0  1.041508  0
H  H19  1  0.39969559  0.21522930  0.19552214  1  0.108415  0  0.116582  0.088071  0  1.041509  0
H  H20  1  0.35023345  0.24900347  0.86504906  1  0.125141  0  0.118581  0.099165  0  1.003988  0
H  H21  1  0.85022974  0.75099152  0.63494962  1  0.125198  0  0.118601  0.09917  0  1.00406  0
H  H22  1  0.64976365  0.75099034  0.13495136  1  0.125066  0  0.118622  0.099155  0  1.004201  0
H  H23  1  0.14976362  0.24900584  0.36504901  1  0.125095  0  0.118593  0.099136  0  1.004156  0
H  H24  1  0.38032676  0.11944992  0.94052346  1  0.102751  0  0.108858  0.123482  0  1.006509  0
H  H25  1  0.88032508  0.88054133  0.55947644  1  0.10281  0  0.108858  0.123519  0  1.006497  0
H  H26  1  0.61967782  0.88054321  0.05947908  1  0.102888  0  0.108885  0.123596  0  1.006419  0
H  H27  1  0.11967576  0.11945391  0.44052415  1  0.102769  0  0.108866  0.123533  0  1.006502  0
H  H28  1  0.19013947  0.05680523  0.00172599  1  0.106497  0  0.111664  0.11274  0  1.015986  0
H  H29  1  0.69014929  0.94319852  0.49827477  1  0.106359  0  0.111713  0.112814  0  1.015926  0
H  H30  1  0.80985763  0.94318936  0.99828059  1  0.106619  0  0.111675  0.112755  0  1.016019  0
H  H31  1  0.30986277  0.05680809  0.50172277  1  0.106619  0  0.11168  0.11274  0  1.015965  0
H  H32  1  0.97027828  0.26239983  0.90802943  1  0.07811  0  0.112172  0.079386  0  1.045899  0
H  H33  1  0.47027370  0.73760649  0.59197236  1  0.078082  0  0.112181  0.079398  0  1.045888  0
H  H34  1  0.02972069  0.73759904  0.09197822  1  0.077796  0  0.112159  0.079313  0  1.045944  0
H  H35  1  0.52972246  0.26239438  0.40802118  1  0.077846  0  0.112169  0.07934  0  1.045953  0
H  H36  1  0.43681792  0.40969722  0.81323045  1  0.121598  0  0.120695  0.09416  0  0.991469  0
H  H37  1  0.93681622  0.59030224  0.68677490  1  0.127397  0  0.12068  0.094095  0  0.991579  0
H  H38  1  0.56318947  0.59031084  0.18677058  1  0.127461  0  0.120668  0.094091  0  0.991509  0
H  H39  1  0.06319771  0.40968946  0.31322746  1  0.127474  0  0.120682  0.094129  0  0.991521  0
H  H40  1  0.61140217  0.52227077  0.85812812  1  0.182708  0  0.107032  0.128274  0  1.045231  0
H  H41  1  0.11140173  0.47773018  0.64187937  1  0.182852  0  0.107082  0.128296  0  1.045262  0
H  H42  1  0.38859867  0.47773733  0.14187733  1  0.182656  0  0.107059  0.128315  0  1.045286  0
H  H43  1  0.88860286  0.52226009  0.35812227  1  0.182703  0  0.107007  0.128231  0  1.045233  0
H  H44  1  0.57079450  0.65005796  0.97045705  1  0.116386  0  0.10984  0.111659  0  0.997494  0
H  H45  1  0.07080092  0.34994891  0.52954505  1  0.116452  0  0.109869  0.111684  0  0.997518  0
H  H46  1  0.42919979  0.34995297  0.02954653  1  0.116425  0  0.10987  0.111664  0  0.997537  0
H  H47  1  0.92920367  0.65004989  0.47045486  1  0.116498  0  0.10983  0.111616  0  0.997458  0
H  H48  1  0.19399139  0.54408581  0.97452812  1  0.106703  0  0.119536  0.09344  0  1.017694  0
H  H49  1  0.69399465  0.45591523  0.52547172  1  0.106802  0  0.119546  0.093427  0  1.01762  0
H  H50  1  0.80600571  0.45591083  0.02546932  1  0.106848  0  0.119565  0.093513  0  1.017632  0
H  H51  1  0.30601180  0.54408216  0.47453023  1  0.108065  0  0.119659  0.093647  0  1.017511  0
H  H52  1  0.92242378  0.62705641  0.98294018  1  0.073274  0  0.097573  0.11858  0  1.01188  0
H  H53  1  0.42242148  0.37294525  0.51706156  1  0.073328  0  0.097624  0.118668  0  1.011821  0
H  H54  1  0.07758174  0.37294597  0.01706237  1  0.073301  0  0.097586  0.118598  0  1.011942  0
H  H55  1  0.57758030  0.62705565  0.48293529  1  0.073429  0  0.097608  0.118665  0  1.011959  0
H  H56  1  0.78844624  0.57117331  0.94032189  1  0.038662  0  0.09407  0.102373  0  1.017483  0
H  H57  1  0.28844992  0.42883284  0.55968250  1  0.038788  0  0.094098  0.10242  0  1.017438  0
H  H58  1  0.21155554  0.42882484  0.05968457  1  0.038594  0  0.094077  0.102436  0  1.017376  0
H  H59  1  0.71155092  0.57117230  0.44031044  1  0.038568  0  0.094059  0.102471  0  1.017309  0
H  H60  1  0.80905078  0.74003710  0.91565091  1  0.049162  0  0.093892  0.10782  0  1.002823  0
H  H61  1  0.30904530  0.25997030  0.58434979  1  0.049227  0  0.093943  0.107885  0  1.002863  0
H  H62  1  0.19094538  0.25996312  0.08434862  1  0.049141  0  0.093891  0.107837  0  1.002911  0
H  H63  1  0.69095087  0.74002988  0.41564532  1  0.049277  0  0.09396  0.107888  0  1.002926  0
H  H64  1  0.95334505  0.71394930  0.87211928  1  0.077441  0  0.102742  0.127256  0  0.976324  0
H  H65  1  0.45333936  0.28604715  0.62788130  1  0.077465  0  0.10276  0.127323  0  0.976325  0
H  H66  1  0.04665298  0.28604380  0.12788049  1  0.077674  0  0.102701  0.127222  0  0.97635  0
H  H67  1  0.54665868  0.71395516  0.37211351  1  0.076577  0  0.102729  0.12726  0  0.976356  0
H  H68  1  0.83452439  0.14948782  0.91403805  1  0.439392  0  0.30817  0.307609  0  0.953545  0
H  H69  1  0.33453529  0.85051153  0.58595783  1  0.439464  0  0.308175  0.30763  0  0.953581  0
H  H70  1  0.16548581  0.85050888  0.08596658  1  0.439217  0  0.308137  0.307521  0  0.95368  0
H  H71  1  0.66548331  0.14948935  0.41403571  1  0.439325  0  0.308142  0.307536  0  0.953573  0
H  H72  1  0.12351675  0.08756739  0.63325027  1  0.456904  0  0.323784  0.327308  0  0.918854  0
H  H73  1  0.62350980  0.91243199  0.86674986  1  0.456931  0  0.323726  0.327244  0  0.918999  0
H  H74  1  0.87647941  0.91243636  0.36674637  1  0.456903  0  0.323752  0.327267  0  0.918932  0
H  H75  1  0.37647889  0.08756612  0.13325273  1  0.456904  0  0.323752  0.327299  0  0.918944  0
H  H76  1  0.26269803  0.71453033  0.14463223  1  0.422693  0  0.310596  0.30882  0  0.938889  0
H  H77  1  0.76270595  0.28547649  0.35536896  1  0.422675  0  0.310639  0.30888  0  0.938868  0
H  H78  1  0.73730281  0.28547201  0.85536590  1  0.422582  0  0.310658  0.308924  0  0.938796  0
H  H79  1  0.23729770  0.71452872  0.64463172  1  0.422474  0  0.310628  0.308884  0  0.938819  0
H  H80  1  0.19558711  0.61843737  0.08521980  1  0.515949  0  0.290868  0.314538  0  1.015789  0
H  H81  1  0.69558842  0.38156635  0.41478262  1  0.515893  0  0.290862  0.314544  0  1.015745  0
H  H82  1  0.80441747  0.38156426  0.91477879  1  0.515886  0  0.290863  0.31461  0  1.015664  0
H  H83  1  0.30441709  0.61843674  0.58522057  1  0.515937  0  0.290856  0.314597  0  1.015709  0
H  H84  1  0.08778303  0.00942601  0.54951275  1  0.530145  0  0.304006  0.324952  0  0.985141  0
H  H85  1  0.58777721  0.99057431  0.95048692  1  0.530345  0  0.303999  0.324948  0  0.985053  0
H  H86  1  0.91222716  0.99057133  0.45048422  1  0.53031  0  0.304034  0.324951  0  0.985045  0
H  H87  1  0.41221802  0.00942593  0.04951538  1  0.530241  0  0.304039  0.325007  0  0.985106  0
H  H88  1  0.76080659  0.11418778  0.99170967  1  0.52886  0  0.298431  0.31999  0  1.003581  0
H  H89  1  0.26080567  0.88580995  0.50828816  1  0.528814  0  0.298482  0.32003  0  1.00363  0
H  H90  1  0.23918677  0.88582031  0.00829468  1  0.528894  0  0.298498  0.320056  0  1.003473  0
H  H91  1  0.73918769  0.11417743  0.49170816  1  0.528853  0  0.29844  0.320023  0  1.003475  0
C  C92  1  0.86029138  0.35611057  0.73680017  1  0.378984  0  0.051514  0.09675  0  3.912968  0
C  C93  1  0.36028457  0.64389010  0.76320306  1  0.379019  0  0.051451  0.09661  0  3.91313  0
C  C94  1  0.13970666  0.64388893  0.26319872  1  0.378777  0  0.051471  0.09661  0  3.91299  0
C  C95  1  0.63970879  0.35611368  0.23679634  1  0.377544  0  0.051465  0.096684  0  3.913076  0
C  C96  1  0.76631111  0.31102294  0.69058708  1  0.05896  0  -0.078619  -0.123144  0  3.929188  0
C  C97  1  0.26630294  0.68897832  0.80941229  1  0.05872  0  -0.078615  -0.123196  0  3.929286  0
C  C98  1  0.23368786  0.68897299  0.30941082  1  0.058948  0  -0.078548  -0.12299  0  3.929053  0
C  C99  1  0.73368668  0.31102758  0.19058517  1  0.058987  0  -0.078543  -0.123064  0  3.929185  0
C  C100  1  0.79391376  0.22611585  0.64351054  1  -0.07027  0  -0.052972  -0.029807  0  3.895059  0
C  C101  1  0.29390751  0.77388591  0.85648560  1  -0.070024  0  -0.052962  -0.029743  0  3.895069  0
C  C102  1  0.20609269  0.77388364  0.35648725  1  -0.069992  0  -0.052958  -0.029803  0  3.89498  0
C  C103  1  0.70608959  0.22611926  0.14351066  1  -0.070145  0  -0.052932  -0.029658  0  3.894969  0
C  C104  1  0.91596797  0.18985460  0.64255300  1  -0.036416  0  -0.011889  -0.091574  0  3.983736  0
C  C105  1  0.41595848  0.81014848  0.85744394  1  -0.037039  0  -0.011923  -0.091546  0  3.983636  0
C  C106  1  0.08403661  0.81014416  0.35744304  1  -0.037005  0  -0.011969  -0.091803  0  3.983907  0
C  C107  1  0.58403675  0.18985317  0.14255687  1  -0.03697  0  -0.011991  -0.091798  0  3.983871  0
C  C108  1  0.00319473  0.23835352  0.69235170  1  0.495573  0  0.04754  0.057664  0  3.934443  0
C  C109  1  0.50319410  0.76164523  0.80764717  1  0.495578  0  0.047571  0.05768  0  3.934425  0
C  C110  1  0.99680798  0.76164667  0.30764507  1  0.495719  0  0.047535  0.057728  0  3.934382  0
C  C111  1  0.49680955  0.23835358  0.19235440  1  0.495517  0  0.047616  0.057858  0  3.934263  0
C  C112  1  0.95050646  0.10491974  0.58643953  1  1.425713  0  0.252945  0.557413  0  4.134764  0
C  C113  1  0.45049797  0.89507957  0.91355864  1  1.426146  0  0.252943  0.5574  0  4.134488  0
C  C114  1  0.04950092  0.89507970  0.41355273  1  1.426333  0  0.253212  0.557961  0  4.13428  0
C  C115  1  0.54950193  0.10491856  0.08644616  1  1.426248  0  0.253096  0.557842  0  4.134068  0
C  C116  1  0.27097398  0.22045668  0.89204964  1  0.52132  0  0.056492  0.111206  0  3.9056  0
C  C117  1  0.77097267  0.77954030  0.60795143  1  0.521611  0  0.056514  0.111298  0  3.905357  0
C  C118  1  0.72901938  0.77953645  0.10795290  1  0.521402  0  0.056583  0.111436  0  3.905226  0
C  C119  1  0.22901976  0.22045777  0.39204674  1  0.521277  0  0.056471  0.111197  0  3.905471  0
C  C120  1  0.28680246  0.14721149  0.93411954  1  -0.051852  0  -0.080643  -0.125431  0  3.951153  0
C  C121  1  0.78680205  0.85278751  0.56588123  1  -0.052198  0  -0.080639  -0.125467  0  3.950986  0
C  C122  1  0.71319745  0.85278376  0.06588215  1  -0.052224  0  -0.080738  -0.125692  0  3.95102  0
C  C123  1  0.21319599  0.14721343  0.43412005  1  -0.051886  0  -0.08064  -0.125441  0  3.951041  0
C  C124  1  0.18286496  0.11296977  0.96759310  1  0.013672  0  -0.055673  -0.036485  0  3.924271  0
C  C125  1  0.68286407  0.88703350  0.53240920  1  0.013835  0  -0.055694  -0.036599  0  3.924138  0
C  C126  1  0.81713681  0.88702481  0.03241348  1  0.013655  0  -0.055762  -0.036567  0  3.924382  0
C  C127  1  0.31713396  0.11297529  0.46759302  1  0.013544  0  -0.055691  -0.036515  0  3.924191  0
C  C128  1  0.06524885  0.15226216  0.95749488  1  -0.027573  0  -0.004134  -0.064112  0  3.949516  0
C  C129  1  0.56524658  0.84774046  0.54250505  1  -0.027761  0  -0.004172  -0.064042  0  3.949553  0
C  C130  1  0.93475573  0.84773383  0.04250966  1  -0.028591  0  -0.00413  -0.064056  0  3.949511  0
C  C131  1  0.43475239  0.15226903  0.45749671  1  -0.027351  0  -0.00415  -0.064163  0  3.949677  0
C  C132  1  0.05806097  0.22559185  0.91485572  1  0.475921  0  0.040429  0.04613  0  3.949727  0
C  C133  1  0.55805966  0.77441154  0.58514541  1  0.476228  0  0.040436  0.046073  0  3.949951  0
C  C134  1  0.94193333  0.77440342  0.08514819  1  0.47728  0  0.040463  0.04619  0  3.949814  0
C  C135  1  0.44193276  0.22559437  0.41485371  1  0.476198  0  0.040416  0.046151  0  3.950084  0
C  C136  1  0.95352077  0.12182976  0.99790193  1  1.453918  0  0.235197  0.547367  0  4.16611  0
C  C137  1  0.45352086  0.87817451  0.50209684  1  1.45385  0  0.23525  0.547348  0  4.16634  0
C  C138  1  0.04647914  0.87817977  0.00210480  1  1.45549  0  0.235068  0.547247  0  4.166612  0
C  C139  1  0.54647811  0.12182283  0.49789958  1  1.454919  0  0.235175  0.54743  0  4.166265  0
C  C140  1  0.42417563  0.46619109  0.86106325  1  0.477792  0  0.052409  0.102637  0  3.925401  0
C  C141  1  0.92417356  0.53380846  0.63894265  1  0.471954  0  0.052449  0.102633  0  3.925447  0
C  C142  1  0.57582802  0.53381344  0.13894066  1  0.472021  0  0.052489  0.102804  0  3.925241  0
C  C143  1  0.07582915  0.46618468  0.36106154  1  0.471789  0  0.052382  0.10265  0  3.92528  0
C  C144  1  0.52127256  0.52821672  0.88671878  1  -0.076625  0  -0.085626  -0.131346  0  3.962782  0
C  C145  1  0.02127211  0.47178341  0.61328855  1  -0.076882  0  -0.085587  -0.13117  0  3.96274  0
C  C146  1  0.47872361  0.47178710  0.11328560  1  -0.076756  0  -0.085552  -0.13134  0  3.96289  0
C  C147  1  0.97872966  0.52821188  0.38671757  1  -0.076675  0  -0.085493  -0.131214  0  3.962686  0
C  C148  1  0.49892917  0.59904759  0.94770478  1  -0.057925  0  -0.060945  -0.046608  0  3.933722  0
C  C149  1  0.99893221  0.40095643  0.55229952  1  -0.057961  0  -0.061054  -0.04678  0  3.933941  0
C  C150  1  0.50106980  0.40095413  0.05230322  1  -0.057858  0  -0.061075  -0.046698  0  3.933815  0
C  C151  1  0.00107518  0.59903953  0.44770171  1  -0.057801  0  -0.061051  -0.046633  0  3.933717  0
C  C152  1  0.38139560  0.60521154  0.98220054  1  -0.060611  0  -0.012031  -0.080446  0  3.963215  0
C  C153  1  0.88140424  0.39479681  0.51780198  1  -0.06014  0  -0.012129  -0.080652  0  3.963106  0
C  C154  1  0.61860151  0.39479440  0.01780189  1  -0.06026  0  -0.012075  -0.080491  0  3.96303  0
C  C155  1  0.11860502  0.60520125  0.48219563  1  -0.06026  0  -0.012055  -0.080605  0  3.962941  0
C  C156  1  0.28865731  0.54108086  0.95165138  1  0.53107  0  0.050971  0.069507  0  3.909889  0
C  C157  1  0.78865966  0.45892597  0.54835144  1  0.531088  0  0.051018  0.069666  0  3.909667  0
C  C158  1  0.71134166  0.45892291  0.04834747  1  0.530918  0  0.050977  0.069475  0  3.909849  0
C  C159  1  0.21134867  0.54107142  0.45165051  1  0.529377  0  0.05087  0.069428  0  3.909891  0
C  C160  1  0.36441960  0.67930690  0.05068578  1  1.452751  0  0.230097  0.542498  0  4.180719  0
C  C161  1  0.86442452  0.32069922  0.44931319  1  1.452329  0  0.23018  0.54247  0  4.18077  0
C  C162  1  0.63558217  0.32069614  0.94931188  1  1.452281  0  0.230178  0.542467  0  4.180691  0
C  C163  1  0.13557819  0.67930172  0.55068698  1  1.452401  0  0.230151  0.542417  0  4.180687  0
C  C164  1  0.96213082  0.52032194  0.89175379  1  1.542661  0  0.196309  0.622917  0  4.15532  0
C  C165  1  0.46213869  0.47967874  0.60824732  1  1.54174  0  0.196434  0.623114  0  4.155284  0
C  C166  1  0.03786815  0.47967687  0.10824723  1  1.542217  0  0.19638  0.622957  0  4.155288  0
C  C167  1  0.53786122  0.52032216  0.39174953  1  1.542069  0  0.196469  0.623152  0  4.155172  0
C  C168  1  0.87937988  0.60106124  0.92818862  1  -0.029908  0  -0.171181  -0.279727  0  3.956887  0
C  C169  1  0.37938207  0.39894214  0.57181496  1  -0.029933  0  -0.171329  -0.279941  0  3.957088  0
C  C170  1  0.12061816  0.39893969  0.07181210  1  -0.029854  0  -0.171237  -0.279817  0  3.956972  0
C  C171  1  0.62061316  0.60106164  0.42818556  1  -0.02984  0  -0.171308  -0.280044  0  3.957025  0
C  C172  1  0.86337274  0.68175124  0.88327890  1  -0.03504  0  -0.170429  -0.273152  0  3.955397  0
C  C173  1  0.36337038  0.31825081  0.61672229  1  -0.03511  0  -0.170504  -0.27333  0  3.95566  0
C  C174  1  0.13662717  0.31824468  0.11671790  1  -0.035267  0  -0.170403  -0.273234  0  3.955479  0
C  C175  1  0.63662765  0.68175080  0.38327409  1  -0.034274  0  -0.170451  -0.273172  0  3.955535  0
C  C176  1  0.79605194  0.65344217  0.80920711  1  1.518361  0  0.18639  0.606515  0  4.17402  0
C  C177  1  0.29605410  0.34656034  0.69079464  1  1.518267  0  0.18645  0.60665  0  4.173832  0
C  C178  1  0.20394516  0.34655163  0.19079109  1  1.518904  0  0.186516  0.606831  0  4.173964  0
C  C179  1  0.70394768  0.65343985  0.30920212  1  1.518336  0  0.186404  0.606536  0  4.173812  0
N  N180  1  0.97593154  0.31901056  0.73887892  1  -1.218762  0  -0.324197  -0.235938  0  3.488369  0
N  N181  1  0.47593083  0.68098859  0.76112201  1  -1.218836  0  -0.324182  -0.235852  0  3.488401  0
N  N182  1  0.02406463  0.68098891  0.26111775  1  -1.218909  0  -0.324189  -0.235954  0  3.488384  0
N  N183  1  0.52406720  0.31901166  0.23888140  1  -1.218734  0  -0.324177  -0.23592  0  3.488276  0
N  N184  1  0.06181142  0.06319695  0.59220654  1  -1.296628  0  -0.557964  -0.626682  0  3.313215  0
N  N185  1  0.56180333  0.93680356  0.90779369  1  -1.296655  0  -0.557878  -0.626607  0  3.31305  0
N  N186  1  0.93818755  0.93680464  0.40778708  1  -1.296693  0  -0.558007  -0.626776  0  3.312673  0
N  N187  1  0.43818442  0.06319740  0.09220869  1  -1.296638  0  -0.557991  -0.626854  0  3.31278  0
N  N188  1  0.15857028  0.25939475  0.88315206  1  -1.222695  0  -0.329684  -0.234391  0  3.528257  0
N  N189  1  0.65856290  0.74060012  0.61684756  1  -1.223012  0  -0.329764  -0.234497  0  3.528281  0
N  N190  1  0.84143056  0.74059408  0.11684830  1  -1.223076  0  -0.329731  -0.23445  0  3.52814  0
N  N191  1  0.34142952  0.25939652  0.38314933  1  -1.222865  0  -0.329684  -0.23436  0  3.52821  0
N  N192  1  0.84149223  0.12654684  0.96389122  1  -1.304575  0  -0.581776  -0.657334  0  3.343776  0
N  N193  1  0.34149246  0.87345032  0.53610329  1  -1.304549  0  -0.581837  -0.657401  0  3.344055  0
N  N194  1  0.15850955  0.87345275  0.03611707  1  -1.30476  0  -0.581797  -0.657279  0  3.343629  0
N  N195  1  0.65850838  0.12654553  0.46388577  1  -1.304343  0  -0.581781  -0.657335  0  3.343467  0
N  N196  1  0.30966439  0.47313225  0.89216947  1  -1.242156  0  -0.326439  -0.243156  0  3.495334  0
N  N197  1  0.80966513  0.52686949  0.60783551  1  -1.242474  0  -0.326439  -0.243115  0  3.495282  0
N  N198  1  0.69033084  0.52687297  0.10783177  1  -1.242375  0  -0.326474  -0.243223  0  3.495432  0
N  N199  1  0.19034226  0.47312507  0.39216775  1  -1.242123  0  -0.326382  -0.243126  0  3.49539  0
N  N200  1  0.26439175  0.67023794  0.09477494  1  -1.279244  0  -0.576038  -0.655658  0  3.361479  0
N  N201  1  0.76439272  0.32976602  0.40522646  1  -1.278627  0  -0.576055  -0.655663  0  3.361488  0
N  N202  1  0.73560816  0.32976510  0.90522217  1  -1.278693  0  -0.576092  -0.655794  0  3.361291  0
N  N203  1  0.23560532  0.67023351  0.59477686  1  -1.278535  0  -0.576021  -0.655682  0  3.361307  0
O  O204  1  0.87652852  0.07421495  0.53416515  1  -1.176841  0  -0.284625  -0.511234  0  2.215508  0
O  O205  1  0.37652259  0.92577917  0.96583399  1  -1.176879  0  -0.284624  -0.511181  0  2.215333  0
O  O206  1  0.12347700  0.92578519  0.46582553  1  -1.17688  0  -0.284774  -0.511454  0  2.215569  0
O  O207  1  0.62347451  0.07421185  0.03417161  1  -1.17692  0  -0.284697  -0.511431  0  2.215429  0
O  O208  1  0.96515937  0.09641700  0.06007782  1  -1.138752  0  -0.313205  -0.510225  0  2.049055  0
O  O209  1  0.46515365  0.90358630  0.43992033  1  -1.138605  0  -0.313245  -0.510217  0  2.049053  0
O  O210  1  0.03484427  0.90361118  0.93994497  1  -1.139654  0  -0.313066  -0.510136  0  2.049771  0
O  O211  1  0.53484532  0.09638956  0.56006134  1  -1.139862  0  -0.313151  -0.510206  0  2.049417  0
O  O212  1  0.44251935  0.74433192  0.06625119  1  -1.156847  0  -0.319349  -0.528966  0  2.090545  0
O  O213  1  0.94252968  0.25568077  0.43374532  1  -1.157149  0  -0.31944  -0.528977  0  2.090764  0
O  O214  1  0.55748055  0.25567534  0.93373980  1  -1.156924  0  -0.319444  -0.529  0  2.090593  0
O  O215  1  0.05747303  0.74432016  0.56625429  1  -1.157125  0  -0.319428  -0.52896  0  2.090752  0
O  O216  1  0.04318020  0.53707399  0.84372079  1  -1.16911  0  -0.329551  -0.542629  0  2.195772  0
O  O217  1  0.54318649  0.46292736  0.65628007  1  -1.168607  0  -0.329611  -0.542741  0  2.195882  0
O  O218  1  0.95682064  0.46292909  0.15628019  1  -1.168712  0  -0.329577  -0.542618  0  2.195923  0
O  O219  1  0.45681435  0.53707282  0.34371559  1  -1.168701  0  -0.329674  -0.542784  0  2.195755  0
O  O220  1  0.95132872  0.43877625  0.91220039  1  -1.206524  0  -0.338687  -0.599207  0  2.202838  0
O  O221  1  0.45132996  0.56122738  0.58780492  1  -1.206278  0  -0.338666  -0.599182  0  2.202739  0
O  O222  1  0.04867306  0.56122471  0.08780199  1  -1.206469  0  -0.338704  -0.599171  0  2.20267  0
O  O223  1  0.54866527  0.43877496  0.41219320  1  -1.206422  0  -0.33867  -0.599193  0  2.202802  0
O  O224  1  0.78277081  0.71633798  0.76695222  1  -1.179086  0  -0.353167  -0.591771  0  2.158667  0
O  O225  1  0.28276820  0.28366178  0.73305085  1  -1.179103  0  -0.353175  -0.591787  0  2.158547  0
O  O226  1  0.21722816  0.28365653  0.23304607  1  -1.179326  0  -0.353154  -0.591809  0  2.15864  0
O  O227  1  0.71723170  0.71633843  0.26694813  1  -1.179193  0  -0.353173  -0.591763  0  2.158467  0
O  O228  1  0.75161882  0.56922823  0.79218980  1  -1.174612  0  -0.329278  -0.556436  0  2.197707  0
O  O229  1  0.25162283  0.43077457  0.70781195  1  -1.174473  0  -0.329353  -0.556573  0  2.197663  0
O  O230  1  0.24838108  0.43076769  0.20780645  1  -1.174841  0  -0.329388  -0.556657  0  2.197815  0
O  O231  1  0.74838269  0.56922493  0.29218804  1  -1.17455  0  -0.329331  -0.5565  0  2.197698  0
