# generated using pymatgen
data_ZnH32C33NO4F
_symmetry_space_group_name_H-M   'P 1'
_cell_length_a   12.95725823
_cell_length_b   18.39011347
_cell_length_c   19.38292520
_cell_angle_alpha   89.97537124
_cell_angle_beta   90.86417862
_cell_angle_gamma   99.97148916
_symmetry_Int_Tables_number   1
_chemical_formula_structural   ZnH32C33NO4F
_chemical_formula_sum   'Zn2 H64 C66 N2 O8 F2'
_cell_volume   4548.37103805
_cell_formula_units_Z   2
loop_
 _symmetry_equiv_pos_site_id
 _symmetry_equiv_pos_as_xyz
  1  'x, y, z'
loop_
 _atom_site_type_symbol
 _atom_site_label
 _atom_site_symmetry_multiplicity
 _atom_site_fract_x
 _atom_site_fract_y
 _atom_site_fract_z
 _atom_site_occupancy
 _atom_site_pbe_bader_charge
 _atom_site_pbe_bader_spin_density
 _atom_site_pbe_cm5_charge
 _atom_site_pbe_ddec_charge
 _atom_site_pbe_ddec_spin_density
 _atom_site_pbe_ddec_sum_bond_order
 _atom_site_pbe_magmom
Zn  Zn0  1  0.47822584  0.41589543  0.49676320  1  1.296241  0  0.676533  0.841225  0  2.372511  0
Zn  Zn1  1  0.50956064  0.57809853  0.50103191  1  1.29439  0  0.68066  0.835864  0  2.408716  0
H  H2  1  0.18725916  0.59395479  0.48803155  1  0.09683  0  0.10512  0.116417  0  1.014614  0
H  H3  1  0.80251512  0.40892490  0.52908684  1  0.103507  0  0.104777  0.118106  0  1.01517  0
H  H4  1  0.35202578  0.14036629  0.42123290  1  0.062886  0  0.107662  0.116006  0  1.012665  0
H  H5  1  0.67057357  0.85518389  0.54604356  1  0.083161  0  0.109692  0.120507  0  0.99503  0
H  H6  1  0.61750588  0.18972245  0.56145474  1  0.0802  0  0.109022  0.112095  0  1.021931  0
H  H7  1  0.35835347  0.80608368  0.45738311  1  0.0894  0  0.113191  0.121068  0  0.989213  0
H  H8  1  0.59329843  0.32033835  0.55788844  1  0.135884  0  0.125581  0.101748  0  1.001523  0
H  H9  1  0.37333086  0.67289786  0.46288403  1  0.12329  0  0.126883  0.102767  0  0.989325  0
H  H10  1  0.56869181  0.07892685  0.59485090  1  0.067889  0  0.105952  0.104727  0  1.00649  0
H  H11  1  0.43252707  0.91495149  0.39859697  1  0.090556  0  0.106755  0.105372  0  0.998537  0
H  H12  1  0.58303254  0.94732581  0.59864910  1  0.067743  0  0.106462  0.106525  0  0.993409  0
H  H13  1  0.42134627  0.04703280  0.39335362  1  0.043774  0  0.105935  0.104898  0  0.999845  0
H  H14  1  0.15686491  0.37882542  0.58167301  1  0.102532  0  0.117685  0.146162  0  0.981156  0
H  H15  1  0.83322543  0.62264381  0.43321079  1  0.108471  0  0.115018  0.143959  0  0.986263  0
H  H16  1  0.58453706  0.61327589  0.15911502  1  0.056814  0  0.09661  0.098258  0  1.014833  0
H  H17  1  0.62500423  0.42903549  0.85655550  1  0.039945  0  0.096786  0.098633  0  1.013648  0
H  H18  1  0.38221947  0.40166189  0.28115145  1  0.052895  0  0.09947  0.103318  0  1.018331  0
H  H19  1  0.45172190  0.58082010  0.69744079  1  0.074873  0  0.102364  0.108903  0  1.003498  0
H  H20  1  0.33239844  0.48697676  0.05100358  1  0.080484  0  0.102598  0.103199  0  0.994969  0
H  H21  1  0.68399085  0.53741103  0.94525180  1  0.069051  0  0.098908  0.099102  0  1.001891  0
H  H22  1  0.34805358  0.48888940  0.92411814  1  0.059872  0  0.102617  0.103261  0  0.997461  0
H  H23  1  0.66834398  0.53216166  0.07264329  1  0.060888  0  0.099526  0.099979  0  1.002392  0
H  H24  1  0.13501329  0.17326862  0.41560911  1  -0.004928  0  0.07885  0.099172  0  1.012482  0
H  H25  1  0.19574530  0.18006711  0.49871397  1  0.014251  0  0.079149  0.103467  0  1.018844  0
H  H26  1  0.07838254  0.21548232  0.48449160  1  0.022455  0  0.086629  0.114537  0  1.002839  0
H  H27  1  0.23253216  0.32006308  0.48745124  1  0.057014  0  0.08836  0.08745  0  1.02333  0
H  H28  1  0.16880979  0.31292985  0.40665253  1  0.03596  0  0.092023  0.0839  0  0.963143  0
H  H29  1  0.35383981  0.33624157  0.38723027  1  0.099539  0  0.10276  0.12123  0  1.029973  0
H  H30  1  0.30461472  0.24423525  0.36035979  1  0.027193  0  0.093469  0.094584  0  0.97761  0
H  H31  1  0.78175554  0.61085887  0.63969663  1  0.011014  0  0.086799  0.120684  0  1.001533  0
H  H32  1  0.87017989  0.69633719  0.64051388  1  0.00569  0  0.080735  0.102534  0  1.007045  0
H  H33  1  0.79885515  0.66554338  0.71583937  1  0.032922  0  0.086255  0.112472  0  0.999991  0
H  H34  1  0.71307824  0.76212172  0.65832968  1  0.036144  0  0.079623  0.059968  0  0.990111  0
H  H35  1  0.62969332  0.67491768  0.65271928  1  0.033159  0  0.088293  0.083532  0  1.008178  0
H  H36  1  0.70259734  0.65842905  0.53309399  1  0.104643  0  0.101179  0.116816  0  1.028191  0
H  H37  1  0.77145516  0.75020898  0.53881446  1  0.038796  0  0.095872  0.099407  0  0.969601  0
H  H38  1  0.62563151  0.76017184  0.38244814  1  0.015015  0  0.077865  0.105966  0  1.031058  0
H  H39  1  0.67340670  0.78910613  0.29989256  1  0.019215  0  0.080366  0.103677  0  1.008881  0
H  H40  1  0.55977991  0.81892031  0.33175240  1  0.007441  0  0.076548  0.09866  0  1.021748  0
H  H41  1  0.50937436  0.71653062  0.24438149  1  0.023248  0  0.081576  0.067816  0  0.983743  0
H  H42  1  0.46180328  0.68729495  0.32664355  1  -0.001998  0  0.083627  0.076561  0  1.003561  0
H  H43  1  0.61400008  0.62402218  0.34719380  1  0.061918  0  0.09236  0.105276  0  1.012021  0
H  H44  1  0.66622466  0.65536370  0.26648695  1  0.008653  0  0.085668  0.079904  0  0.984019  0
H  H45  1  0.69346419  0.26900957  0.65582810  1  0.023577  0  0.081358  0.105075  0  1.019731  0
H  H46  1  0.71495413  0.25321360  0.74450043  1  0.027984  0  0.083143  0.108466  0  1.003949  0
H  H47  1  0.60406036  0.20186922  0.70112754  1  0.001438  0  0.079616  0.101695  0  1.016305  0
H  H48  1  0.55383446  0.30389788  0.77489238  1  -0.000142  0  0.08466  0.073979  0  0.978558  0
H  H49  1  0.52418477  0.31573109  0.68684186  1  0.051726  0  0.086877  0.082983  0  0.999755  0
H  H50  1  0.68647905  0.40738839  0.67338121  1  0.027196  0  0.09114  0.092108  0  0.992636  0
H  H51  1  0.72393539  0.39366596  0.75995406  1  0.029323  0  0.088913  0.084317  0  0.978942  0
H  H52  1  0.36400504  0.21576821  0.14973598  1  0.021563  0  0.079671  0.100839  0  1.013093  0
H  H53  1  0.41319401  0.24591067  0.06766818  1  0.011256  0  0.083505  0.109257  0  1.00319  0
H  H54  1  0.49394553  0.20745395  0.12742931  1  0.037816  0  0.082937  0.106571  0  1.006615  0
H  H55  1  0.54539988  0.34585167  0.12569739  1  0.050942  0  0.087464  0.076436  0  0.976428  0
H  H56  1  0.49699709  0.31564133  0.20709843  1  -0.001672  0  0.086545  0.07537  0  0.978998  0
H  H57  1  0.31965353  0.34477590  0.17199673  1  0.011321  0  0.088132  0.084209  0  0.98265  0
H  H58  1  0.37306167  0.37821946  0.09232920  1  0.019739  0  0.087693  0.08407  0  1.021819  0
H  H59  1  0.35825160  0.75353536  0.82075462  1  0.015304  0  0.081647  0.104404  0  1.008137  0
H  H60  1  0.38665759  0.73569909  0.90833019  1  0.030349  0  0.083889  0.109405  0  1.002564  0
H  H61  1  0.47146478  0.80436080  0.86206672  1  0.057182  0  0.082937  0.106699  0  1.009424  0
H  H62  1  0.54963479  0.68798250  0.87219189  1  0.026487  0  0.086958  0.076033  0  0.978027  0
H  H63  1  0.52244672  0.70621350  0.78503461  1  0.013303  0  0.085308  0.073185  0  0.985127  0
H  H64  1  0.35228276  0.61742122  0.79139688  1  0.03243  0  0.091143  0.088878  0  0.978364  0
H  H65  1  0.38027448  0.59968193  0.87854975  1  0.024492  0  0.087914  0.083218  0  1.025124  0
C  C66  1  0.54169900  0.48863255  0.62879044  1  1.563726  0  0.21895  0.601962  0  4.164665  0
C  C67  1  0.45915253  0.50746659  0.36844252  1  1.546431  0  0.217424  0.60647  0  4.157615  0
C  C68  1  0.48921347  0.50614498  0.14720184  1  -0.066491  0  -0.008681  0.022051  0  3.988927  0
C  C69  1  0.52676060  0.51170781  0.84920178  1  0.017934  0  -0.009419  0.020184  0  3.989044  0
C  C70  1  0.43232137  0.44452087  0.18174978  1  0.034624  0  -0.013354  0.062781  0  3.960609  0
C  C71  1  0.47653707  0.55562799  0.80424819  1  -0.041997  0  -0.012595  0.065786  0  3.959334  0
C  C72  1  0.42455972  0.44890575  0.25326678  1  -0.052513  0  -0.092089  -0.155279  0  3.992753  0
C  C73  1  0.48878254  0.54713444  0.73341513  1  -0.090783  0  -0.091022  -0.157107  0  3.980861  0
C  C74  1  0.47100441  0.51068501  0.29179077  1  0.00713  0  -0.020799  -0.083909  0  3.948948  0
C  C75  1  0.54461360  0.49548320  0.70580979  1  0.019845  0  -0.018269  -0.077569  0  3.955607  0
C  C76  1  0.40983610  0.49731687  0.02793581  1  -0.073475  0  -0.092921  -0.13353  0  4.01326  0
C  C77  1  0.60662929  0.52591905  0.96843285  1  -0.107724  0  -0.096319  -0.137241  0  4.010544  0
C  C78  1  0.41864492  0.49964728  0.95650954  1  0.012792  0  -0.093683  -0.133818  0  4.011681  0
C  C79  1  0.59780674  0.52343569  0.04008071  1  -0.025578  0  -0.095154  -0.136012  0  4.010503  0
C  C80  1  0.51729125  0.51380492  0.92529534  1  -0.083653  0  -0.008826  0.074787  0  4.007136  0
C  C81  1  0.49926909  0.50851105  0.07114907  1  -0.0138  0  -0.009775  0.074264  0  4.008392  0
C  C82  1  0.40107135  0.25338138  0.45041520  1  0.507486  0  0.134888  0.29611  0  3.899121  0
C  C83  1  0.60581493  0.74080946  0.52918752  1  0.481043  0  0.134645  0.285741  0  3.926268  0
C  C84  1  0.40849264  0.17842430  0.45183174  1  -0.011959  0  -0.084952  -0.239415  0  3.9132  0
C  C85  1  0.60203512  0.81639447  0.52816288  1  -0.009099  0  -0.083004  -0.237149  0  3.914332  0
C  C86  1  0.48518683  0.15225338  0.49191559  1  -0.069269  0  0.01208  0.118397  0  4.010187  0
C  C87  1  0.51391111  0.84227796  0.50192787  1  -0.010286  0  0.01423  0.118299  0  4.023527  0
C  C88  1  0.69052078  0.50422972  0.47374995  1  1.612284  0  0.215179  0.591207  0  4.174284  0
C  C89  1  0.29979973  0.49346396  0.53197165  1  1.590754  0  0.217409  0.594694  0  4.170492  0
C  C90  1  0.55390870  0.20492671  0.53044393  1  -0.023007  0  -0.086703  -0.189062  0  3.968348  0
C  C91  1  0.42971507  0.78960862  0.47755011  1  -0.065839  0  -0.083195  -0.188413  0  3.964468  0
C  C92  1  0.54171667  0.27816512  0.52828707  1  0.500554  0  0.053788  0.113997  0  3.93461  0
C  C93  1  0.43717873  0.71557631  0.48074722  1  0.526086  0  0.056071  0.117581  0  3.934677  0
C  C94  1  0.54042349  0.04369734  0.55091186  1  -0.002998  0  -0.084079  -0.11746  0  3.978585  0
C  C95  1  0.46176709  0.95088295  0.44194002  1  0.000486  0  -0.08455  -0.122507  0  3.986878  0
C  C96  1  0.54847363  0.96934180  0.55325117  1  -0.110416  0  -0.085167  -0.120739  0  3.985402  0
C  C97  1  0.45516738  0.02545222  0.43921552  1  -0.002997  0  -0.083711  -0.1154  0  3.980317  0
C  C98  1  0.50859890  0.92157230  0.49899471  1  -0.053915  0  -0.004558  0.063482  0  4.003652  0
C  C99  1  0.49369474  0.07330575  0.49385335  1  -0.033099  0  -0.005499  0.061473  0  3.99122  0
C  C100  1  0.18321643  0.48785666  0.53429254  1  -0.045582  0  -0.010264  0.01139  0  3.980736  0
C  C101  1  0.80732316  0.51363503  0.48027758  1  -0.048402  0  -0.012359  0.005228  0  3.987117  0
C  C102  1  0.97629289  0.58901495  0.46690853  1  0.349279  0  0.09781  0.242832  0  4.054348  0
C  C103  1  0.01367986  0.41526848  0.55338869  1  0.306354  0  0.098445  0.243552  0  4.052261  0
C  C104  1  0.86990214  0.58002431  0.45756653  1  0.146475  0  -0.097479  -0.233243  0  3.992669  0
C  C105  1  0.12041043  0.42247991  0.55905956  1  0.119184  0  -0.096248  -0.237559  0  3.997838  0
C  C106  1  0.85250138  0.45916733  0.51191326  1  0.012552  0  -0.086805  -0.148637  0  3.959101  0
C  C107  1  0.13765743  0.54404741  0.50627828  1  0.063641  0  -0.088321  -0.150421  0  3.957535  0
C  C108  1  0.96209391  0.46900773  0.52187475  1  0.054864  0  -0.011863  -0.009392  0  4.029704  0
C  C109  1  0.02772903  0.53534286  0.49862794  1  -0.07302  0  -0.01139  -0.008954  0  4.028237  0
C  C110  1  0.53198215  0.57101475  0.25813649  1  0.040343  0  -0.002104  0.115482  0  3.934013  0
C  C111  1  0.59533010  0.45178181  0.75008365  1  0.046549  0  -0.007207  0.1032  0  3.958873  0
C  C112  1  0.53862129  0.56679110  0.18627729  1  -0.085499  0  -0.097558  -0.201182  0  3.985563  0
C  C113  1  0.58639224  0.46239883  0.82107413  1  -0.10642  0  -0.097528  -0.200891  0  3.988437  0
C  C114  1  0.32025141  0.28084593  0.40569626  1  -0.027868  0  -0.161348  -0.250394  0  3.932935  0
C  C115  1  0.21592214  0.28430503  0.44183381  1  -0.015788  0  -0.164818  -0.082727  0  3.936835  0
C  C116  1  0.15318094  0.20919534  0.46120095  1  -0.047735  0  -0.248067  -0.355824  0  3.997381  0
C  C117  1  0.70078259  0.71276953  0.55604354  1  -0.046155  0  -0.161363  -0.248107  0  3.937818  0
C  C118  1  0.70456687  0.70654169  0.63529209  1  -0.035523  0  -0.163755  -0.079208  0  3.951549  0
C  C119  1  0.79400088  0.66786104  0.65925477  1  -0.033056  0  -0.244336  -0.348867  0  3.964055  0
C  C120  1  0.59250537  0.63801674  0.29444623  1  -0.008142  0  -0.164476  -0.197256  0  3.949745  0
C  C121  1  0.53383983  0.70376121  0.29709122  1  0.004119  0  -0.16786  -0.086879  0  3.960777  0
C  C122  1  0.60153673  0.77177441  0.32950103  1  -0.060065  0  -0.250945  -0.352151  0  3.992604  0
C  C123  1  0.65568359  0.39386622  0.72526868  1  -0.018039  0  -0.159313  -0.187955  0  3.956072  0
C  C124  1  0.58930186  0.31590974  0.72392393  1  -0.010738  0  -0.168389  -0.094053  0  3.953294  0
C  C125  1  0.65366051  0.25671169  0.70533849  1  -0.070854  0  -0.246702  -0.354702  0  3.996328  0
C  C126  1  0.39236973  0.37136399  0.14702157  1  -0.011904  0  -0.162987  -0.19612  0  3.972369  0
C  C127  1  0.47401838  0.31984765  0.15246942  1  -0.017067  0  -0.163639  -0.083648  0  3.954611  0
C  C128  1  0.43427743  0.24307426  0.12269000  1  -0.078362  0  -0.245806  -0.353399  0  3.998881  0
C  C129  1  0.41665569  0.61414400  0.82847350  1  -0.015403  0  -0.163143  -0.197673  0  3.97746  0
C  C130  1  0.48535206  0.69096181  0.83500054  1  -0.009979  0  -0.164439  -0.085742  0  3.96016  0
C  C131  1  0.42230054  0.74947065  0.85775112  1  -0.112993  0  -0.245695  -0.354324  0  3.995512  0
N  N132  1  0.46721113  0.30249263  0.48961909  1  -1.254649  0  -0.31795  -0.260766  0  3.432148  0
N  N133  1  0.52284077  0.69135660  0.50581690  1  -1.236951  0  -0.318801  -0.260464  0  3.447961  0
O  O134  1  0.51958706  0.42458829  0.60221446  1  -1.159159  0  -0.308528  -0.541988  0  2.322199  0
O  O135  1  0.45457497  0.56697583  0.40090746  1  -1.169247  0  -0.314608  -0.547821  0  2.346852  0
O  O136  1  0.55761172  0.54956532  0.59563763  1  -1.181742  0  -0.317768  -0.558446  0  2.373832  0
O  O137  1  0.45533864  0.44401885  0.39619659  1  -1.179445  0  -0.318595  -0.560427  0  2.364953  0
O  O138  1  0.63885989  0.43984155  0.48278826  1  -1.169636  0  -0.313541  -0.546615  0  2.34791  0
O  O139  1  0.35502197  0.55764952  0.53305905  1  -1.167077  0  -0.317788  -0.554045  0  2.333471  0
O  O140  1  0.65238925  0.56255648  0.46152319  1  -1.181018  0  -0.316237  -0.554971  0  2.348631  0
O  O141  1  0.33293015  0.43242613  0.52641095  1  -1.163993  0  -0.310211  -0.54067  0  2.343526  0
F  F142  1  0.03747434  0.65264251  0.44469935  1  -0.636838  0  -0.11475  -0.159483  0  1.306382  0
F  F143  1  0.95246354  0.35267334  0.57770357  1  -0.637826  0  -0.112872  -0.158247  0  1.309466  0
