# generated using pymatgen
data_NiH28C20(NO2)4
_symmetry_space_group_name_H-M   'P 1'
_cell_length_a   11.00253858
_cell_length_b   11.36204103
_cell_length_c   13.09927029
_cell_angle_alpha   89.99955204
_cell_angle_beta   90.00100039
_cell_angle_gamma   118.58121319
_symmetry_Int_Tables_number   1
_chemical_formula_structural   NiH28C20(NO2)4
_chemical_formula_sum   'Ni2 H56 C40 N8 O16'
_cell_volume   1438.00389112
_cell_formula_units_Z   2
loop_
 _symmetry_equiv_pos_site_id
 _symmetry_equiv_pos_as_xyz
  1  'x, y, z'
loop_
 _atom_site_type_symbol
 _atom_site_label
 _atom_site_symmetry_multiplicity
 _atom_site_fract_x
 _atom_site_fract_y
 _atom_site_fract_z
 _atom_site_occupancy
 _atom_site_pbe_cm5_charge
 _atom_site_pbe_ddec_charge
 _atom_site_pbe_ddec_spin_density
 _atom_site_pbe_ddec_sum_bond_order
 _atom_site_pbe_magmom
Ni  Ni0  1  0.49999797  0.50000033  0.50000245  1  0.649785  0.616091  -1.766251  2.521736  -1.485
Ni  Ni1  1  0.00000010  0.50000063  0.00000059  1  0.649779  0.615974  1.766249  2.521846  1.485
H  H2  1  0.30227333  0.53743062  0.55634977  1  0.302487  0.241986  -5.7e-05  0.930273  0.0
H  H3  1  0.19772591  0.46256841  0.05635955  1  0.302495  0.241942  5.7e-05  0.9303  0.0
H  H4  1  0.69772261  0.46257004  0.44365055  1  0.302462  0.241967  -5.7e-05  0.930349  0.0
H  H5  1  0.80227333  0.53742751  0.94364611  1  0.302479  0.241892  5.7e-05  0.930425  0.0
H  H6  1  0.58978858  0.47070196  0.66636211  1  0.284846  0.231765  -3.9e-05  1.023798  0.001
H  H7  1  0.91021514  0.52930101  0.16636014  1  0.284845  0.231765  3.8e-05  1.023809  -0.001
H  H8  1  0.41020967  0.52929979  0.33363591  1  0.284931  0.231911  -3.8e-05  1.023806  0.001
H  H9  1  0.08978779  0.47069900  0.83364093  1  0.284886  0.231862  3.9e-05  1.023727  -0.001
H  H10  1  0.33410799  0.35320427  0.69688976  1  0.113335  0.099079  -5.9e-05  0.97167  0.0
H  H11  1  0.16589920  0.64679801  0.19689399  1  0.113282  0.099042  5.9e-05  0.971646  0.0
H  H12  1  0.66589999  0.64680089  0.30310903  1  0.1133  0.099055  -5.9e-05  0.971607  0.0
H  H13  1  0.83409360  0.35319173  0.80311396  1  0.11329  0.098987  5.9e-05  0.971712  0.0
H  H14  1  0.25573422  0.45296198  0.72777834  1  0.100296  0.081959  -0.001551  1.007014  -0.002
H  H15  1  0.24426707  0.54704195  0.22778519  1  0.100278  0.081883  0.001551  1.007148  0.002
H  H16  1  0.74426457  0.54703294  0.27222122  1  0.10032  0.081967  -0.001551  1.006956  -0.002
H  H17  1  0.75572474  0.45295361  0.77222047  1  0.100313  0.081967  0.001551  1.006948  0.002
H  H18  1  0.48409254  0.66234505  0.69662113  1  0.110352  0.094187  4.5e-05  0.992355  0.0
H  H19  1  0.01590906  0.33765696  0.19663435  1  0.110355  0.094212  -4.5e-05  0.992329  0.0
H  H20  1  0.51590426  0.33766153  0.30337308  1  0.110374  0.094286  4.5e-05  0.992305  0.0
H  H21  1  0.98408379  0.66232886  0.80337207  1  0.110382  0.094312  -4.5e-05  0.992221  0.0
H  H22  1  0.49990615  0.55997784  0.79169559  1  0.098793  0.072423  -0.002279  0.974548  -0.002
H  H23  1  0.00009875  0.44002721  0.29170025  1  0.09885  0.072464  0.00228  0.974536  0.002
H  H24  1  0.50009482  0.44002992  0.20830091  1  0.098864  0.072511  -0.002279  0.974522  -0.002
H  H25  1  0.99989271  0.55995756  0.70830159  1  0.098855  0.072443  0.002279  0.974563  0.002
H  H26  1  0.09730307  0.31938767  0.57217122  1  0.097693  0.073925  -0.003254  0.961462  -0.004
H  H27  1  0.40269604  0.68061037  0.07217956  1  0.097693  0.073951  0.003253  0.961453  0.004
H  H28  1  0.90269430  0.68061012  0.42782986  1  0.097702  0.073927  -0.003253  0.961527  -0.004
H  H29  1  0.59729762  0.31938529  0.92782457  1  0.097671  0.073913  0.003253  0.961446  0.004
H  H30  1  0.20605709  0.24736933  0.55029778  1  0.112924  0.101961  -0.000266  0.970647  -0.001
H  H31  1  0.29393885  0.75262269  0.05030475  1  0.11291  0.101951  0.000266  0.970703  0.001
H  H32  1  0.79394401  0.75262668  0.44970101  1  0.112899  0.101963  -0.000266  0.97058  -0.001
H  H33  1  0.70605579  0.24736909  0.94970472  1  0.112934  0.101953  0.000266  0.970655  0.001
H  H34  1  0.76123049  0.69212670  0.73041813  1  0.093843  0.065006  -0.003534  0.984715  -0.004
H  H35  1  0.73877594  0.30787539  0.23042119  1  0.093863  0.065086  0.003533  0.984761  0.004
H  H36  1  0.23876921  0.30787023  0.26958066  1  0.09387  0.065076  -0.003533  0.9847  -0.004
H  H37  1  0.26122090  0.69212727  0.76958524  1  0.093822  0.065015  0.003533  0.984781  0.004
H  H38  1  0.71361981  0.76194022  0.62714842  1  0.11123  0.096011  -0.000332  0.96535  -0.001
H  H39  1  0.78638084  0.23805773  0.12715649  1  0.111231  0.096006  0.000332  0.965353  0.001
H  H40  1  0.28638307  0.23806371  0.37285037  1  0.111219  0.096024  -0.000332  0.965351  -0.001
H  H41  1  0.21360822  0.76193378  0.87285222  1  0.111231  0.096064  0.000332  0.965216  0.001
H  H42  1  0.06999156  0.25961546  0.39629119  1  0.104632  0.121605  0.000103  0.988464  0.0
H  H43  1  0.43000113  0.74038209  0.89630180  1  0.104686  0.12166  -0.000103  0.988428  0.0
H  H44  1  0.93001229  0.74038460  0.60370837  1  0.104642  0.121626  0.000103  0.988408  0.0
H  H45  1  0.56999389  0.25961657  0.10370538  1  0.104639  0.121579  -0.000103  0.988464  0.0
H  H46  1  0.17175343  0.43577798  0.39811818  1  0.087752  0.075762  0.0002  1.005523  0.0
H  H47  1  0.32823984  0.56421274  0.89812616  1  0.087797  0.075866  -0.0002  1.005436  0.0
H  H48  1  0.82824030  0.56421180  0.60188138  1  0.087781  0.07586  0.0002  1.005452  0.0
H  H49  1  0.67175759  0.43577917  0.10187797  1  0.087745  0.075801  -0.0002  1.005475  0.0
H  H50  1  0.52263747  0.83337692  0.60355916  1  0.105585  0.10474  -0.000102  1.066708  0.0
H  H51  1  0.97735660  0.16662562  0.10355381  1  0.105566  0.10477  0.000102  1.066691  0.0
H  H52  1  0.47737796  0.16662860  0.39644192  1  0.105552  0.104715  -0.000102  1.066641  0.0
H  H53  1  0.02263840  0.83337499  0.89643811  1  0.10559  0.104744  0.000102  1.066595  0.0
H  H54  1  0.43375373  0.80454691  0.26564358  1  0.290313  0.340473  3.2e-05  1.028858  0.0
H  H55  1  0.06627517  0.19547009  0.76564325  1  0.290263  0.340591  -3.2e-05  1.028724  0.0
H  H56  1  0.56626117  0.19546348  0.73435292  1  0.290282  0.340569  3.2e-05  1.028733  0.0
H  H57  1  0.93372503  0.80452392  0.23434867  1  0.290276  0.340642  -3.2e-05  1.028614  0.0
C  C58  1  0.33779208  0.44998132  0.68158861  1  -0.071923  -0.062523  -0.000469  3.900963  0.001
C  C59  1  0.16220880  0.55001576  0.18159420  1  -0.071806  -0.0624  0.000469  3.90082  -0.001
C  C60  1  0.66220900  0.55001665  0.31841018  1  -0.07192  -0.062497  -0.00047  3.900804  0.001
C  C61  1  0.83778259  0.44997488  0.81841069  1  -0.071927  -0.062466  0.00047  3.900814  -0.001
C  C62  1  0.47955503  0.56462289  0.70960001  1  -0.068373  -0.050721  -0.000594  3.915615  0.001
C  C63  1  0.02044638  0.43537812  0.20960501  1  -0.068374  -0.050723  0.000595  3.915843  -0.001
C  C64  1  0.52044320  0.43538082  0.29039649  1  -0.068461  -0.05095  -0.000595  3.915745  0.001
C  C65  1  0.97954828  0.56461171  0.79039760  1  -0.06843  -0.050849  0.000595  3.915727  -0.001
C  C66  1  0.19173322  0.33421104  0.53173604  1  -0.068451  -0.02144  -0.000373  3.891171  0.002
C  C67  1  0.30826555  0.66578602  0.03174458  1  -0.068476  -0.021535  0.000373  3.891142  -0.002
C  C68  1  0.80826787  0.66578693  0.46826580  1  -0.06847  -0.021532  -0.000373  3.891213  0.002
C  C69  1  0.69172814  0.33420767  0.96826184  1  -0.068466  -0.021481  0.000373  3.891221  -0.002
C  C70  1  0.72275220  0.67369937  0.65092416  1  -0.068365  -0.013763  -0.000414  3.898689  0.002
C  C71  1  0.77724937  0.32630155  0.15092691  1  -0.068531  -0.014079  0.000415  3.898778  -0.002
C  C72  1  0.27724977  0.32630256  0.34907386  1  -0.068452  -0.013944  -0.000414  3.898734  0.002
C  C73  1  0.22274571  0.67369319  0.84907875  1  -0.068496  -0.014021  0.000414  3.898647  -0.002
C  C74  1  0.17256893  0.34134998  0.41691879  1  -0.161797  -0.201873  -0.000644  3.937818  -0.001
C  C75  1  0.32742564  0.65864275  0.91692765  1  -0.161853  -0.201955  0.000644  3.93794  0.001
C  C76  1  0.82743265  0.65864507  0.58308153  1  -0.161831  -0.201979  -0.000644  3.93792  -0.001
C  C77  1  0.67257130  0.34135208  0.08307801  1  -0.16176  -0.201802  0.000644  3.937841  0.001
C  C78  1  0.51242843  0.90741309  0.55730282  1  -0.079277  -0.104342  -0.000198  3.962673  0.0
C  C79  1  0.98757443  0.09259283  0.05729660  1  -0.079189  -0.104363  0.000198  3.962787  0.0
C  C80  1  0.48757493  0.09258988  0.44270436  1  -0.079157  -0.104223  -0.000199  3.962773  0.0
C  C81  1  0.01244043  0.90742147  0.94269609  1  -0.079269  -0.104305  0.000199  3.962511  0.0
C  C82  1  0.49632704  0.88570083  0.45193889  1  -0.009967  -0.049564  -0.003453  3.91796  -0.004
C  C83  1  0.00367550  0.11430794  0.95193205  1  -0.009998  -0.049656  0.003454  3.918016  0.004
C  C84  1  0.50369108  0.11431265  0.54806295  1  -0.010052  -0.049664  -0.003451  3.918151  -0.004
C  C85  1  0.99631576  0.88569445  0.04805376  1  -0.010053  -0.049578  0.00345  3.918077  0.004
C  C86  1  0.48349980  0.98296756  0.39152975  1  -0.00772  -0.0542  -0.000482  3.903185  -0.001
C  C87  1  0.01651263  0.01704564  0.89152377  1  -0.007724  -0.054123  0.000482  3.903087  0.001
C  C88  1  0.51651701  0.01703900  0.60847591  1  -0.007653  -0.054068  -0.000483  3.90299  -0.001
C  C89  1  0.98349297  0.98296430  0.10846509  1  -0.007671  -0.054095  0.000483  3.903121  0.001
C  C90  1  0.49144067  0.75608068  0.41743737  1  0.217408  0.563604  -0.001066  4.176684  0.0
C  C91  1  0.00855700  0.24392689  0.91743202  1  0.217496  0.563861  0.001066  4.176731  0.0
C  C92  1  0.50856452  0.24392434  0.58256065  1  0.217431  0.563716  -0.001067  4.176814  0.0
C  C93  1  0.99143701  0.75607955  0.08255456  1  0.217489  0.56373  0.001067  4.176629  0.0
C  C94  1  0.46718754  0.98948210  0.27622548  1  0.222202  0.571868  0.000177  4.149364  0.0
C  C95  1  0.03283733  0.01053960  0.77622437  1  0.222042  0.571768  -0.000177  4.149205  0.0
C  C96  1  0.53283020  0.01052451  0.72377637  1  0.222069  0.571734  0.000177  4.149323  0.0
C  C97  1  0.96715715  0.98946589  0.22376908  1  0.221955  0.571581  -0.000177  4.149848  0.0
N  N98  1  0.31371813  0.45470736  0.57105172  1  -0.487069  -0.301429  -0.047383  3.535044  -0.068
N  N99  1  0.18627633  0.54528849  0.07105771  1  -0.487067  -0.301287  0.04738  3.53468  0.068
N  N100  1  0.68627690  0.54529129  0.42894860  1  -0.487038  -0.301367  -0.047378  3.535002  -0.068
N  N101  1  0.81371784  0.45470425  0.92894642  1  -0.487036  -0.301239  0.047379  3.535048  0.068
N  N102  1  0.58456353  0.55581806  0.64539878  1  -0.49908  -0.326588  -0.048149  3.559701  -0.069
N  N103  1  0.91543886  0.44418291  0.14540053  1  -0.499014  -0.326455  0.048144  3.559542  0.069
N  N104  1  0.41543518  0.44418470  0.35460077  1  -0.499067  -0.326616  -0.048141  3.559691  -0.069
N  N105  1  0.08455900  0.55581197  0.85460284  1  -0.499039  -0.326561  0.048148  3.559593  0.069
O  O106  1  0.53156438  0.69855752  0.48169489  1  -0.298645  -0.519911  -0.034894  2.380285  -0.053
O  O107  1  0.96842810  0.30144474  0.98168922  1  -0.298652  -0.519971  0.034896  2.380341  0.053
O  O108  1  0.46842511  0.30143695  0.51830772  1  -0.298668  -0.520008  -0.034891  2.380297  -0.053
O  O109  1  0.03157798  0.69856424  0.01830652  1  -0.298675  -0.519996  0.034888  2.380335  0.053
O  O110  1  0.44361128  0.70806639  0.32892385  1  -0.315119  -0.539722  0.000533  2.263688  0.0
O  O111  1  0.05639575  0.29194169  0.82892500  1  -0.31516  -0.539881  -0.000533  2.263913  0.0
O  O112  1  0.55638509  0.29193723  0.67107418  1  -0.315099  -0.539731  0.000531  2.26376  0.0
O  O113  1  0.94361641  0.70806465  0.17107074  1  -0.315118  -0.53979  -0.000531  2.263641  0.0
O  O114  1  0.43559323  0.88170360  0.22038280  1  -0.342096  -0.497415  0.000143  2.31499  0.0
O  O115  1  0.06444062  0.11832835  0.72037762  1  -0.341956  -0.497535  -0.000143  2.314842  0.0
O  O116  1  0.56442718  0.11831293  0.77962057  1  -0.341986  -0.497494  0.000143  2.31461  0.0
O  O117  1  0.93556169  0.88168437  0.27960743  1  -0.341935  -0.497475  -0.000143  2.314929  0.0
O  O118  1  0.48114295  0.09387319  0.23712645  1  -0.30073  -0.500928  0.000172  2.133055  0.0
O  O119  1  0.01887138  0.90614704  0.73711599  1  -0.30068  -0.500876  -0.000172  2.132892  0.0
O  O120  1  0.51886551  0.90613101  0.76287692  1  -0.300703  -0.500851  0.000172  2.133133  0.0
O  O121  1  0.98111199  0.09385399  0.26286372  1  -0.30064  -0.500788  -0.000172  2.133315  0.0
