# generated using pymatgen
data_LaH11C6O7
_symmetry_space_group_name_H-M   'P 1'
_cell_length_a   8.54635080
_cell_length_b   9.81706885
_cell_length_c   13.33758660
_cell_angle_alpha   87.02105600
_cell_angle_beta   75.46990266
_cell_angle_gamma   75.35468996
_symmetry_Int_Tables_number   1
_chemical_formula_structural   LaH11C6O7
_chemical_formula_sum   'La4 H44 C24 O28'
_cell_volume   1047.96081645
_cell_formula_units_Z   4
loop_
 _symmetry_equiv_pos_site_id
 _symmetry_equiv_pos_as_xyz
  1  'x, y, z'
loop_
 _atom_site_type_symbol
 _atom_site_label
 _atom_site_symmetry_multiplicity
 _atom_site_fract_x
 _atom_site_fract_y
 _atom_site_fract_z
 _atom_site_occupancy
 _atom_site_hle17_bader_spin_density
 _atom_site_hle17_ddec_charge
 _atom_site_hle17_ddec_spin_density
 _atom_site_hle17_ddec_sum_bond_order
 _atom_site_hle17_magmom
 _atom_site_hse06_10hf_bader_spin_density
 _atom_site_hse06_10hf_ddec_charge
 _atom_site_hse06_10hf_ddec_spin_density
 _atom_site_hse06_10hf_ddec_sum_bond_order
 _atom_site_hse06_10hf_magmom
 _atom_site_hse06_bader_spin_density
 _atom_site_hse06_ddec_charge
 _atom_site_hse06_ddec_spin_density
 _atom_site_hse06_ddec_sum_bond_order
 _atom_site_hse06_magmom
 _atom_site_pbe_bader_spin_density
 _atom_site_pbe_cm5_charge
 _atom_site_pbe_ddec_charge
 _atom_site_pbe_ddec_spin_density
 _atom_site_pbe_ddec_sum_bond_order
 _atom_site_pbe_magmom
La  La0  1  0.25832153  0.99544294  0.98282843  1  0  2.145271  0  1.772167  0  0  2.012348  0  2.298075  0  0  2.118354  0  2.196757  0  0  1.427905  1.933448  0  2.368966  0
La  La1  1  0.74168236  0.00456153  0.01717655  1  0  2.145194  0  1.772217  0  0  2.012292  0  2.298096  0  0  2.118301  0  2.196774  0  0  1.427873  1.933405  0  2.368944  0
La  La2  1  0.42249946  0.87973503  0.64654867  1  0  2.051357  0  1.722308  0  0  1.919951  0  2.230313  0  0  2.02375  0  2.135357  0  0  1.384355  1.842791  0  2.295934  0
La  La3  1  0.57749398  0.12026415  0.35345214  1  0  2.05129  0  1.722355  0  0  1.919889  0  2.230342  0  0  2.023671  0  2.135411  0  0  1.384342  1.842697  0  2.296004  0
H  H4  1  0.67159803  0.65894885  0.14535702  1  0  0.146136  0  0.965124  0  0  0.164904  0  1.025867  0  0  0.167167  0  1.025448  0  0  0.106212  0.163326  0  1.026108  0
H  H5  1  0.32841389  0.34105350  0.85463479  1  0  0.146071  0  0.965313  0  0  0.164961  0  1.025902  0  0  0.167225  0  1.025482  0  0  0.106247  0.163385  0  1.026148  0
H  H6  1  0.52941855  0.75417163  0.25312761  1  0  0.14458  0  0.944164  0  0  0.162711  0  1.003094  0  0  0.165164  0  1.002245  0  0  0.107945  0.160983  0  1.003719  0
H  H7  1  0.47059668  0.24581916  0.74687312  1  0  0.144633  0  0.944234  0  0  0.162758  0  1.003157  0  0  0.165208  0  1.002314  0  0  0.10794  0.16103  0  1.003777  0
H  H8  1  0.48714257  0.60137061  0.20860356  1  0  0.148272  0  0.94917  0  0  0.166518  0  1.007109  0  0  0.169363  0  1.005556  0  0  0.10019  0.164384  0  1.008399  0
H  H9  1  0.51287695  0.39862228  0.79139042  1  0  0.148322  0  0.949112  0  0  0.166538  0  1.007092  0  0  0.169393  0  1.005525  0  0  0.10018  0.164408  0  1.008384  0
H  H10  1  0.78003777  0.37579621  0.14808725  1  0  0.14637  0  0.940565  0  0  0.165225  0  0.999243  0  0  0.167404  0  0.999101  0  0  0.109635  0.163648  0  0.999408  0
H  H11  1  0.21996689  0.62419772  0.85191276  1  0  0.146383  0  0.940578  0  0  0.165238  0  0.999248  0  0  0.167417  0  0.999109  0  0  0.109637  0.163662  0  0.999411  0
H  H12  1  0.73930221  0.38820296  0.02402265  1  0  0.149969  0  0.958395  0  0  0.169585  0  1.017199  0  0  0.17178  0  1.017176  0  0  0.108368  0.167977  0  1.017356  0
H  H13  1  0.26069846  0.61179623  0.97597853  1  0  0.149892  0  0.958451  0  0  0.169531  0  1.017233  0  0  0.171726  0  1.01721  0  0  0.108354  0.167923  0  1.017392  0
H  H14  1  0.87628444  0.48437490  0.05178119  1  0  0.140243  0  0.970349  0  0  0.1558  0  1.033385  0  0  0.158869  0  1.031585  0  0  0.095673  0.153671  0  1.034576  0
H  H15  1  0.12371440  0.51562640  0.94822095  1  0  0.140267  0  0.97031  0  0  0.155816  0  1.033367  0  0  0.158884  0  1.031567  0  0  0.095694  0.153687  0  1.034557  0
H  H16  1  0.06342920  0.35185603  0.82389123  1  0  0.14621  0  0.946081  0  0  0.166981  0  1.002494  0  0  0.169054  0  1.002504  0  0  0.106161  0.165436  0  1.002577  0
H  H17  1  0.93658376  0.64814635  0.17611317  1  0  0.146263  0  0.94596  0  0  0.166948  0  1.002455  0  0  0.169021  0  1.002463  0  0  0.106165  0.165408  0  1.002532  0
H  H18  1  0.91650514  0.25746501  0.81532089  1  0  0.166555  0  0.96223  0  0  0.182683  0  1.023925  0  0  0.186417  0  1.02184  0  0  0.111862  0.179936  0  1.025524  0
H  H19  1  0.08350296  0.74254578  0.18468095  1  0  0.166624  0  0.962107  0  0  0.18266  0  1.023891  0  0  0.18639  0  1.021816  0  0  0.111851  0.17992  0  1.025472  0
H  H20  1  0.00276845  0.34968447  0.70456541  1  0  0.132338  0  0.949036  0  0  0.153062  0  1.004252  0  0  0.155394  0  1.003132  0  0  0.097409  0.151255  0  1.005305  0
H  H21  1  0.99724298  0.65032317  0.29543752  1  0  0.132267  0  0.948878  0  0  0.152965  0  1.004127  0  0  0.155298  0  1.003004  0  0  0.097368  0.151144  0  1.0052  0
H  H22  1  0.94391830  0.70224260  0.61241397  1  0  0.152181  0  0.937246  0  0  0.1679  0  1.001091  0  0  0.171305  0  0.998928  0  0  0.105635  0.165457  0  1.002707  0
H  H23  1  0.05607027  0.29776499  0.38758429  1  0  0.152208  0  0.937161  0  0  0.167908  0  1.001042  0  0  0.171329  0  0.998859  0  0  0.105627  0.165461  0  1.002658  0
H  H24  1  0.96265793  0.64138481  0.73676135  1  0  0.142108  0  0.935066  0  0  0.165546  0  0.986347  0  0  0.16755  0  0.986281  0  0  0.105032  0.164039  0  0.986602  0
H  H25  1  0.03733008  0.35861646  0.26323798  1  0  0.142131  0  0.935061  0  0  0.165582  0  0.986323  0  0  0.167586  0  0.986259  0  0  0.105059  0.164074  0  0.986585  0
H  H26  1  0.08815973  0.53905816  0.62367814  1  0  0.126647  0  0.951428  0  0  0.14506  0  1.01095  0  0  0.147609  0  1.009263  0  0  0.094567  0.1432  0  1.012264  0
H  H27  1  0.91182801  0.46094417  0.37631820  1  0  0.126606  0  0.951438  0  0  0.145018  0  1.010977  0  0  0.147568  0  1.009292  0  0  0.094542  0.143169  0  1.012277  0
H  H28  1  0.91372114  0.10614840  0.52225103  1  0  0.140864  0  0.943131  0  0  0.161876  0  0.999921  0  0  0.163836  0  0.999579  0  0  0.107712  0.160467  0  1.000217  0
H  H29  1  0.08627628  0.89384973  0.47774620  1  0  0.140904  0  0.942999  0  0  0.161886  0  0.999838  0  0  0.163845  0  0.999498  0  0  0.107714  0.16048  0  1.000141  0
H  H30  1  0.88292912  0.11094293  0.66017870  1  0  0.143788  0  0.952401  0  0  0.162554  0  1.011664  0  0  0.165264  0  1.010466  0  0  0.103102  0.160539  0  1.012689  0
H  H31  1  0.11707315  0.88905520  0.33981627  1  0  0.14381  0  0.952295  0  0  0.162628  0  1.01151  0  0  0.165337  0  1.010313  0  0  0.103148  0.160622  0  1.012521  0
H  H32  1  0.76225388  0.24592631  0.59444329  1  0  0.155521  0  0.91838  0  0  0.178405  0  0.969581  0  0  0.181049  0  0.968406  0  0  0.112739  0.176531  0  0.970445  0
H  H33  1  0.23774265  0.75407077  0.40555337  1  0  0.15551  0  0.918393  0  0  0.178405  0  0.969588  0  0  0.181049  0  0.968414  0  0  0.112724  0.176529  0  0.970456  0
H  H34  1  0.71530192  0.66619027  0.90808543  1  0  0.161239  0  0.95706  0  0  0.176459  0  1.020762  0  0  0.179963  0  1.018921  0  0  0.110266  0.173947  0  1.022143  0
H  H35  1  0.28469362  0.33380996  0.09191576  1  0  0.161224  0  0.95706  0  0  0.176429  0  1.020777  0  0  0.17993  0  1.018947  0  0  0.110252  0.173918  0  1.022164  0
H  H36  1  0.70112073  0.50708158  0.85395772  1  0  0.14071  0  0.95284  0  0  0.159558  0  1.01152  0  0  0.162153  0  1.01019  0  0  0.098309  0.157603  0  1.012683  0
H  H37  1  0.29887269  0.49292182  0.14604144  1  0  0.140686  0  0.952794  0  0  0.159565  0  1.011463  0  0  0.16216  0  1.010131  0  0  0.098294  0.157615  0  1.012618  0
H  H38  1  0.54184690  0.59642828  0.96060135  1  0  0.136404  0  0.966361  0  0  0.157067  0  1.02552  0  0  0.15901  0  1.025537  0  0  0.103269  0.155585  0  1.025769  0
H  H39  1  0.45815377  0.40357092  0.03940058  1  0  0.13631  0  0.966376  0  0  0.156992  0  1.025534  0  0  0.158938  0  1.025546  0  0  0.103244  0.155511  0  1.025785  0
H  H40  1  0.24184638  0.04356345  0.21987567  1  0  0.433535  0  0.869546  0  0  0.403936  0  0.930992  0  0  0.415741  0  0.914011  0  0  0.298029  0.395434  0  0.94322  0
H  H41  1  0.75815218  0.95643469  0.78012663  1  0  0.433545  0  0.869551  0  0  0.403954  0  0.930985  0  0  0.415759  0  0.914004  0  0  0.29805  0.395452  0  0.943212  0
H  H42  1  0.05229639  0.10404372  0.21336646  1  0  0.437243  0  0.86438  0  0  0.407227  0  0.926321  0  0  0.419378  0  0.908852  0  0  0.296266  0.398526  0  0.938801  0
H  H43  1  0.94770070  0.89595126  0.78663469  1  0  0.437267  0  0.864348  0  0  0.407255  0  0.926281  0  0  0.419406  0  0.908813  0  0  0.296289  0.39855  0  0.93877  0
H  H44  1  0.72973476  0.76936505  0.45709117  1  0  0.439595  0  0.862875  0  0  0.406096  0  0.929934  0  0  0.41868  0  0.911738  0  0  0.299369  0.397087  0  0.942936  0
H  H45  1  0.27026080  0.23063097  0.54291168  1  0  0.439495  0  0.863001  0  0  0.405988  0  0.930073  0  0  0.418573  0  0.911875  0  0  0.299338  0.39698  0  0.943069  0
H  H46  1  0.68723412  0.63531059  0.52379560  1  0  0.437864  0  0.809913  0  0  0.424679  0  0.857511  0  0  0.433284  0  0.845121  0  0  0.336451  0.418409  0  0.864503  0
H  H47  1  0.31276089  0.36468333  0.47620442  1  0  0.437841  0  0.810008  0  0  0.424661  0  0.857544  0  0  0.433259  0  0.845164  0  0  0.336479  0.418387  0  0.864568  0
C  C48  1  0.45003796  0.78589479  0.11277565  1  0  0.781336  0  3.804928  0  0  0.74265  0  4.098707  0  0  0.777805  0  4.092185  0  0  0.223882  0.718399  0  4.102319  0
C  C49  1  0.54997027  0.21410336  0.88722515  1  0  0.781211  0  3.805283  0  0  0.742514  0  4.099089  0  0  0.777669  0  4.092566  0  0  0.223846  0.718278  0  4.102684  0
C  C50  1  0.53874404  0.69253738  0.18459170  1  0  -0.463863  0  3.617425  0  0  -0.536605  0  3.841154  0  0  -0.543537  0  3.842485  0  0  -0.238663  -0.531692  0  3.840318  0
C  C51  1  0.46126937  0.30745972  0.81540533  1  0  -0.463939  0  3.617737  0  0  -0.536726  0  3.84138  0  0  -0.543663  0  3.842698  0  0  -0.238693  -0.531821  0  3.840549  0
C  C52  1  0.97780980  0.26045911  0.02943112  1  0  0.78072  0  3.807848  0  0  0.743123  0  4.098673  0  0  0.778285  0  4.092008  0  0  0.223553  0.718944  0  4.10218  0
C  C53  1  0.02219171  0.73954535  0.97057124  1  0  0.78066  0  3.807987  0  0  0.74319  0  4.09861  0  0  0.778352  0  4.091947  0  0  0.223575  0.718997  0  4.102132  0
C  C54  1  0.83575864  0.38643910  0.06529718  1  0  -0.470426  0  3.625768  0  0  -0.545528  0  3.853668  0  0  -0.552697  0  3.85492  0  0  -0.241697  -0.54047  0  3.852767  0
C  C55  1  0.16424233  0.61356325  0.93470234  1  0  -0.470337  0  3.625843  0  0  -0.545509  0  3.853711  0  0  -0.55268  0  3.854968  0  0  -0.241712  -0.540453  0  3.852816  0
C  C56  1  0.16821094  0.15832013  0.73844712  1  0  0.784154  0  3.810239  0  0  0.744466  0  4.105682  0  0  0.780037  0  4.098071  0  0  0.230925  0.719929  0  4.110136  0
C  C57  1  0.83179240  0.84168223  0.26155503  1  0  0.784098  0  3.810345  0  0  0.744373  0  4.105814  0  0  0.779943  0  4.098207  0  0  0.230879  0.719846  0  4.110254  0
C  C58  1  0.02982020  0.28770933  0.77151365  1  0  -0.478933  0  3.645604  0  0  -0.554246  0  3.871808  0  0  -0.561685  0  3.872613  0  0  -0.241466  -0.548904  0  3.871469  0
C  C59  1  0.97018939  0.71230041  0.22849024  1  0  -0.478939  0  3.645284  0  0  -0.554047  0  3.871539  0  0  -0.561484  0  3.872347  0  0  -0.241398  -0.548711  0  3.871211  0
C  C60  1  0.16810361  0.72199757  0.64953315  1  0  0.72865  0  3.864095  0  0  0.693241  0  4.161457  0  0  0.725644  0  4.158925  0  0  0.200909  0.671168  0  4.16202  0
C  C61  1  0.83188990  0.27800160  0.35046240  1  0  0.728619  0  3.864363  0  0  0.693185  0  4.16176  0  0  0.72559  0  4.159228  0  0  0.200923  0.671107  0  4.162325  0
C  C62  1  0.03362423  0.64559427  0.65621186  1  0  -0.452408  0  3.650753  0  0  -0.525006  0  3.877093  0  0  -0.531394  0  3.878481  0  0  -0.241722  -0.520528  0  3.876278  0
C  C63  1  0.96636649  0.35441017  0.34378543  1  0  -0.452391  0  3.650685  0  0  -0.524962  0  3.877001  0  0  -0.531377  0  3.87839  0  0  -0.241704  -0.520491  0  3.876185  0
C  C64  1  0.68950386  0.05271572  0.60726278  1  0  0.771444  0  3.80747  0  0  0.73361  0  4.10023  0  0  0.768723  0  4.093811  0  0  0.228018  0.709428  0  4.103818  0
C  C65  1  0.31049747  0.94728136  0.39273538  1  0  0.771417  0  3.807454  0  0  0.733603  0  4.100183  0  0  0.768716  0  4.093765  0  0  0.228075  0.709445  0  4.10374  0
C  C66  1  0.82120364  0.13283189  0.59646225  1  0  -0.461185  0  3.63693  0  0  -0.538039  0  3.863274  0  0  -0.544543  0  3.864475  0  0  -0.236236  -0.533471  0  3.862565  0
C  C67  1  0.17879683  0.86716413  0.40353384  1  0  -0.461237  0  3.636684  0  0  -0.53815  0  3.863069  0  0  -0.544656  0  3.864273  0  0  -0.236276  -0.533596  0  3.862348  0
C  C68  1  0.53835385  0.69654414  0.81530536  1  0  0.768316  0  3.827941  0  0  0.734232  0  4.120221  0  0  0.768797  0  4.1149  0  0  0.215975  0.710333  0  4.123021  0
C  C69  1  0.46163381  0.30345820  0.18469774  1  0  0.768599  0  3.827646  0  0  0.734367  0  4.120136  0  0  0.768949  0  4.114784  0  0  0.216031  0.710467  0  4.122941  0
C  C70  1  0.63081512  0.61022042  0.88796859  1  0  -0.475994  0  3.639809  0  0  -0.553552  0  3.870494  0  0  -0.560644  0  3.870961  0  0  -0.245311  -0.548587  0  3.870501  0
C  C71  1  0.36918161  0.38977982  0.11203316  1  0  -0.475932  0  3.639684  0  0  -0.553471  0  3.870376  0  0  -0.560567  0  3.870844  0  0  -0.245227  -0.548506  0  3.870386  0
O  O72  1  0.50590756  0.89246249  0.07234277  1  0  -0.780411  0  2.026561  0  0  -0.725238  0  2.294626  0  0  -0.765747  0  2.287787  0  0  -0.431109  -0.6957  0  2.298178  0
O  O73  1  0.49409859  0.10753460  0.92765614  1  0  -0.780364  0  2.026636  0  0  -0.725165  0  2.294672  0  0  -0.765672  0  2.287833  0  0  -0.431066  -0.695633  0  2.298222  0
O  O74  1  0.32316973  0.76297687  0.09095976  1  0  -0.679157  0  1.959056  0  0  -0.630021  0  2.193598  0  0  -0.66108  0  2.187147  0  0  -0.342442  -0.607866  0  2.197246  0
O  O75  1  0.67683879  0.23702022  0.90904177  1  0  -0.679049  0  1.959259  0  0  -0.629956  0  2.19384  0  0  -0.661037  0  2.187428  0  0  -0.342448  -0.607816  0  2.197507  0
O  O76  1  0.94588734  0.13814955  0.03060196  1  0  -0.777417  0  2.031556  0  0  -0.722268  0  2.297733  0  0  -0.762677  0  2.291045  0  0  -0.433493  -0.69338  0  2.301206  0
O  O77  1  0.05411721  0.86185281  0.96940075  1  0  -0.777477  0  2.031589  0  0  -0.722395  0  2.297738  0  0  -0.762804  0  2.291049  0  0  -0.433598  -0.693505  0  2.301214  0
O  O78  1  0.12676679  0.27074342  0.99908777  1  0  -0.677573  0  1.964271  0  0  -0.628402  0  2.197157  0  0  -0.659278  0  2.190718  0  0  -0.34313  -0.606493  0  2.200618  0
O  O79  1  0.87323742  0.72926000  0.00091720  1  0  -0.677538  0  1.964338  0  0  -0.628383  0  2.197125  0  0  -0.659259  0  2.190687  0  0  -0.343076  -0.606466  0  2.200583  0
O  O80  1  0.21896189  0.07135970  0.80487883  1  0  -0.740098  0  2.003242  0  0  -0.691765  0  2.270706  0  0  -0.729393  0  2.263333  0  0  -0.383496  -0.664606  0  2.274922  0
O  O81  1  0.78104266  0.92864266  0.19512388  1  0  -0.74007  0  2.003226  0  0  -0.69173  0  2.270702  0  0  -0.729355  0  2.263329  0  0  -0.383473  -0.664568  0  2.274903  0
O  O82  1  0.23559523  0.13224551  0.64201803  1  0  -0.69933  0  2.009976  0  0  -0.642382  0  2.243697  0  0  -0.674684  0  2.234586  0  0  -0.353199  -0.619321  0  2.249246  0
O  O83  1  0.76440002  0.86775157  0.35798408  1  0  -0.699341  0  2.010035  0  0  -0.642372  0  2.243756  0  0  -0.674673  0  2.234646  0  0  -0.353194  -0.619316  0  2.249305  0
O  O84  1  0.13364847  0.83410677  0.70647875  1  0  -0.711277  0  1.958817  0  0  -0.655208  0  2.19114  0  0  -0.688482  0  2.184673  0  0  -0.374991  -0.631519  0  2.19479  0
O  O85  1  0.86634593  0.16589346  0.29351738  1  0  -0.711192  0  1.958944  0  0  -0.655117  0  2.191282  0  0  -0.688386  0  2.184813  0  0  -0.374971  -0.631428  0  2.194925  0
O  O86  1  0.31134672  0.67933660  0.58918816  1  0  -0.663736  0  1.880822  0  0  -0.626353  0  2.103553  0  0  -0.655198  0  2.095174  0  0  -0.365643  -0.605757  0  2.108495  0
O  O87  1  0.68864197  0.32066256  0.41080665  1  0  -0.663782  0  1.880898  0  0  -0.626395  0  2.103646  0  0  -0.655237  0  2.095265  0  0  -0.365685  -0.60579  0  2.108586  0
O  O88  1  0.61463153  0.05518781  0.53522189  1  0  -0.73675  0  2.018675  0  0  -0.684693  0  2.276404  0  0  -0.722706  0  2.27056  0  0  -0.387237  -0.657241  0  2.279235  0
O  O89  1  0.38536402  0.94481243  0.46477855  1  0  -0.736758  0  2.018678  0  0  -0.684724  0  2.2764  0  0  -0.722736  0  2.270556  0  0  -0.387284  -0.657283  0  2.279228  0
O  O90  1  0.64934634  0.98350884  0.68970828  1  0  -0.683916  0  1.976841  0  0  -0.623764  0  2.202774  0  0  -0.656118  0  2.1954  0  0  -0.34376  -0.600811  0  2.207285  0
O  O91  1  0.35065413  0.01648719  0.31028781  1  0  -0.683915  0  1.976919  0  0  -0.623723  0  2.202807  0  0  -0.656076  0  2.195432  0  0  -0.343781  -0.600771  0  2.207306  0
O  O92  1  0.44226780  0.81982035  0.84412251  1  0  -0.774628  0  1.99383  0  0  -0.727384  0  2.262695  0  0  -0.766514  0  2.255655  0  0  -0.412288  -0.698766  0  2.266315  0
O  O93  1  0.55773336  0.18018937  0.15588045  1  0  -0.774686  0  1.993845  0  0  -0.727399  0  2.262776  0  0  -0.766534  0  2.255725  0  0  -0.412281  -0.698788  0  2.266404  0
O  O94  1  0.55506600  0.65019887  0.72522548  1  0  -0.664717  0  1.898327  0  0  -0.62303  0  2.126318  0  0  -0.653659  0  2.118256  0  0  -0.370345  -0.601207  0  2.131218  0
O  O95  1  0.44490501  0.34980239  0.27478325  1  0  -0.664816  0  1.897969  0  0  -0.623111  0  2.126068  0  0  -0.653741  0  2.117992  0  0  -0.370441  -0.601282  0  2.130966  0
O  O96  1  0.16813396  0.06332147  0.17066310  1  0  -0.918637  0  1.838661  0  0  -0.870779  0  2.035341  0  0  -0.898523  0  2.001947  0  0  -0.648906  -0.850441  0  2.058714  0
O  O97  1  0.83186668  0.93668194  0.82933793  1  0  -0.918662  0  1.838592  0  0  -0.870804  0  2.035257  0  0  -0.898547  0  2.001863  0  0  -0.648949  -0.850465  0  2.058631  0
O  O98  1  0.69128969  0.73282356  0.52852581  1  0  -0.869105  0  1.832368  0  0  -0.823152  0  2.01666  0  0  -0.848215  0  1.984328  0  0  -0.614538  -0.805066  0  2.037225  0
O  O99  1  0.30871041  0.26716932  0.47147795  1  0  -0.86898  0  1.83255  0  0  -0.823003  0  2.016824  0  0  -0.848064  0  1.984501  0  0  -0.614531  -0.804919  0  2.037423  0
