# generated using pymatgen
data_ZnH12C27IN3O8
_symmetry_space_group_name_H-M   'P 1'
_cell_length_a   9.51104163
_cell_length_b   10.84901800
_cell_length_c   27.97673576
_cell_angle_alpha   87.12628885
_cell_angle_beta   87.75403061
_cell_angle_gamma   85.40299328
_symmetry_Int_Tables_number   1
_chemical_formula_structural   ZnH12C27IN3O8
_chemical_formula_sum   'Zn2 H24 C54 I2 N6 O16'
_cell_volume   2872.09312081
_cell_formula_units_Z   2
loop_
 _symmetry_equiv_pos_site_id
 _symmetry_equiv_pos_as_xyz
  1  'x, y, z'
loop_
 _atom_site_type_symbol
 _atom_site_label
 _atom_site_symmetry_multiplicity
 _atom_site_fract_x
 _atom_site_fract_y
 _atom_site_fract_z
 _atom_site_occupancy
 _atom_site_pbe_bader_charge
 _atom_site_pbe_bader_spin_density
 _atom_site_pbe_cm5_charge
 _atom_site_pbe_ddec_charge
 _atom_site_pbe_ddec_spin_density
 _atom_site_pbe_ddec_sum_bond_order
 _atom_site_pbe_magmom
Zn  Zn0  1  0.34597686  0.51061546  0.49832029  1  1.276999  0  0.66816  0.8048  0  2.44892  0
Zn  Zn1  1  0.64215168  0.48754618  0.50230453  1  1.272944  0  0.668495  0.80494  0  2.44226  0
H  H2  1  0.30023737  0.49471572  0.34551467  1  0.09514  0  0.107424  0.110397  0  0.994795  0
H  H3  1  0.24338557  0.49664369  0.65232589  1  0.101783  0  0.104612  0.104522  0  1.005569  0
H  H4  1  0.32103880  0.49756178  0.25570097  1  0.079983  0  0.109478  0.115663  0  0.980585  0
H  H5  1  0.23346494  0.49339748  0.74219502  1  0.070931  0  0.110338  0.117272  0  0.978574  0
H  H6  1  0.63678375  0.18829774  0.12305154  1  0.138736  0  0.113123  0.130193  0  0.992197  0
H  H7  1  0.37561068  0.81424540  0.87775745  1  0.148928  0  0.113246  0.130776  0  0.991776  0
H  H8  1  0.68423435  0.55540487  0.65099939  1  0.102147  0  0.107625  0.112055  0  0.995393  0
H  H9  1  0.75140598  0.45545023  0.35239205  1  0.096145  0  0.105178  0.106526  0  1.00358  0
H  H10  1  0.67487320  0.55425052  0.74085793  1  0.084599  0  0.110302  0.116796  0  0.980588  0
H  H11  1  0.77340338  0.45985017  0.26258434  1  0.095029  0  0.110373  0.117652  0  0.977809  0
H  H12  1  0.48070985  0.20049459  0.88112740  1  0.121032  0  0.116923  0.124  0  0.976945  0
H  H13  1  0.53061365  0.80201140  0.11937033  1  0.131511  0  0.116758  0.124037  0  0.97738  0
H  H14  1  0.50165294  0.19280995  0.96868186  1  0.090327  0  0.081389  0.087371  0  1.097549  0
H  H15  1  0.51004577  0.80935709  0.03177541  1  0.074937  0  0.081119  0.086855  0  1.097052  0
H  H16  1  0.50177122  0.04672008  0.58396380  1  0.101268  0  0.121533  0.127008  0  0.955471  0
H  H17  1  0.49832842  0.95125147  0.41437118  1  0.114762  0  0.121641  0.126848  0  0.957112  0
H  H18  1  0.28329724  0.92955113  0.53978276  1  0.128904  0  0.118318  0.126978  0  0.964377  0
H  H19  1  0.71591603  0.06858757  0.45858770  1  0.096829  0  0.11885  0.12677  0  0.962217  0
H  H20  1  0.10469511  0.41430850  0.57241327  1  0.129004  0  0.12523  0.108981  0  0.962964  0
H  H21  1  0.88361971  0.58309587  0.42777832  1  0.105611  0  0.125812  0.108987  0  0.959076  0
H  H22  1  0.92771194  0.28769505  0.51115389  1  0.141858  0  0.126153  0.115366  0  0.962481  0
H  H23  1  0.06029393  0.70941072  0.48905521  1  0.118618  0  0.126046  0.115595  0  0.961798  0
H  H24  1  0.10871040  0.38345658  0.43531160  1  0.127244  0  0.122751  0.106969  0  0.981977  0
H  H25  1  0.87957747  0.61373052  0.56482311  1  0.155464  0  0.121686  0.105501  0  0.986385  0
C  C26  1  0.50664352  0.25845175  0.50759666  1  1.645085  0  0.214635  0.594646  0  4.209383  0
C  C27  1  0.49079151  0.73923008  0.49195392  1  1.623752  0  0.213708  0.591703  0  4.209146  0
C  C28  1  0.51163171  0.47925923  0.40754771  1  1.552598  0  0.2149  0.588676  0  4.179939  0
C  C29  1  0.47155549  0.52003545  0.59304233  1  1.577431  0  0.21547  0.589606  0  4.176797  0
C  C30  1  0.57953389  0.37175637  0.18012306  1  1.355827  0  0.2432  0.435244  0  4.105228  0
C  C31  1  0.43254392  0.63102532  0.82056780  1  1.391441  0  0.242767  0.434857  0  4.104974  0
C  C32  1  0.54090880  0.60250007  0.17916969  1  1.322674  0  0.241241  0.431565  0  4.110237  0
C  C33  1  0.46869000  0.40011967  0.82141947  1  1.331545  0  0.241504  0.431793  0  4.109675  0
C  C34  1  0.67019526  0.46751679  0.28099627  1  0.009526  0  -0.082187  -0.150239  0  3.975845  0
C  C35  1  0.58101882  0.54122723  0.72112836  1  0.047009  0  -0.082927  -0.154326  0  3.975438  0
C  C36  1  0.65796464  0.46526623  0.33079404  1  -0.026159  0  -0.078384  -0.076799  0  3.971831  0
C  C37  1  0.58626959  0.54184289  0.67134096  1  -0.056833  0  -0.074996  -0.067176  0  3.95732  0
C  C38  1  0.40311488  0.48724158  0.32694409  1  0.058363  0  -0.075295  -0.065897  0  3.960795  0
C  C39  1  0.33724367  0.50880838  0.67213543  1  -0.059526  0  -0.077956  -0.07499  0  3.971101  0
C  C40  1  0.41471033  0.48876470  0.27722322  1  -0.109725  0  -0.082696  -0.154116  0  3.977112  0
C  C41  1  0.33163120  0.50733170  0.72195875  1  -0.044312  0  -0.083139  -0.151987  0  3.976526  0
C  C42  1  0.54819382  0.48003056  0.25459858  1  0.308562  0  0.092073  0.197379  0  4.01574  0
C  C43  1  0.45405524  0.52269077  0.74606628  1  0.293595  0  0.092714  0.197647  0  4.015976  0
C  C44  1  0.54227600  0.49345855  0.10152302  1  -0.091423  0  0.001608  0.032272  0  4.011485  0
C  C45  1  0.47002149  0.50894385  0.89906583  1  -0.024968  0  0.001701  0.033132  0  4.007323  0
C  C46  1  0.57268416  0.37957279  0.12718008  1  0.067356  0  -0.009003  -0.053176  0  4.003057  0
C  C47  1  0.44006385  0.62304545  0.87348174  1  0.056593  0  -0.010065  -0.05576  0  4.005696  0
C  C48  1  0.60357424  0.27295714  0.10254393  1  0.005672  0  -0.080853  -0.113991  0  3.98155  0
C  C49  1  0.40884788  0.72951109  0.89819086  1  -0.086324  0  -0.080095  -0.112843  0  3.982031  0
C  C50  1  0.53494604  0.60442634  0.12634320  1  0.013412  0  -0.009982  -0.066878  0  4.003947  0
C  C51  1  0.47658762  0.39806423  0.87420904  1  -0.014616  0  -0.00915  -0.06544  0  4.000141  0
C  C52  1  0.52465195  0.47629884  0.35403643  1  -0.025331  0  -0.014474  -0.030905  0  3.955279  0
C  C53  1  0.46468196  0.52463020  0.64656105  1  0.042539  0  -0.013662  -0.02799  0  3.95195  0
C  C54  1  0.51441130  0.38880371  0.97474651  1  0.0334  0  0.000468  0.046899  0  3.951476  0
C  C55  1  0.49785542  0.61323639  0.02585171  1  0.015213  0  8e-05  0.046578  0  3.954206  0
C  C56  1  0.46788751  0.62010906  0.97485279  1  0.024889  0  0.000628  0.007572  0  3.933672  0
C  C57  1  0.54426482  0.38189557  0.02578181  1  -0.028864  0  0.00203  0.008095  0  3.931551  0
C  C58  1  0.48741919  0.50685869  0.94973543  1  -0.055739  0  0.00827  0.011664  0  3.885169  0
C  C59  1  0.52499541  0.49525516  0.05086291  1  0.048389  0  0.007676  0.011484  0  3.885993  0
C  C60  1  0.50082160  0.28224112  0.94946222  1  -0.056654  0  -0.091911  -0.123908  0  3.981933  0
C  C61  1  0.51119808  0.71996490  0.05105342  1  0.005804  0  -0.091798  -0.123441  0  3.98157  0
C  C62  1  0.48553316  0.28547085  0.90001296  1  -0.032899  0  -0.069042  -0.062696  0  3.960521  0
C  C63  1  0.52620020  0.71696647  0.10050596  1  -0.039712  0  -0.068663  -0.062461  0  3.960628  0
C  C64  1  0.59654008  0.27479684  0.05252182  1  -0.234633  0  -0.037253  0.020927  0  3.826253  0
C  C65  1  0.41511759  0.72722209  0.94822875  1  -0.191703  0  -0.037032  0.020957  0  3.826213  0
C  C66  1  0.49906464  0.02465615  0.54636873  1  -0.007163  0  -0.054847  -0.082378  0  3.581945  0
C  C67  1  0.50026635  0.97318602  0.45200557  1  -0.014909  0  -0.055096  -0.081577  0  3.57935  0
C  C68  1  0.61424307  0.94157845  0.51921137  1  0.304765  0  0.092874  0.062472  0  3.626094  0
C  C69  1  0.38495710  0.05641089  0.47903917  1  0.293079  0  0.092352  0.063026  0  3.621157  0
C  C70  1  0.49372667  0.87576730  0.49577055  1  -0.003734  0  0.011092  -0.026828  0  3.60707  0
C  C71  1  0.50477589  0.12228870  0.50273910  1  -0.009304  0  0.011737  -0.026349  0  3.608466  0
C  C72  1  0.37923960  0.96138456  0.52228998  1  -0.020335  0  -0.065303  -0.093796  0  3.618062  0
C  C73  1  0.61988780  0.03689471  0.47610586  1  0.008321  0  -0.062789  -0.092582  0  3.613044  0
C  C74  1  0.96369472  0.38065004  0.50631866  1  0.206687  0  0.029803  0.034707  0  3.546826  0
C  C75  1  0.02458199  0.61634432  0.49383494  1  0.228512  0  0.029392  0.033621  0  3.547154  0
C  C76  1  0.04849686  0.45078897  0.54080558  1  0.188641  0  0.030626  0.036704  0  3.541402  0
C  C77  1  0.93969807  0.54618675  0.45936356  1  0.199893  0  0.030519  0.034664  0  3.547262  0
C  C78  1  0.05133112  0.43435639  0.46365398  1  0.21141  0  0.029162  0.034277  0  3.541203  0
C  C79  1  0.93695670  0.56268627  0.53650403  1  0.186276  0  0.029261  0.036441  0  3.536642  0
I  I80  1  0.69471716  0.10794565  0.02538492  1  0.1149  0  0.09561  -0.015679  0  1.419065  0
I  I81  1  0.31428186  0.89262838  0.97567131  1  0.114513  0  0.095261  -0.016145  0  1.417794  0
N  N82  1  0.55740425  0.48467524  0.20289846  1  -1.188536  0  -0.231374  -0.211511  0  3.581484  0
N  N83  1  0.45130754  0.51800904  0.79779126  1  -1.207285  0  -0.231365  -0.211457  0  3.581862  0
N  N84  1  0.13514932  0.50473332  0.49815553  1  -0.847755  0  -0.312837  -0.181715  0  3.064274  0
N  N85  1  0.85310196  0.49229311  0.50201547  1  -0.845733  0  -0.314029  -0.182587  0  3.064967  0
N  N86  1  0.73430161  0.87072092  0.54111145  1  0.400548  0  0.057189  0.519288  0  4.226799  0
N  N87  1  0.26458818  0.12643334  0.45688180  1  0.381187  0  0.056207  0.519132  0  4.233267  0
O  O88  1  0.38821799  0.32034630  0.50428026  1  -1.167311  0  -0.313309  -0.540704  0  2.33616  0
O  O89  1  0.60941054  0.67843174  0.48650343  1  -1.166517  0  -0.316141  -0.543126  0  2.304905  0
O  O90  1  0.62536943  0.29847036  0.51474758  1  -1.162135  0  -0.316153  -0.534795  0  2.274257  0
O  O91  1  0.36938932  0.69800319  0.49472778  1  -1.152921  0  -0.311871  -0.529175  0  2.296213  0
O  O92  1  0.38853620  0.50301592  0.42601097  1  -1.159536  0  -0.317723  -0.545342  0  2.325813  0
O  O93  1  0.59352859  0.52030135  0.57239252  1  -1.167034  0  -0.317505  -0.549556  0  2.344234  0
O  O94  1  0.62483472  0.45915167  0.43065830  1  -1.175832  0  -0.320361  -0.554196  0  2.327632  0
O  O95  1  0.35585328  0.51492564  0.57208200  1  -1.169183  0  -0.318258  -0.552862  0  2.325345  0
O  O96  1  0.60068420  0.27316345  0.20325926  1  -1.088335  0  -0.27759  -0.429412  0  2.056935  0
O  O97  1  0.41247161  0.72979192  0.79744496  1  -1.095482  0  -0.278584  -0.43005  0  2.054229  0
O  O98  1  0.47861236  0.30558789  0.79869442  1  -1.098764  0  -0.277939  -0.432631  0  2.059326  0
O  O99  1  0.52991709  0.69711074  0.20185080  1  -1.090181  0  -0.27758  -0.43224  0  2.059017  0
O  O100  1  0.71121077  0.81716717  0.58056000  1  -0.472287  0  -0.13525  -0.338906  0  1.877371  0
O  O101  1  0.84949786  0.86680261  0.51856428  1  -0.470141  0  -0.13598  -0.34913  0  1.899462  0
O  O102  1  0.15032719  0.13310016  0.48000305  1  -0.467225  0  -0.138658  -0.351078  0  1.900048  0
O  O103  1  0.28636122  0.17627021  0.41667789  1  -0.443079  0  -0.137213  -0.339061  0  1.870201  0
