# generated using pymatgen
data_AlP2H7C6O7
_symmetry_space_group_name_H-M   'P 1'
_cell_length_a   9.16209642
_cell_length_b   10.10346151
_cell_length_c   10.16653913
_cell_angle_alpha   105.13594119
_cell_angle_beta   89.99988038
_cell_angle_gamma   90.00021098
_symmetry_Int_Tables_number   1
_chemical_formula_structural   AlP2H7C6O7
_chemical_formula_sum   'Al4 P8 H28 C24 O28'
_cell_volume   908.45737225
_cell_formula_units_Z   4
loop_
 _symmetry_equiv_pos_site_id
 _symmetry_equiv_pos_as_xyz
  1  'x, y, z'
loop_
 _atom_site_type_symbol
 _atom_site_label
 _atom_site_symmetry_multiplicity
 _atom_site_fract_x
 _atom_site_fract_y
 _atom_site_fract_z
 _atom_site_occupancy
 _atom_site_pbe_bader_spin_density
 _atom_site_pbe_cm5_charge
 _atom_site_pbe_ddec_charge
 _atom_site_pbe_ddec_spin_density
 _atom_site_pbe_ddec_sum_bond_order
 _atom_site_pbe_magmom
Al  Al0  1  0.10050232  0.00847732  0.78755014  1  0  0.416305  1.778863  0  2.403784  0
Al  Al1  1  0.60050241  0.99152273  0.71245044  1  0  0.416304  1.778847  0  2.403734  0
Al  Al2  1  0.89949787  0.99152324  0.21245114  1  0  0.416303  1.778868  0  2.403682  0
Al  Al3  1  0.39949778  0.00847783  0.28754987  1  0  0.416298  1.778831  0  2.403773  0
P  P4  1  0.17030835  0.13781492  0.09751579  1  0  0.423366  1.376224  0  5.27258  0
P  P5  1  0.67030530  0.86218443  0.40248620  1  0  0.423355  1.376247  0  5.272646  0
P  P6  1  0.82969075  0.86218461  0.90248425  1  0  0.42333  1.376207  0  5.272677  0
P  P7  1  0.32969489  0.13781511  0.59751384  1  0  0.423384  1.376241  0  5.27255  0
P  P8  1  0.17113475  0.77993619  0.13343088  1  0  0.430062  1.360421  0  5.223947  0
P  P9  1  0.67113246  0.22006315  0.36656816  1  0  0.430138  1.36055  0  5.223821  0
P  P10  1  0.82886544  0.22006437  0.86657041  1  0  0.430066  1.360432  0  5.223891  0
P  P11  1  0.32886664  0.77993741  0.63343215  1  0  0.430152  1.360628  0  5.223671  0
H  H12  1  0.16878184  0.81297435  0.92568569  1  0  0.338838  0.419024  0  0.895416  0
H  H13  1  0.66877789  0.18702590  0.57431383  1  0  0.33882  0.418987  0  0.895424  0
H  H14  1  0.83121945  0.18702621  0.07431462  1  0  0.338837  0.419005  0  0.895408  0
H  H15  1  0.33122012  0.81297363  0.42568522  1  0  0.338824  0.418971  0  0.895469  0
H  H16  1  0.88630711  0.93499893  0.59198499  1  0  0.323305  0.423406  0  0.904532  0
H  H17  1  0.38630807  0.06500097  0.90801501  1  0  0.323308  0.423423  0  0.904508  0
H  H18  1  0.11369308  0.06500266  0.40801657  1  0  0.323293  0.423429  0  0.904497  0
H  H19  1  0.61369103  0.93499753  0.09198280  1  0  0.323291  0.423431  0  0.904513  0
H  H20  1  0.05287666  0.89507474  0.53674252  1  0  0.34119  0.424731  0  0.865878  0
H  H21  1  0.55287695  0.10492414  0.96325686  1  0  0.341196  0.424743  0  0.865858  0
H  H22  1  0.94712353  0.10492480  0.46325850  1  0  0.341185  0.424776  0  0.865836  0
H  H23  1  0.44712215  0.89507334  0.03674167  1  0  0.341195  0.424785  0  0.865847  0
H  H24  1  0.98280391  0.36422106  0.24669199  1  0  0.105505  0.105033  0  1.021582  0
H  H25  1  0.48280098  0.63577821  0.25330840  1  0  0.105498  0.105003  0  1.021587  0
H  H26  1  0.01719628  0.63577847  0.75330707  1  0  0.105514  0.105028  0  1.021575  0
H  H27  1  0.51720030  0.36422235  0.74669190  1  0  0.1055  0.105014  0  1.021564  0
H  H28  1  0.34857089  0.55507090  0.98479221  1  0  0.102728  0.097611  0  1.025626  0
H  H29  1  0.84857030  0.44492991  0.51520612  1  0  0.102722  0.097581  0  1.025633  0
H  H30  1  0.65143040  0.44492967  0.01520908  1  0  0.10273  0.097611  0  1.025618  0
H  H31  1  0.15142989  0.55506963  0.48479491  1  0  0.102735  0.097607  0  1.025613  0
H  H32  1  0.97868417  0.61238210  0.25659630  1  0  0.106099  0.105891  0  1.013925  0
H  H33  1  0.47868135  0.38761614  0.24340383  1  0  0.10612  0.105905  0  1.013994  0
H  H34  1  0.02131603  0.38761743  0.74340275  1  0  0.106107  0.105901  0  1.013972  0
H  H35  1  0.52131666  0.61238237  0.75659595  1  0  0.106117  0.105917  0  1.014004  0
H  H36  1  0.35002422  0.30797227  0.97178094  1  0  0.107474  0.102687  0  1.012871  0
H  H37  1  0.85002242  0.69202854  0.52821837  1  0  0.107486  0.102698  0  1.012869  0
H  H38  1  0.64997707  0.69202726  0.02821713  1  0  0.107476  0.10269  0  1.01282  0
H  H39  1  0.14997777  0.30797203  0.47178390  1  0  0.107488  0.102708  0  1.012826  0
C  C40  1  0.06508615  0.40667873  0.19168114  1  0  -0.078706  -0.065674  0  3.957536  0
C  C41  1  0.56508331  0.59332030  0.30831901  1  0  -0.078756  -0.065685  0  3.957408  0
C  C42  1  0.93491514  0.59332081  0.80831792  1  0  -0.078706  -0.065603  0  3.957402  0
C  C43  1  0.43491579  0.40667822  0.69168176  1  0  -0.078725  -0.06567  0  3.957425  0
C  C44  1  0.27087786  0.51397269  0.04505617  1  0  -0.07815  -0.062798  0  3.986762  0
C  C45  1  0.77087535  0.48602696  0.45494275  1  0  -0.07818  -0.062759  0  3.986803  0
C  C46  1  0.72912452  0.48602685  0.95494485  1  0  -0.078132  -0.062732  0  3.986787  0
C  C47  1  0.22912484  0.51397258  0.54505827  1  0  -0.078212  -0.062809  0  3.986861  0
C  C48  1  0.16960035  0.31994139  0.11229258  1  0  -0.013345  -0.184256  0  3.959898  0
C  C49  1  0.66959769  0.68006000  0.38770797  1  0  -0.013331  -0.184279  0  3.959864  0
C  C50  1  0.83040093  0.68005916  0.88770674  1  0  -0.013347  -0.184311  0  3.959851  0
C  C51  1  0.33040250  0.31994057  0.61229332  1  0  -0.01337  -0.184248  0  3.959818  0
C  C52  1  0.06282057  0.54628203  0.19765407  1  0  -0.074379  -0.04675  0  3.950794  0
C  C53  1  0.56281827  0.45371596  0.30234581  1  0  -0.074332  -0.046645  0  3.95072  0
C  C54  1  0.93718072  0.45371750  0.80234597  1  0  -0.074359  -0.046705  0  3.950857  0
C  C55  1  0.43718192  0.54628357  0.69765324  1  0  -0.074344  -0.046693  0  3.950707  0
C  C56  1  0.27189482  0.37482314  0.03835677  1  0  -0.075381  -0.0542  0  3.963569  0
C  C57  1  0.77189286  0.62517754  0.46164241  1  0  -0.075371  -0.054196  0  3.963518  0
C  C58  1  0.72810428  0.62517639  0.96164130  1  0  -0.075418  -0.054239  0  3.963503  0
C  C59  1  0.22810733  0.37482303  0.53835888  1  0  -0.075372  -0.054217  0  3.96349  0
C  C60  1  0.16649354  0.60065930  0.12495696  1  0  -0.018726  -0.202552  0  4.000265  0
C  C61  1  0.66649413  0.39933900  0.37504084  1  0  -0.018717  -0.202639  0  4.000372  0
C  C62  1  0.83350665  0.39934023  0.87504210  1  0  -0.018761  -0.20268  0  4.000451  0
C  C63  1  0.33350388  0.60066053  0.62495822  1  0  -0.0187  -0.202629  0  4.00033  0
O  O64  1  0.21671038  0.06854698  0.94801870  1  0  -0.302069  -0.820728  0  2.362948  0
O  O65  1  0.71671059  0.93145137  0.55198122  1  0  -0.302062  -0.8207  0  2.362964  0
O  O66  1  0.78328872  0.93145050  0.05198081  1  0  -0.302057  -0.820726  0  2.362933  0
O  O67  1  0.28328960  0.06854816  0.44801981  1  0  -0.302075  -0.820703  0  2.362957  0
O  O68  1  0.01881163  0.83792530  0.15726654  1  0  -0.285177  -0.805665  0  2.397241  0
O  O69  1  0.51881242  0.16207460  0.34273293  1  0  -0.285165  -0.805665  0  2.397268  0
O  O70  1  0.98118857  0.16207526  0.84273376  1  0  -0.285196  -0.805683  0  2.397267  0
O  O71  1  0.48118668  0.83792596  0.65726737  1  0  -0.28514  -0.805681  0  2.397254  0
O  O72  1  0.01493223  0.10014096  0.12766822  1  0  -0.298212  -0.833297  0  2.426779  0
O  O73  1  0.51493377  0.89985790  0.37232804  1  0  -0.298197  -0.833337  0  2.426947  0
O  O74  1  0.98506687  0.89985754  0.87232959  1  0  -0.298192  -0.833316  0  2.426855  0
O  O75  1  0.48506752  0.10014266  0.62767128  1  0  -0.298186  -0.833339  0  2.426909  0
O  O76  1  0.23741339  0.78832500  0.99067162  1  0  -0.369726  -0.665738  0  2.274675  0
O  O77  1  0.73741187  0.21167546  0.50932683  1  0  -0.369752  -0.665751  0  2.274627  0
O  O78  1  0.76258681  0.21167454  0.00932842  1  0  -0.369723  -0.665704  0  2.274635  0
O  O79  1  0.26258723  0.78832407  0.49067321  1  0  -0.369776  -0.665759  0  2.274588  0
O  O80  1  0.28256742  0.10690225  0.19539320  1  0  -0.302796  -0.823035  0  2.358946  0
O  O81  1  0.78257018  0.89309847  0.30460893  1  0  -0.302834  -0.823091  0  2.358803  0
O  O82  1  0.71743059  0.89309831  0.80460809  1  0  -0.302799  -0.823035  0  2.358959  0
O  O83  1  0.21743002  0.10690107  0.69539308  1  0  -0.302861  -0.823132  0  2.358917  0
O  O84  1  0.28306003  0.84816393  0.23945241  1  0  -0.299879  -0.811008  0  2.398923  0
O  O85  1  0.78306097  0.15183370  0.26054401  1  0  -0.299919  -0.811084  0  2.398845  0
O  O86  1  0.71694017  0.15183560  0.76054665  1  0  -0.299865  -0.810992  0  2.398828  0
O  O87  1  0.21693595  0.84816379  0.73945550  1  0  -0.299929  -0.811101  0  2.398817  0
O  O88  1  0.99348889  0.93635514  0.61659611  1  0  -0.498302  -0.818105  0  2.176412  0
O  O89  1  0.49348990  0.06364610  0.88340206  1  0  -0.498336  -0.818162  0  2.176426  0
O  O90  1  0.00651240  0.06365361  0.38340138  1  0  -0.498297  -0.818225  0  2.176317  0
O  O91  1  0.50650921  0.93635547  0.11659556  1  0  -0.498305  -0.818226  0  2.176353  0
