# generated using pymatgen
data_Zr3H38(C9O4)4
_symmetry_space_group_name_H-M   'P 1'
_cell_length_a   15.05554716
_cell_length_b   15.05559301
_cell_length_c   15.05557008
_cell_angle_alpha   59.99981201
_cell_angle_beta   60.00009603
_cell_angle_gamma   60.00012921
_symmetry_Int_Tables_number   1
_chemical_formula_structural   Zr3H38(C9O4)4
_chemical_formula_sum   'Zr6 H76 C72 O32'
_cell_volume   2413.10788527
_cell_formula_units_Z   2
loop_
 _symmetry_equiv_pos_site_id
 _symmetry_equiv_pos_as_xyz
  1  'x, y, z'
loop_
 _atom_site_type_symbol
 _atom_site_label
 _atom_site_symmetry_multiplicity
 _atom_site_fract_x
 _atom_site_fract_y
 _atom_site_fract_z
 _atom_site_occupancy
 _atom_site_pbe_bader_charge
 _atom_site_pbe_bader_spin_density
 _atom_site_pbe_cm5_charge
 _atom_site_pbe_ddec_charge
 _atom_site_pbe_ddec_spin_density
 _atom_site_pbe_ddec_sum_bond_order
 _atom_site_pbe_magmom
Zr  Zr0  1  0.88297108  0.88296742  0.61702901  1  2.626149  0  1.635212  2.364737  0  2.749921  0
Zr  Zr1  1  0.11705963  0.11705802  0.38293999  1  2.623906  0  1.635126  2.36479  0  2.749479  0
Zr  Zr2  1  0.11706018  0.88294666  0.61705131  1  2.623648  0  1.635263  2.364937  0  2.749304  0
Zr  Zr3  1  0.88294344  0.11706099  0.38293897  1  2.625764  0  1.635214  2.364893  0  2.749394  0
Zr  Zr4  1  0.11703365  0.88297197  0.38296966  1  2.62608  0  1.635215  2.364771  0  2.749857  0
Zr  Zr5  1  0.88298040  0.11702353  0.61701746  1  2.623978  0  1.635196  2.36477  0  2.749939  0
H  H6  1  0.09230239  0.72309565  0.59228848  1  0.609615  0  0.333014  0.422872  0  0.860167  0
H  H7  1  0.09231779  0.09228803  0.22308575  1  0.604296  0  0.333005  0.422854  0  0.860132  0
H  H8  1  0.09228773  0.09231561  0.59230766  1  0.609395  0  0.332979  0.422918  0  0.860023  0
H  H9  1  0.72309931  0.09230083  0.59231429  1  0.599582  0  0.333025  0.422927  0  0.860112  0
H  H10  1  0.25061284  0.39305562  0.33179827  1  0.016546  0  0.088452  0.118555  0  1.029039  0
H  H11  1  0.17112953  0.34002402  0.32846309  1  0.106302  0  0.096557  0.145504  0  1.076241  0
H  H12  1  0.16960309  0.47518964  0.24831598  1  0.028473  0  0.089592  0.120617  0  1.026758  0
H  H13  1  0.83180183  0.52453622  0.75060848  1  0.029688  0  0.088471  0.118575  0  1.029082  0
H  H14  1  0.82846748  0.66038869  0.67112606  1  0.115925  0  0.096565  0.145516  0  1.076233  0
H  H15  1  0.74832219  0.60689436  0.66959728  1  0.016659  0  0.08962  0.120649  0  1.026666  0
H  H16  1  0.16931220  0.60753604  0.24838294  1  0.011408  0  0.089497  0.12048  0  1.02661  0
H  H17  1  0.17158874  0.65992486  0.32899807  1  0.106924  0  0.096389  0.145297  0  1.076201  0
H  H18  1  0.25065629  0.52419143  0.33153754  1  0.02622  0  0.088639  0.11864  0  1.02881  0
H  H19  1  0.74839020  0.47476611  0.66931052  1  0.04119  0  0.089493  0.120459  0  1.026652  0
H  H20  1  0.82900730  0.33948495  0.67158658  1  0.115327  0  0.096399  0.145294  0  1.076135  0
H  H21  1  0.83154462  0.39361574  0.75065370  1  0.021942  0  0.088636  0.118619  0  1.028785  0
H  H22  1  0.39305618  0.25060740  0.02453574  1  0.019465  0  0.088473  0.118581  0  1.029112  0
H  H23  1  0.34002527  0.17112482  0.16038609  1  0.10561  0  0.096545  0.145493  0  1.076306  0
H  H24  1  0.47519049  0.16959795  0.10689233  1  0.015712  0  0.089596  0.12064  0  1.026742  0
H  H25  1  0.52453866  0.83180106  0.89305241  1  0.021862  0  0.088476  0.118571  0  1.029098  0
H  H26  1  0.66039067  0.82846489  0.84001899  1  0.105737  0  0.096584  0.145584  0  1.07619  0
H  H27  1  0.60689632  0.74831961  0.97518547  1  0.017268  0  0.089596  0.120621  0  1.0267  0
H  H28  1  0.60753771  0.16930999  0.97476782  1  0.020053  0  0.089496  0.120461  0  1.02662  0
H  H29  1  0.65992540  0.17158672  0.83948657  1  0.105257  0  0.096412  0.14531  0  1.076145  0
H  H30  1  0.52419100  0.25065332  0.89361594  1  0.01861  0  0.088648  0.118648  0  1.02881  0
H  H31  1  0.47477190  0.74838535  0.10753231  1  0.018691  0  0.089466  0.120446  0  1.026641  0
H  H32  1  0.33949085  0.82899991  0.15992313  1  0.105645  0  0.096382  0.145271  0  1.076238  0
H  H33  1  0.39361826  0.83153916  0.02418771  1  0.017145  0  0.08866  0.118634  0  1.028774  0
H  H34  1  0.83180209  0.25060652  0.89305171  1  0.016599  0  0.088501  0.118583  0  1.029069  0
H  H35  1  0.82847027  0.17112153  0.84001373  1  0.106691  0  0.096548  0.145553  0  1.076314  0
H  H36  1  0.74832599  0.16959597  0.97518452  1  0.028443  0  0.089627  0.120662  0  1.026685  0
H  H37  1  0.25060610  0.83180170  0.02453933  1  0.029728  0  0.088494  0.118579  0  1.029116  0
H  H38  1  0.17112407  0.82846887  0.16039390  1  0.115784  0  0.096554  0.145572  0  1.076292  0
H  H39  1  0.16959753  0.74832364  0.10689420  1  0.016657  0  0.089627  0.120661  0  1.026682  0
H  H40  1  0.74838454  0.16931152  0.10753103  1  0.011517  0  0.089481  0.120439  0  1.026645  0
H  H41  1  0.82899644  0.17159320  0.15991735  1  0.107148  0  0.096406  0.145186  0  1.0762  0
H  H42  1  0.83153732  0.25066030  0.02418505  1  0.026144  0  0.088675  0.118658  0  1.028796  0
H  H43  1  0.16931278  0.74838189  0.97477476  1  0.04117  0  0.089516  0.120499  0  1.026626  0
H  H44  1  0.17159205  0.82899401  0.83949665  1  0.115492  0  0.096389  0.145163  0  1.076285  0
H  H45  1  0.25065925  0.83153629  0.89361772  1  0.022191  0  0.088679  0.118655  0  1.028812  0
H  H46  1  0.39305366  0.52453888  0.33180245  1  0.021902  0  0.08849  0.118572  0  1.029109  0
H  H47  1  0.34001586  0.66039270  0.32846835  1  0.105679  0  0.096557  0.145526  0  1.076348  0
H  H48  1  0.47518547  0.60689385  0.24832483  1  0.017387  0  0.089623  0.120653  0  1.026689  0
H  H49  1  0.52454058  0.39305144  0.75060619  1  0.019357  0  0.088502  0.118586  0  1.029094  0
H  H50  1  0.66039578  0.34001235  0.67112162  1  0.105436  0  0.096553  0.145564  0  1.076305  0
H  H51  1  0.60689542  0.47518441  0.66959563  1  0.015788  0  0.089631  0.120662  0  1.026677  0
H  H52  1  0.60753181  0.47477514  0.24838149  1  0.018683  0  0.089523  0.120468  0  1.026616  0
H  H53  1  0.65991730  0.33949601  0.32899436  1  0.105747  0  0.096386  0.14515  0  1.07629  0
H  H54  1  0.52418516  0.39361771  0.33153639  1  0.01692  0  0.088678  0.118663  0  1.028778  0
H  H55  1  0.47477582  0.60752987  0.66931244  1  0.019708  0  0.089516  0.12047  0  1.026621  0
H  H56  1  0.33949707  0.65991575  0.67159291  1  0.106119  0  0.096391  0.145171  0  1.076323  0
H  H57  1  0.39361856  0.52418475  0.75065970  1  0.018534  0  0.088674  0.11865  0  1.02882  0
H  H58  1  0.83180346  0.39305120  0.02453569  1  0.021804  0  0.088468  0.118549  0  1.029096  0
H  H59  1  0.82846540  0.34001805  0.16038907  1  0.105719  0  0.096573  0.145529  0  1.076359  0
H  H60  1  0.74832186  0.47518591  0.10689382  1  0.017333  0  0.089612  0.120634  0  1.026678  0
H  H61  1  0.25061265  0.52453108  0.89305622  1  0.019373  0  0.08848  0.118599  0  1.029007  0
H  H62  1  0.17113058  0.66038299  0.84001975  1  0.105611  0  0.096545  0.145485  0  1.076295  0
H  H63  1  0.16960139  0.60689245  0.97518790  1  0.015743  0  0.08962  0.120648  0  1.026727  0
H  H64  1  0.74838803  0.60752831  0.97477102  1  0.018761  0  0.089459  0.120425  0  1.026723  0
H  H65  1  0.82900200  0.65991928  0.83949090  1  0.105693  0  0.096379  0.145271  0  1.076299  0
H  H66  1  0.83154275  0.52418465  0.89361683  1  0.016892  0  0.088618  0.118584  0  1.028836  0
H  H67  1  0.16931300  0.47477284  0.10753301  1  0.019847  0  0.089545  0.120587  0  1.026584  0
H  H68  1  0.17159223  0.33949272  0.15992278  1  0.105943  0  0.096368  0.145209  0  1.076306  0
H  H69  1  0.25065895  0.39361628  0.02418887  1  0.0189  0  0.088677  0.118689  0  1.028766  0
H  H70  1  0.39305431  0.83180124  0.75060823  1  0.016593  0  0.088487  0.118601  0  1.029046  0
H  H71  1  0.34002089  0.82846426  0.67112610  1  0.106827  0  0.096565  0.145521  0  1.076303  0
H  H72  1  0.47518903  0.74831965  0.66959754  1  0.028386  0  0.089588  0.120603  0  1.026702  0
H  H73  1  0.52453544  0.25061181  0.33179851  1  0.02979  0  0.08846  0.118544  0  1.029074  0
H  H74  1  0.66038752  0.17112856  0.32846341  1  0.115952  0  0.096566  0.145488  0  1.076247  0
H  H75  1  0.60689424  0.16959798  0.24831888  1  0.016584  0  0.089597  0.120598  0  1.026738  0
H  H76  1  0.60753263  0.74838516  0.66931131  1  0.011535  0  0.089467  0.120445  0  1.026636  0
H  H77  1  0.65992156  0.82899971  0.67158841  1  0.107013  0  0.096387  0.145274  0  1.07627  0
H  H78  1  0.52418713  0.83153937  0.75065619  1  0.026119  0  0.088659  0.11863  0  1.028791  0
H  H79  1  0.47477100  0.16931579  0.24838261  1  0.041356  0  0.089482  0.120444  0  1.026677  0
H  H80  1  0.33949065  0.17159350  0.32899831  1  0.115569  0  0.096374  0.145165  0  1.07637  0
H  H81  1  0.39361643  0.25065975  0.33153996  1  0.021983  0  0.088668  0.118665  0  1.028785  0
C  C82  1  0.99749781  0.70051585  0.49753192  1  1.52639  0  0.247733  0.660978  0  4.010157  0
C  C83  1  0.30446188  0.99753310  0.20050804  1  1.526435  0  0.247639  0.660798  0  4.010616  0
C  C84  1  0.99753549  0.30446025  0.49749395  1  1.537968  0  0.247634  0.660768  0  4.010431  0
C  C85  1  0.70051743  0.99749609  0.80445329  1  1.525645  0  0.247683  0.66092  0  4.010214  0
C  C86  1  0.99753774  0.70049422  0.80446908  1  1.526698  0  0.247672  0.660664  0  4.010369  0
C  C87  1  0.70049584  0.99753606  0.49749651  1  1.52655  0  0.247588  0.660555  0  4.010524  0
C  C88  1  0.99749971  0.30447534  0.20049424  1  1.524673  0  0.247594  0.660622  0  4.010617  0
C  C89  1  0.30447883  0.99749784  0.49752967  1  1.549464  0  0.247607  0.660623  0  4.010691  0
C  C90  1  0.30446601  0.70050141  0.49749925  1  1.52483  0  0.247568  0.660504  0  4.010559  0
C  C91  1  0.99749892  0.99753732  0.80446135  1  1.537597  0  0.247685  0.660719  0  4.010254  0
C  C92  1  0.70050214  0.30446280  0.49753707  1  1.526875  0  0.247712  0.660789  0  4.010231  0
C  C93  1  0.99753544  0.99749765  0.20050329  1  1.526716  0  0.247662  0.66068  0  4.010452  0
C  C94  1  0.99855277  0.40519958  0.49853380  1  -0.070122  0  -0.014107  -0.164294  0  3.84672  0
C  C95  1  0.99853118  0.59772105  0.49855011  1  -0.047648  0  -0.014114  -0.164327  0  3.8467  0
C  C96  1  0.08014296  0.45363848  0.41809632  1  -0.021515  0  -0.002929  0.103113  0  3.877354  0
C  C97  1  0.91809832  0.54812447  0.58014061  1  -0.023537  0  -0.002917  0.103112  0  3.877389  0
C  C98  1  0.08016080  0.54812852  0.41812562  1  0.048608  0  -0.003175  0.102594  0  3.877988  0
C  C99  1  0.91812768  0.45358864  0.58016034  1  0.050754  0  -0.003147  0.102709  0  3.877855  0
C  C100  1  0.40520216  0.99854998  0.09771554  1  -0.015051  0  -0.014172  -0.164419  0  3.846833  0
C  C101  1  0.59772426  0.99852847  0.90519619  1  -0.015023  0  -0.014101  -0.164308  0  3.846667  0
C  C102  1  0.45364058  0.08013910  0.04812324  1  -0.080989  0  -0.002914  0.103186  0  3.877396  0
C  C103  1  0.54812861  0.91809523  0.95363599  1  -0.036256  0  -0.002931  0.103141  0  3.877413  0
C  C104  1  0.54812931  0.08015909  0.95358578  1  0.001574  0  -0.003185  0.102592  0  3.877814  0
C  C105  1  0.45359094  0.91812461  0.04812419  1  0.027456  0  -0.003109  0.102725  0  3.877746  0
C  C106  1  0.99853570  0.99855092  0.90519857  1  -0.069779  0  -0.014179  -0.164449  0  3.84677  0
C  C107  1  0.99855162  0.99853434  0.09771523  1  -0.047686  0  -0.014178  -0.164358  0  3.846747  0
C  C108  1  0.91809795  0.08014465  0.95363437  1  -0.021796  0  -0.002953  0.103094  0  3.87733  0
C  C109  1  0.08014534  0.91809604  0.04812526  1  -0.023644  0  -0.002953  0.10307  0  3.877263  0
C  C110  1  0.91812901  0.08016238  0.04811922  1  0.048476  0  -0.00314  0.102678  0  3.877778  0
C  C111  1  0.08016233  0.91812635  0.95359067  1  0.051005  0  -0.003084  0.102804  0  3.877704  0
C  C112  1  0.40520294  0.59771274  0.49853525  1  -0.01527  0  -0.014164  -0.164347  0  3.846713  0
C  C113  1  0.59771530  0.40519758  0.49855164  1  -0.015215  0  -0.014211  -0.164498  0  3.846873  0
C  C114  1  0.45363508  0.54812467  0.41809738  1  -0.035806  0  -0.002994  0.103011  0  3.87735  0
C  C115  1  0.54812675  0.45363189  0.58014452  1  -0.080717  0  -0.002924  0.103111  0  3.877247  0
C  C116  1  0.54811947  0.45359101  0.41812823  1  0.027303  0  -0.003117  0.102758  0  3.877735  0
C  C117  1  0.45359243  0.54811961  0.58016237  1  0.002305  0  -0.003088  0.102786  0  3.8777  0
C  C118  1  0.99853412  0.40520585  0.09770995  1  -0.015167  0  -0.014124  -0.164304  0  3.846921  0
C  C119  1  0.99855445  0.59770742  0.90520532  1  -0.014927  0  -0.014154  -0.164331  0  3.846828  0
C  C120  1  0.91809862  0.45363574  0.04812223  1  -0.035683  0  -0.002957  0.103027  0  3.877366  0
C  C121  1  0.08014697  0.54812088  0.95363748  1  -0.081239  0  -0.002941  0.103084  0  3.877335  0
C  C122  1  0.91812759  0.54811969  0.95359006  1  0.027365  0  -0.003117  0.102792  0  3.87776  0
C  C123  1  0.08016533  0.45358728  0.04812478  1  0.002198  0  -0.003146  0.102711  0  3.877838  0
C  C124  1  0.40520830  0.99853253  0.49855170  1  -0.069872  0  -0.01417  -0.164348  0  3.846963  0
C  C125  1  0.59770949  0.99855193  0.49853404  1  -0.048132  0  -0.014144  -0.164281  0  3.846846  0
C  C126  1  0.45363900  0.91809652  0.58014219  1  -0.021719  0  -0.002934  0.103109  0  3.877383  0
C  C127  1  0.54812349  0.08014576  0.41809502  1  -0.023265  0  -0.002959  0.103082  0  3.877291  0
C  C128  1  0.54812252  0.91812585  0.58016273  1  0.048638  0  -0.003132  0.102695  0  3.877897  0
C  C129  1  0.45358824  0.08016564  0.41812499  1  0.05089  0  -0.003092  0.102722  0  3.877695  0
C  C130  1  0.17202946  0.41174921  0.32759440  1  -0.070446  0  -0.253193  -0.41898  0  3.973651  0
C  C131  1  0.82759939  0.58863025  0.67202625  1  -0.096828  0  -0.253253  -0.419041  0  3.973684  0
C  C132  1  0.17211999  0.58856548  0.32771428  1  -0.081222  0  -0.253011  -0.418372  0  3.973389  0
C  C133  1  0.82772071  0.41159808  0.67211948  1  -0.095067  0  -0.253002  -0.41833  0  3.973237  0
C  C134  1  0.41174956  0.17202517  0.08862959  1  -0.057402  0  -0.253213  -0.419041  0  3.973812  0
C  C135  1  0.58863295  0.82759622  0.91174470  1  -0.072006  0  -0.253252  -0.419075  0  3.973668  0
C  C136  1  0.58856509  0.17211839  0.91160036  1  -0.056922  0  -0.253056  -0.418394  0  3.973318  0
C  C137  1  0.41160203  0.82771535  0.08856303  1  -0.050069  0  -0.252974  -0.418301  0  3.973297  0
C  C138  1  0.82759913  0.17202606  0.91173845  1  -0.070878  0  -0.253231  -0.419039  0  3.973688  0
C  C139  1  0.17202686  0.82759733  0.08863707  1  -0.096598  0  -0.253257  -0.419089  0  3.973689  0
C  C140  1  0.82771490  0.17212270  0.08855577  1  -0.081423  0  -0.253017  -0.418224  0  3.973249  0
C  C141  1  0.17212194  0.82771286  0.91160905  1  -0.095599  0  -0.253039  -0.418287  0  3.973438  0
C  C142  1  0.41174015  0.58863683  0.32759799  1  -0.072242  0  -0.253231  -0.419  0  3.97374  0
C  C143  1  0.58863882  0.41173688  0.67202671  1  -0.05723  0  -0.253256  -0.419057  0  3.973645  0
C  C144  1  0.58855489  0.41160847  0.32771370  1  -0.05002  0  -0.253038  -0.418229  0  3.973298  0
C  C145  1  0.41160898  0.58855546  0.67212192  1  -0.057986  0  -0.253049  -0.418272  0  3.973468  0
C  C146  1  0.82759813  0.41174192  0.08863189  1  -0.072189  0  -0.253279  -0.419061  0  3.973758  0
C  C147  1  0.17203061  0.58862679  0.91174723  1  -0.057441  0  -0.253248  -0.419078  0  3.973734  0
C  C148  1  0.82771779  0.58855994  0.91160168  1  -0.050062  0  -0.252936  -0.418265  0  3.973387  0
C  C149  1  0.17212256  0.41160459  0.08856257  1  -0.058468  0  -0.253103  -0.418517  0  3.973435  0
C  C150  1  0.41174463  0.82759551  0.67202776  1  -0.070919  0  -0.253265  -0.419087  0  3.973702  0
C  C151  1  0.58862977  0.17202839  0.32759479  1  -0.096865  0  -0.253225  -0.418981  0  3.973722  0
C  C152  1  0.58856183  0.82771513  0.67212058  1  -0.081405  0  -0.252977  -0.418306  0  3.973352  0
C  C153  1  0.41160184  0.17212447  0.32771499  1  -0.095662  0  -0.253004  -0.418277  0  3.973505  0
O  O154  1  0.92371680  0.74281225  0.57135811  1  -1.172697  0  -0.351145  -0.608879  0  2.334779  0
O  O155  1  0.26212142  0.07135409  0.24279771  1  -1.173733  0  -0.351045  -0.608711  0  2.335265  0
O  O156  1  0.07135748  0.26211492  0.42373098  1  -1.176895  0  -0.351049  -0.608717  0  2.335248  0
O  O157  1  0.74281514  0.92371772  0.76210810  1  -1.167387  0  -0.351108  -0.608862  0  2.334863  0
O  O158  1  0.07135567  0.74278930  0.76213169  1  -1.17375  0  -0.351037  -0.608648  0  2.334891  0
O  O159  1  0.74278949  0.07135462  0.42372334  1  -1.172912  0  -0.351012  -0.608601  0  2.335016  0
O  O160  1  0.92371554  0.26213739  0.24279187  1  -1.1668  0  -0.351036  -0.608667  0  2.334868  0
O  O161  1  0.26213818  0.92371500  0.57135448  1  -1.188  0  -0.351034  -0.608678  0  2.33484  0
O  O162  1  0.26211676  0.74280813  0.42373356  1  -1.16716  0  -0.350971  -0.608594  0  2.335254  0
O  O163  1  0.92373484  0.07135082  0.76210460  1  -1.176764  0  -0.351016  -0.608734  0  2.335064  0
O  O164  1  0.74280943  0.26210880  0.57135133  1  -1.174078  0  -0.351065  -0.608783  0  2.335014  0
O  O165  1  0.07134797  0.92373469  0.24280623  1  -1.172979  0  -0.351008  -0.608711  0  2.335276  0
O  O166  1  0.07098989  0.92345994  0.76241820  1  -1.187102  0  -0.351032  -0.608482  0  2.334241  0
O  O167  1  0.74313168  0.26242394  0.42345893  1  -1.172392  0  -0.351043  -0.60848  0  2.334262  0
O  O168  1  0.92345735  0.07098868  0.24313222  1  -1.176831  0  -0.351009  -0.608463  0  2.334238  0
O  O169  1  0.26242791  0.74313171  0.57099078  1  -1.173508  0  -0.350955  -0.608398  0  2.334203  0
O  O170  1  0.92346057  0.74312612  0.76242658  1  -1.172175  0  -0.350938  -0.608425  0  2.334142  0
O  O171  1  0.26243953  0.07097771  0.42345888  1  -1.187773  0  -0.350926  -0.608359  0  2.33459  0
O  O172  1  0.07098090  0.26243547  0.24312310  1  -1.17356  0  -0.350933  -0.608414  0  2.334563  0
O  O173  1  0.74312928  0.92345645  0.57098444  1  -1.176635  0  -0.350882  -0.608378  0  2.334191  0
O  O174  1  0.74315241  0.07097034  0.76240890  1  -1.173977  0  -0.350939  -0.608596  0  2.334727  0
O  O175  1  0.07097024  0.74315109  0.42347080  1  -1.176919  0  -0.350937  -0.608584  0  2.334826  0
O  O176  1  0.26241798  0.92346003  0.24314311  1  -1.172196  0  -0.350929  -0.608547  0  2.334571  0
O  O177  1  0.92345851  0.26241646  0.57097836  1  -1.187198  0  -0.350918  -0.608579  0  2.334423  0
O  O178  1  0.80198038  0.06601172  0.56598580  1  -1.222871  0  -0.697285  -1.073688  0  2.392502  0
O  O179  1  0.06603221  0.06600062  0.56599717  1  -1.23354  0  -0.697159  -1.073691  0  2.392325  0
O  O180  1  0.06600208  0.06602782  0.30196642  1  -1.227073  0  -0.697188  -1.073607  0  2.392421  0
O  O181  1  0.06601550  0.80197627  0.56601811  1  -1.232469  0  -0.697272  -1.073617  0  2.392509  0
O  O182  1  0.14559277  0.95147567  0.45147251  1  -1.18472  0  -0.793644  -1.146588  0  2.162635  0
O  O183  1  0.95146571  0.95147589  0.45146544  1  -1.186711  0  -0.793683  -1.146658  0  2.162998  0
O  O184  1  0.95147638  0.14559351  0.45145476  1  -1.184287  0  -0.793635  -1.146478  0  2.162443  0
O  O185  1  0.95147778  0.95146026  0.64559685  1  -1.184543  0  -0.793736  -1.146608  0  2.162887  0
