# generated using pymatgen
data_MnH17C22(NO2)2
_symmetry_space_group_name_H-M   'P 1'
_cell_length_a   9.73581878
_cell_length_b   9.89645057
_cell_length_c   10.84851865
_cell_angle_alpha   101.14622134
_cell_angle_beta   111.57460681
_cell_angle_gamma   98.17003035
_symmetry_Int_Tables_number   1
_chemical_formula_structural   MnH17C22(NO2)2
_chemical_formula_sum   'Mn2 H34 C44 N4 O8'
_cell_volume   927.28830101
_cell_formula_units_Z   2
loop_
 _symmetry_equiv_pos_site_id
 _symmetry_equiv_pos_as_xyz
  1  'x, y, z'
loop_
 _atom_site_type_symbol
 _atom_site_label
 _atom_site_symmetry_multiplicity
 _atom_site_fract_x
 _atom_site_fract_y
 _atom_site_fract_z
 _atom_site_occupancy
 _atom_site_pbe_cm5_charge
 _atom_site_pbe_ddec_charge
 _atom_site_pbe_ddec_spin_density
 _atom_site_pbe_ddec_sum_bond_order
 _atom_site_pbe_magmom
Mn  Mn0  1  0.38714994  0.05694189  0.37956811  1  0.615166  0.952911  4.671356  2.374675  4.417
Mn  Mn1  1  0.61285047  0.94305665  0.62042997  1  0.615172  0.952968  4.671343  2.374629  4.417
H  H2  1  0.50732175  0.78636949  0.08134203  1  0.104377  0.110377  -0.00014  1.029017  0.0
H  H3  1  0.49267892  0.21363011  0.91865539  1  0.104384  0.110402  -0.00014  1.029061  0.0
H  H4  1  0.29999145  0.65436354  0.64816894  1  0.104087  0.107956  -0.000254  1.038394  0.0
H  H5  1  0.70000538  0.34563394  0.35182500  1  0.104099  0.107976  -0.000254  1.038357  0.0
H  H6  1  0.46936429  0.29656893  0.13952937  1  0.102849  0.107202  -0.000284  1.024894  0.0
H  H7  1  0.53063801  0.70343279  0.86047081  1  0.102872  0.107239  -0.000284  1.024875  0.0
H  H8  1  0.46774415  0.49363292  0.31971382  1  0.106988  0.114265  -0.000121  0.988373  0.0
H  H9  1  0.53225731  0.50636985  0.68028443  1  0.106999  0.114261  -0.000121  0.988372  0.0
H  H10  1  0.97259977  0.13003531  0.78361892  1  0.106865  0.11785  0.000187  1.050472  0.0
H  H11  1  0.02740227  0.86996535  0.21638191  1  0.106858  0.117852  0.000187  1.050442  0.0
H  H12  1  0.14939240  0.51244503  0.12309771  1  0.091451  0.088651  -4.8e-05  0.995284  0.0
H  H13  1  0.85061016  0.48755775  0.87690644  1  0.091456  0.088673  -4.8e-05  0.995285  0.0
H  H14  1  0.10714404  0.42681879  0.95054512  1  0.093955  0.093928  1e-06  0.982728  0.0
H  H15  1  0.89285852  0.57318399  0.04945811  1  0.093943  0.093902  1e-06  0.982749  0.0
H  H16  1  0.39594264  0.94730978  0.08351752  1  0.105127  0.116804  3.2e-05  1.047308  0.0
H  H17  1  0.60405718  0.05269087  0.91648719  1  0.105117  0.116837  3.2e-05  1.047285  0.0
H  H18  1  0.96381048  0.78747488  0.34108559  1  0.101882  0.103803  -6.9e-05  1.057427  0.0
H  H19  1  0.03618635  0.21252260  0.65891020  1  0.101881  0.10379  -6.9e-05  1.057357  0.0
H  H20  1  0.93047748  0.33911779  0.11785377  1  0.112909  0.094269  -7e-06  0.978525  0.0
H  H21  1  0.06952234  0.66088286  0.88214817  1  0.112906  0.094284  -7e-06  0.97849  0.0
H  H22  1  0.88069404  0.25601708  0.94324675  1  0.115139  0.10198  -8.8e-05  0.982627  0.0
H  H23  1  0.11930742  0.74398570  0.05675334  1  0.115107  0.101941  -8.8e-05  0.982636  0.0
H  H24  1  0.24097777  0.29373714  0.42803620  1  0.108319  0.17037  0.000783  1.015953  0.0
H  H25  1  0.75902090  0.70626775  0.57196427  1  0.108322  0.170368  0.000784  1.015976  0.0
H  H26  1  0.04368085  0.27831498  0.33166770  1  0.099301  0.144319  0.000323  1.033222  0.0
H  H27  1  0.95631976  0.72168886  0.66833138  1  0.099297  0.144326  0.000323  1.03319  0.0
H  H28  1  0.18004983  0.42209218  0.33868070  1  0.100747  0.149145  0.00034  0.995542  0.0
H  H29  1  0.81994911  0.57791376  0.66131912  1  0.100724  0.149107  0.00034  0.99549  0.0
H  H30  1  0.22877368  0.42895177  0.70403023  1  0.097891  0.10017  3.2e-05  1.043863  0.0
H  H31  1  0.77122367  0.57104782  0.29596887  1  0.097912  0.100171  3.2e-05  1.043894  0.0
H  H32  1  0.10262793  0.97348752  0.68079192  1  0.10076  0.103454  -9.6e-05  1.005323  0.0
H  H33  1  0.89737247  0.02651102  0.31921076  1  0.100763  0.103448  -9.6e-05  1.005284  0.0
H  H34  1  0.31303423  0.88543476  0.82667884  1  0.096358  0.09898  -0.000211  1.031824  0.0
H  H35  1  0.68696427  0.11456059  0.17332450  1  0.096371  0.098995  -0.000211  1.031848  0.0
C  C36  1  0.49820074  0.67915091  0.09354196  1  -0.080834  -0.143287  0.003752  3.922415  0.003
C  C37  1  0.50179967  0.32084763  0.90645427  1  -0.08085  -0.143377  0.003752  3.922521  0.003
C  C38  1  0.18369455  0.63576410  0.57271815  1  -0.081063  -0.145718  0.004759  3.937591  0.004
C  C39  1  0.81630175  0.36423126  0.42727708  1  -0.081097  -0.145769  0.00476  3.937411  0.004
C  C40  1  0.47824800  0.40391295  0.12734505  1  -0.089419  -0.133243  0.000731  3.983984  0.001
C  C41  1  0.52175156  0.59608664  0.87265386  1  -0.089421  -0.133322  0.000731  3.983956  0.001
C  C42  1  0.26472101  0.85684100  0.51544327  1  0.222208  0.587242  0.025058  4.183039  0.021
C  C43  1  0.73527750  0.14315436  0.48455269  1  0.222148  0.587173  0.025062  4.182853  0.021
C  C44  1  0.07562536  0.51269889  0.55188228  1  -0.007281  0.066355  0.001493  4.011697  0.001
C  C45  1  0.92437421  0.48730070  0.44811479  1  -0.007227  0.066463  0.001493  4.011548  0.001
C  C46  1  0.47570864  0.51272198  0.22658084  1  -0.08888  -0.114176  0.001116  4.008943  0.001
C  C47  1  0.52429366  0.48727974  0.77341935  1  -0.088854  -0.114095  0.001115  4.008939  0.001
C  C48  1  0.06795284  0.09511976  0.84886666  1  -0.097814  -0.1726  0.000473  4.009475  0.0
C  C49  1  0.93204946  0.90488196  0.15113445  1  -0.097799  -0.172575  0.000473  4.009371  0.0
C  C50  1  0.05532914  0.45357715  0.02415480  1  -0.161489  -0.163758  0.000437  3.927697  0.0
C  C51  1  0.94467316  0.54642456  0.97584999  1  -0.161454  -0.163691  0.000437  3.927669  0.0
C  C52  1  0.47784810  0.76967358  0.31580331  1  0.226906  0.59821  0.016767  4.174385  0.015
C  C53  1  0.52214952  0.23032707  0.68419329  1  0.226902  0.598243  0.016765  4.174344  0.015
C  C54  1  0.30708811  0.98869384  0.01810541  1  -0.094486  -0.166407  0.000317  3.982603  0.0
C  C55  1  0.69291060  0.01130681  0.98189893  1  -0.094465  -0.16645  0.000316  3.982571  0.0
C  C56  1  0.23625206  0.07940551  0.07613905  1  0.086021  0.142802  0.004803  4.078372  0.005
C  C57  1  0.76374555  0.92059514  0.92386216  1  0.086103  0.142924  0.004802  4.07835  0.005
C  C58  1  0.99404301  0.70868222  0.39691840  1  -0.090279  -0.103369  0.001556  3.987733  0.001
C  C59  1  0.00595661  0.29131314  0.60307425  1  -0.090364  -0.103407  0.001556  3.987628  0.001
C  C60  1  0.50577368  0.57058294  0.99178554  1  -0.008231  0.070119  0.001369  4.009751  0.001
C  C61  1  0.49422725  0.42941772  0.00821676  1  -0.008238  0.06998  0.00137  4.009784  0.001
C  C62  1  0.16789528  0.22279438  0.21168197  1  0.242258  0.382409  0.012939  3.955185  0.012
C  C63  1  0.83210670  0.77721051  0.78832144  1  0.24233  0.38253  0.012938  3.955106  0.012
C  C64  1  0.48349604  0.65179971  0.20906350  1  -0.015771  -0.030246  0.003063  3.992367  0.003
C  C65  1  0.51650600  0.34820095  0.79093549  1  -0.015797  -0.030214  0.003063  3.992419  0.003
C  C66  1  0.97686535  0.31635329  0.03990639  1  -0.048456  -0.047866  0.000607  3.865177  0.0
C  C67  1  0.02313611  0.68364948  0.96009646  1  -0.048439  -0.047829  0.000607  3.86513  0.0
C  C68  1  0.12124509  0.13396962  0.99162869  1  0.090642  0.086289  0.001373  4.042278  0.001
C  C69  1  0.87875447  0.86602998  0.00837390  1  0.090665  0.086301  0.001374  4.042065  0.001
C  C70  1  0.15791802  0.30875821  0.33423177  1  -0.232159  -0.489602  0.00164  3.94615  0.0
C  C71  1  0.84208286  0.69124669  0.66576943  1  -0.232167  -0.489595  0.00164  3.945931  0.0
C  C72  1  0.11298912  0.41140547  0.62774585  1  -0.0875  -0.119992  0.00061  3.966943  0.0
C  C73  1  0.88700939  0.58858989  0.37225012  1  -0.087541  -0.120041  0.00061  3.967049  0.0
C  C74  1  0.14482786  0.73229512  0.49636868  1  -0.020311  -0.041313  0.002923  3.996783  0.002
C  C75  1  0.85517229  0.26770236  0.50362728  1  -0.020203  -0.041238  0.002922  3.996664  0.002
C  C76  1  0.13978107  0.00494764  0.79218666  1  -0.097237  -0.082849  2.1e-05  4.011678  0.0
C  C77  1  0.86021959  0.99505195  0.20781630  1  -0.097227  -0.082842  2.1e-05  4.011623  0.0
C  C78  1  0.25857226  0.95377568  0.87549804  1  -0.104335  -0.106416  0.000538  4.032097  0.001
C  C79  1  0.74142840  0.04622391  0.12450676  1  -0.10437  -0.106423  0.000538  4.032127  0.001
N  N80  1  0.26076160  0.13476892  0.21304140  1  -0.354579  -0.42867  0.037088  3.404751  0.009
N  N81  1  0.73923875  0.86523385  0.78696201  1  -0.354654  -0.428784  0.037091  3.404914  0.009
N  N82  1  0.08094991  0.22453331  0.08042618  1  -0.237402  -0.078192  0.005124  3.678403  0.005
N  N83  1  0.91905128  0.77546841  0.91957549  1  -0.237462  -0.078366  0.005123  3.678404  0.005
O  O84  1  0.39763869  0.85519585  0.27257666  1  -0.304189  -0.559751  0.047954  2.33252  0.033
O  O85  1  0.60235787  0.14480057  0.72742161  1  -0.30424  -0.559835  0.047956  2.332335  0.033
O  O86  1  0.22974796  0.93551843  0.43354553  1  -0.309727  -0.556466  0.050454  2.298316  0.034
O  O87  1  0.77025465  0.06448011  0.56645604  1  -0.309754  -0.556483  0.050456  2.298171  0.034
O  O88  1  0.55355756  0.77503896  0.44144038  1  -0.306898  -0.559884  0.048234  2.314065  0.032
O  O89  1  0.44644337  0.22496170  0.55856009  1  -0.306841  -0.559838  0.048231  2.31426  0.032
O  O90  1  0.39543888  0.87339760  0.61078005  1  -0.313917  -0.566065  0.053067  2.361436  0.037
O  O91  1  0.60455974  0.12658930  0.38921445  1  -0.313817  -0.56597  0.053065  2.361429  0.037
