# generated using pymatgen
data_CuH12C13S2N3O7
_symmetry_space_group_name_H-M   'P 1'
_cell_length_a   6.82971712
_cell_length_b   11.12307787
_cell_length_c   11.49401519
_cell_angle_alpha   109.28835543
_cell_angle_beta   98.87401057
_cell_angle_gamma   99.62599685
_symmetry_Int_Tables_number   1
_chemical_formula_structural   CuH12C13S2N3O7
_chemical_formula_sum   'Cu2 H24 C26 S4 N6 O14'
_cell_volume   791.69606279
_cell_formula_units_Z   2
loop_
 _symmetry_equiv_pos_site_id
 _symmetry_equiv_pos_as_xyz
  1  'x, y, z'
loop_
 _atom_site_type_symbol
 _atom_site_label
 _atom_site_symmetry_multiplicity
 _atom_site_fract_x
 _atom_site_fract_y
 _atom_site_fract_z
 _atom_site_occupancy
 _atom_site_pbe_cm5_charge
 _atom_site_pbe_ddec_charge
 _atom_site_pbe_ddec_spin_density
 _atom_site_pbe_ddec_sum_bond_order
 _atom_site_pbe_magmom
Cu  Cu0  1  0.26391630  0.80077204  0.15582226  1  0.833897  0.933498  0.483996  2.309552  0.28
Cu  Cu1  1  0.73665207  0.19930366  0.84421732  1  0.83557  0.934587  -0.353803  2.31318  -0.261
H  H2  1  0.19109062  0.69834257  0.61766171  1  0.110752  0.113242  0.000192  1.010604  0.0
H  H3  1  0.80885602  0.30167741  0.38228595  1  0.110832  0.113242  0.0  1.010478  0.0
H  H4  1  0.82147873  0.83276448  0.43096027  1  0.121305  0.178637  -6.2e-05  0.995846  0.0
H  H5  1  0.17878662  0.16716032  0.56904009  1  0.121272  0.178649  -4.3e-05  0.99583  0.0
H  H6  1  0.94066665  0.94830154  0.37115640  1  0.12332  0.19181  9e-06  0.981391  0.0
H  H7  1  0.05949281  0.05171332  0.62892073  1  0.123495  0.191894  6.3e-05  0.981331  0.0
H  H8  1  0.26484785  0.36092918  0.13464660  1  0.11016  0.135974  0.000269  0.98842  0.0
H  H9  1  0.73520122  0.63927855  0.86557101  1  0.110091  0.136083  -0.000875  0.987491  0.0
H  H10  1  0.18141054  0.50852121  0.69452488  1  0.111575  0.128219  0.00032  1.013956  0.0
H  H11  1  0.81853491  0.49154182  0.30547382  1  0.111857  0.128683  -0.000639  1.013966  -0.001
H  H12  1  0.22602213  0.92366865  0.77821038  1  0.121842  0.149833  0.000305  0.982535  0.0
H  H13  1  0.77427054  0.07636424  0.22164354  1  0.121756  0.14954  -0.000667  0.983014  -0.001
H  H14  1  0.32034598  0.47048317  0.37088483  1  0.100218  0.102814  -7e-06  1.011469  -0.001
H  H15  1  0.67958104  0.52937271  0.62929307  1  0.099656  0.102608  -0.000113  1.012509  -0.001
H  H16  1  0.21124094  0.55109759  0.92339149  1  0.130647  0.120479  0.000816  0.990203  0.001
H  H17  1  0.78896414  0.44909573  0.07665740  1  0.130962  0.120725  -0.000925  0.989903  -0.001
H  H18  1  0.36717044  0.34537968  0.51129976  1  0.100211  0.099588  -8.9e-05  1.012105  0.0
H  H19  1  0.63278989  0.65442730  0.48881617  1  0.10004  0.098932  1.6e-05  1.012142  -0.001
H  H20  1  0.35604073  0.10571125  0.42449686  1  0.1073  0.130944  -0.000293  1.014751  0.0
H  H21  1  0.64333969  0.89396767  0.57540893  1  0.107352  0.130883  -0.000586  1.015019  0.0
H  H22  1  0.40606030  0.61878417  0.17656118  1  0.293187  0.380238  0.000407  0.966227  0.0
H  H23  1  0.59379692  0.38102022  0.82334209  1  0.293428  0.380573  -0.000308  0.96567  0.0
H  H24  1  0.19381434  0.61780535  0.22148523  1  0.300111  0.382091  0.000353  0.954132  0.0
H  H25  1  0.80612532  0.38218925  0.77840145  1  0.300469  0.382438  -5.9e-05  0.953231  0.0
C  C26  1  0.20030136  0.71268543  0.71696701  1  -0.05598  -0.021229  -0.007534  3.939807  -0.009
C  C27  1  0.79973321  0.28736787  0.28298501  1  -0.055949  -0.020708  -0.004741  3.94037  -0.006
C  C28  1  0.91099409  0.84551897  0.36282208  1  -0.161601  -0.552183  -0.000257  3.78543  0.0
C  C29  1  0.08923587  0.15447446  0.63717239  1  -0.161467  -0.552228  0.000352  3.786722  0.0
C  C30  1  0.28197725  0.30721874  0.19817156  1  -0.088423  -0.153566  -0.003368  3.958281  -0.006
C  C31  1  0.71886332  0.69288434  0.80190747  1  -0.08809  -0.151695  -0.000464  3.957698  -0.003
C  C32  1  0.27021893  0.17212111  0.14819006  1  0.106223  0.157551  0.057722  4.015725  0.041
C  C33  1  0.73130296  0.82815955  0.85180369  1  0.105317  0.156035  0.046932  4.017576  0.032
C  C34  1  0.24598632  0.97459259  0.03131813  1  0.221058  0.263167  0.063339  4.094643  0.049
C  C35  1  0.75295406  0.02548752  0.96843641  1  0.221166  0.262966  0.060295  4.097076  0.046
C  C36  1  0.19663035  0.60815584  0.75850649  1  -0.064584  -0.094253  0.044908  3.891402  0.032
C  C37  1  0.80372688  0.39195027  0.24151799  1  -0.064794  -0.095458  0.036661  3.891119  0.024
C  C38  1  0.21805198  0.83755669  0.80420088  1  -0.05549  -0.108319  0.033698  3.851114  0.024
C  C39  1  0.78168991  0.16248496  0.19568427  1  -0.055967  -0.109536  0.028207  3.852922  0.02
C  C40  1  0.31384059  0.36612095  0.32846843  1  -0.084925  -0.069755  0.063037  3.975134  0.041
C  C41  1  0.68656343  0.63379089  0.67166216  1  -0.087176  -0.075135  0.051206  3.982094  0.033
C  C42  1  0.29084584  0.09779074  0.23046666  1  0.116587  0.1952  0.06501  3.962979  0.045
C  C43  1  0.70945358  0.90219011  0.76943569  1  0.114678  0.192087  0.058495  3.964041  0.04
C  C44  1  0.23006150  0.85292205  0.93093338  1  0.131118  0.156258  0.003717  3.999361  -0.001
C  C45  1  0.76917226  0.14710494  0.06892659  1  0.131343  0.15674  0.00319  4.000111  0.0
C  C46  1  0.21254069  0.63024428  0.88733160  1  0.072314  0.122797  0.012879  3.851283  0.006
C  C47  1  0.78783989  0.36991188  0.11266674  1  0.072662  0.123883  0.012587  3.848462  0.007
C  C48  1  0.33817455  0.29341362  0.40920589  1  -0.08627  -0.075921  0.039338  3.984003  0.024
C  C49  1  0.66203921  0.70640901  0.59092305  1  -0.085568  -0.072891  0.046536  3.98058  0.029
C  C50  1  0.32857605  0.16005767  0.36281531  1  -0.091293  -0.163263  0.01168  3.954328  0.005
C  C51  1  0.67122063  0.83982587  0.63723612  1  -0.092048  -0.16418  0.004761  3.956012  0.0
S  S52  1  0.75628748  0.74872402  0.20626059  1  0.509084  1.26506  -0.000173  6.125416  0.0
S  S53  1  0.24373026  0.25136344  0.79377553  1  0.509327  1.264751  0.000169  6.125715  0.0
S  S54  1  0.15067468  0.80867707  0.40637260  1  0.515675  1.21633  0.002415  6.10837  0.001
S  S55  1  0.84960256  0.19128196  0.59367725  1  0.516011  1.216523  -0.00143  6.107108  -0.001
N  N56  1  0.24261836  0.09147641  0.02471157  1  -0.312506  -0.330532  0.001495  3.161045  -0.002
N  N57  1  0.75796136  0.90869956  0.97516360  1  -0.311425  -0.328807  0.005595  3.157675  0.002
N  N58  1  0.22964235  0.75016737  0.97039954  1  -0.318424  -0.223426  0.066482  3.548875  0.065
N  N59  1  0.76990707  0.24989285  0.02951728  1  -0.317833  -0.222609  -0.024695  3.548276  -0.032
N  N60  1  0.27230647  0.97191426  0.15215510  1  -0.365022  -0.370785  0.069925  3.482347  0.062
N  N61  1  0.72461278  0.02788719  0.84774632  1  -0.365841  -0.370872  -0.026938  3.482491  -0.039
O  O62  1  0.62417051  0.83302979  0.18343097  1  -0.34033  -0.623919  -5.9e-05  2.30661  0.0
O  O63  1  0.37588407  0.16718198  0.81671712  1  -0.339673  -0.62306  0.000166  2.307973  0.0
O  O64  1  0.12066838  0.66563906  0.36447408  1  -0.327607  -0.59239  0.000448  2.205434  0.001
O  O65  1  0.87935848  0.33428391  0.63545213  1  -0.327189  -0.591868  0.000229  2.206244  0.0
O  O66  1  0.64074956  0.62893522  0.21759629  1  -0.345272  -0.61518  0.000525  2.191261  0.001
O  O67  1  0.35921968  0.37118652  0.78246173  1  -0.34527  -0.614926  0.000441  2.190903  0.0
O  O68  1  0.29220691  0.86584640  0.33914375  1  -0.341257  -0.581829  0.02887  2.340148  0.03
O  O69  1  0.70836721  0.13407887  0.66115638  1  -0.340501  -0.580407  -0.021902  2.338564  -0.029
O  O70  1  0.89520883  0.71944014  0.12160872  1  -0.342069  -0.627952  -0.000536  2.274594  0.0
O  O71  1  0.10455056  0.28056914  0.87829042  1  -0.342523  -0.62844  0.000666  2.275121  0.0
O  O72  1  0.25738451  0.62115461  0.14960067  1  -0.554011  -0.69705  0.033266  2.187005  0.033
O  O73  1  0.74257749  0.37865083  0.85026870  1  -0.553206  -0.69604  -0.025343  2.187027  -0.033
O  O74  1  0.21957758  0.87981277  0.54147155  1  -0.302437  -0.522915  0.007788  2.169485  0.008
O  O75  1  0.78023916  0.11999032  0.45862401  1  -0.301843  -0.522226  -0.00581  2.168895  -0.007
