# generated using pymatgen
data_CuH24C19N3O4
_symmetry_space_group_name_H-M   'P 1'
_cell_length_a   9.33816610
_cell_length_b   15.84424285
_cell_length_c   16.86575054
_cell_angle_alpha   95.53105126
_cell_angle_beta   104.36800821
_cell_angle_gamma   102.45130303
_symmetry_Int_Tables_number   1
_chemical_formula_structural   CuH24C19N3O4
_chemical_formula_sum   'Cu4 H96 C76 N12 O16'
_cell_volume   2330.66198173
_cell_formula_units_Z   4
loop_
 _symmetry_equiv_pos_site_id
 _symmetry_equiv_pos_as_xyz
  1  'x, y, z'
loop_
 _atom_site_type_symbol
 _atom_site_label
 _atom_site_symmetry_multiplicity
 _atom_site_fract_x
 _atom_site_fract_y
 _atom_site_fract_z
 _atom_site_occupancy
 _atom_site_pbe_bader_charge
 _atom_site_pbe_bader_spin_density
 _atom_site_pbe_cm5_charge
 _atom_site_pbe_ddec_charge
 _atom_site_pbe_ddec_spin_density
 _atom_site_pbe_ddec_sum_bond_order
 _atom_site_pbe_magmom
Cu  Cu0  1  0.95667670  0.99440948  0.06616309  1  1.053104  0.529255  0.674268  0.73152  0.682142  2.421734  0.527
Cu  Cu1  1  0.04333639  0.00559647  0.93385339  1  1.052632  -0.529261  0.674285  0.731683  -0.682145  2.421547  -0.527
Cu  Cu2  1  0.09148386  0.56861610  0.49084131  1  1.052538  -0.527796  0.677738  0.731379  -0.679499  2.431641  -0.525
Cu  Cu3  1  0.90852450  0.43138925  0.50915609  1  1.052371  0.527781  0.677693  0.731404  0.67949  2.431594  0.525
H  H4  1  0.38951756  0.99179023  0.79944800  1  0.026394  0.000267  0.080613  0.11028  0.000132  1.064768  0.0
H  H5  1  0.61050794  0.00821640  0.20055186  1  0.026401  -0.000266  0.080601  0.110303  -0.000132  1.064791  0.0
H  H6  1  0.58168326  0.04524178  0.80648504  1  0.025973  -0.000121  0.084534  0.119444  -7.4e-05  1.009849  0.0
H  H7  1  0.41833594  0.95476814  0.19351486  1  0.02603  0.000121  0.084498  0.119405  7.4e-05  1.009903  0.0
H  H8  1  0.51159198  0.05100046  0.89584284  1  0.0451  3.3e-05  0.090314  0.128751  1.4e-05  1.003389  0.0
H  H9  1  0.48843058  0.94901207  0.10415776  1  0.045202  -3.3e-05  0.090337  0.128844  -1.4e-05  1.003248  0.0
H  H10  1  0.32857360  0.85614620  0.86542125  1  0.04164  -0.001205  0.08499  0.119608  -0.000632  1.008881  -0.001
H  H11  1  0.67144732  0.14386764  0.13457748  1  0.041683  0.001205  0.084962  0.11963  0.000631  1.008939  0.001
H  H12  1  0.44875123  0.91581916  0.96193584  1  0.050797  0.00019  0.089078  0.12859  0.000155  1.020734  0.0
H  H13  1  0.55126577  0.08419075  0.03806613  1  0.050968  -0.00019  0.089102  0.128654  -0.000155  1.020631  0.0
H  H14  1  0.47913853  0.81486578  0.92221201  1  0.027774  3e-06  0.08326  0.112821  1.3e-05  1.012307  0.0
H  H15  1  0.52088154  0.18514609  0.07779115  1  0.027258  -3e-06  0.083261  0.112869  -1.3e-05  1.012408  0.0
H  H16  1  0.42185948  0.84827140  0.73939713  1  -0.001562  0.001116  0.08348  0.113259  0.000565  1.012654  0.001
H  H17  1  0.57816448  0.15174175  0.26061440  1  -0.001714  -0.001116  0.083464  0.113257  -0.000565  1.012552  -0.001
H  H18  1  0.57427670  0.80499083  0.79004287  1  0.027327  1.3e-05  0.086159  0.119288  1.4e-05  1.019862  0.0
H  H19  1  0.42573806  0.19501644  0.20996566  1  0.027153  -1.3e-05  0.086126  0.119232  -1.4e-05  1.01983  0.0
H  H20  1  0.61459362  0.90030127  0.74380835  1  0.034127  -0.000253  0.083881  0.117544  -0.000211  1.027742  0.0
H  H21  1  0.38542190  0.09970275  0.25619228  1  0.034394  0.000253  0.083917  0.1176  0.000211  1.027668  0.0
H  H22  1  0.06636528  0.71147848  0.08828008  1  0.063017  -8e-06  0.086017  0.119878  4e-06  1.006519  0.0
H  H23  1  0.93363526  0.28852164  0.91171754  1  0.062986  8e-06  0.085998  0.11986  -4e-06  1.006536  0.0
H  H24  1  0.92227745  0.62087175  0.02574173  1  -0.009342  -0.001222  0.083791  0.114394  -0.000636  1.003481  -0.001
H  H25  1  0.07772117  0.37912902  0.97425925  1  -0.009391  0.001222  0.08381  0.11442  0.000636  1.003427  0.001
H  H26  1  0.87226299  0.71157664  0.07303171  1  0.045111  0.000192  0.08672  0.122481  0.000169  1.018296  0.0
H  H27  1  0.12774116  0.28842412  0.92697062  1  0.044926  -0.000192  0.08673  0.122501  -0.000169  1.018319  0.0
H  H28  1  0.18729876  0.72901902  0.96529427  1  0.036109  2.5e-05  0.088022  0.12422  9e-06  0.99281  0.0
H  H29  1  0.81269679  0.27097981  0.03470078  1  0.03585  -2.5e-05  0.087963  0.124165  -9e-06  0.992787  0.0
H  H30  1  0.07044128  0.73451663  0.86635464  1  0.038889  -0.000272  0.085207  0.116766  -0.000227  1.032871  0.0
H  H31  1  0.92954855  0.26548679  0.13364005  1  0.039057  0.000272  0.085185  0.116687  0.000227  1.032784  0.0
H  H32  1  0.04322436  0.63508310  0.90846532  1  0.002147  0.001108  0.084816  0.114477  0.000578  1.015026  0.001
H  H33  1  0.95676104  0.36492032  0.09152936  1  0.002466  -0.001108  0.08481  0.114445  -0.000578  1.015104  -0.001
H  H34  1  0.76036187  0.63558503  0.88342209  1  0.038047  0.000254  0.089025  0.122499  0.000131  0.997759  0.0
H  H35  1  0.23962996  0.36442296  0.11657627  1  0.037964  -0.000253  0.089034  0.122446  -0.000131  0.997941  0.0
H  H36  1  0.79034835  0.73863060  0.84808918  1  0.025346  -7.9e-05  0.086462  0.116562  -4.8e-05  1.037308  0.0
H  H37  1  0.20964988  0.26137933  0.15191379  1  0.02523  7.9e-05  0.086464  0.116587  4.8e-05  1.037242  0.0
H  H38  1  0.70927554  0.72499935  0.93247723  1  0.030068  4.9e-05  0.088511  0.122199  2.1e-05  1.004815  0.0
H  H39  1  0.29072292  0.27500863  0.06752440  1  0.029907  -4.9e-05  0.08851  0.122172  -2.1e-05  1.004802  0.0
H  H40  1  0.77584353  0.50537194  0.13807189  1  -0.00637  0.001156  0.084382  0.114828  0.000602  1.002759  0.001
H  H41  1  0.22414489  0.49461313  0.86192565  1  -0.006358  -0.001156  0.084294  0.114796  -0.000602  1.002691  -0.001
H  H42  1  0.93609119  0.47815192  0.20222745  1  0.018368  -5e-06  0.083285  0.11399  -1.2e-05  1.013969  0.0
H  H43  1  0.06389756  0.52183642  0.79776984  1  0.018456  5e-06  0.083288  0.113974  1.2e-05  1.01393  0.0
H  H44  1  0.90253663  0.58318628  0.22308660  1  0.069585  -0.000207  0.087662  0.126907  -0.000183  1.03838  0.0
H  H45  1  0.09745461  0.41680272  0.77690872  1  0.06929  0.000207  0.087616  0.126783  0.000183  1.03847  0.0
H  H46  1  0.59436927  0.37507785  0.15788298  1  0.019941  -0.00119  0.085453  0.114951  -0.00062  1.009221  -0.001
H  H47  1  0.40562186  0.62490326  0.84212404  1  0.020278  0.001189  0.085431  0.114881  0.00062  1.009201  0.001
H  H48  1  0.59032977  0.35264074  0.25906475  1  0.032254  0.000244  0.085738  0.119338  0.000204  1.024454  0.0
H  H49  1  0.40967009  0.64735017  0.74094438  1  0.03237  -0.000245  0.085779  0.119355  -0.000204  1.02442  0.0
H  H50  1  0.74645518  0.33983456  0.22060477  1  0.032155  -2.8e-05  0.086039  0.119389  -1.4e-05  1.007567  0.0
H  H51  1  0.25354382  0.66015439  0.77940405  1  0.032178  2.8e-05  0.086017  0.119328  1.4e-05  1.007644  0.0
H  H52  1  0.55402098  0.52591987  0.19738136  1  0.02484  5.8e-05  0.087955  0.119562  3.1e-05  0.999472  0.0
H  H53  1  0.44596140  0.47406650  0.80262140  1  0.0245  -5.8e-05  0.087923  0.119558  -3.1e-05  0.999442  0.0
H  H54  1  0.68361075  0.59898469  0.28510575  1  0.017837  -6.6e-05  0.086631  0.118187  -3.3e-05  1.013232  0.0
H  H55  1  0.31637605  0.40100167  0.71489583  1  0.017737  6.5e-05  0.08663  0.118045  3.3e-05  1.013091  0.0
H  H56  1  0.55575519  0.50399224  0.29934345  1  0.036493  7.1e-05  0.088876  0.123733  4.4e-05  1.01079  0.0
H  H57  1  0.44424155  0.49599411  0.70066008  1  0.036743  -7.1e-05  0.088892  0.123748  -4.4e-05  1.010667  0.0
H  H58  1  0.43147488  0.45531817  0.40979852  1  0.066941  -0.000241  0.088018  0.12301  -0.000208  1.020445  0.0
H  H59  1  0.56851035  0.54467478  0.59019279  1  0.06679  0.000241  0.087985  0.123002  0.000208  1.020374  0.0
H  H60  1  0.46744597  0.35000979  0.39452914  1  0.020617  0.001137  0.08408  0.119803  0.000589  1.015012  0.001
H  H61  1  0.53254536  0.64998445  0.60546668  1  0.020663  -0.001137  0.084054  0.119725  -0.000589  1.015007  -0.001
H  H62  1  0.46716136  0.39742550  0.49422311  1  0.039066  2.8e-05  0.086621  0.124726  1.3e-05  1.00663  0.0
H  H63  1  0.53282944  0.60257007  0.50576861  1  0.03887  -2.8e-05  0.086606  0.124642  -1.3e-05  1.006606  0.0
H  H64  1  0.26505925  0.21347187  0.39854350  1  0.005189  -0.001148  0.082752  0.116783  -0.000595  1.016417  -0.001
H  H65  1  0.73492100  0.78651975  0.60145650  1  0.004848  0.001148  0.082748  0.116759  0.000594  1.016399  0.001
H  H66  1  0.09051121  0.22568693  0.41793783  1  0.045841  0.000233  0.083216  0.11535  0.000213  1.041137  0.0
H  H67  1  0.90947580  0.77431254  0.58206441  1  0.045919  -0.000234  0.083213  0.115358  -0.000213  1.041049  0.0
H  H68  1  0.26280750  0.25914220  0.49888335  1  0.048685  -9e-06  0.083832  0.120582  5e-06  1.008405  0.0
H  H69  1  0.73717971  0.74085269  0.50111908  1  0.048403  9e-06  0.08383  0.120606  -5e-06  1.008456  0.0
H  H70  1  0.18590144  0.40305449  0.29243782  1  0.039257  -8.4e-05  0.090813  0.126775  -4.9e-05  0.996903  0.0
H  H71  1  0.81407761  0.59693191  0.70755618  1  0.039022  8.4e-05  0.090848  0.126821  4.9e-05  0.996709  0.0
H  H72  1  0.04401591  0.30904336  0.29566599  1  0.050939  4.5e-05  0.087079  0.119456  1.5e-05  1.004164  0.0
H  H73  1  0.95596680  0.69094629  0.70433534  1  0.051174  -4.5e-05  0.087124  0.119498  -1.5e-05  1.004016  0.0
H  H74  1  0.22008088  0.29697435  0.27892106  1  0.024852  0.000209  0.088416  0.119873  0.000104  1.021302  0.0
H  H75  1  0.77989846  0.70301269  0.72107661  1  0.02444  -0.000209  0.088363  0.11979  -0.000104  1.021416  0.0
H  H76  1  0.00099290  0.11539100  0.22604454  1  0.102664  -6.8e-05  0.120781  0.094757  -4.1e-05  0.988705  0.0
H  H77  1  0.99901354  0.88461500  0.77395918  1  0.102825  6.8e-05  0.120788  0.094795  4e-05  0.988528  0.0
H  H78  1  0.93637948  0.11034829  0.36278477  1  0.122222  -2.8e-05  0.106885  0.110777  -2.3e-05  1.044136  0.0
H  H79  1  0.06362446  0.88965706  0.63721618  1  0.122353  2.8e-05  0.10689  0.110809  2.3e-05  1.043968  0.0
H  H80  1  0.70755135  0.83834406  0.27619305  1  0.10592  -2.5e-05  0.113328  0.119131  -8e-06  0.999021  0.0
H  H81  1  0.29245971  0.16165735  0.72380435  1  0.105745  2.5e-05  0.113403  0.119223  8e-06  0.998989  0.0
H  H82  1  0.78684863  0.85374028  0.14458404  1  0.131445  -6.8e-05  0.124653  0.100132  -4.2e-05  0.974701  0.0
H  H83  1  0.21316861  0.14626768  0.85541601  1  0.131323  6.8e-05  0.124608  0.10004  4.3e-05  0.974666  0.0
H  H84  1  0.97183394  0.18727806  0.54132836  1  0.112073  1.6e-05  0.107971  0.115936  1.3e-05  1.019852  0.0
H  H85  1  0.02815850  0.81271617  0.45866939  1  0.11209  -1.6e-05  0.107955  0.115966  -1.3e-05  1.019711  0.0
H  H86  1  0.07033061  0.30855776  0.66153042  1  0.099895  6e-05  0.110255  0.08453  7.7e-05  1.022956  0.0
H  H87  1  0.92965720  0.69144108  0.33846416  1  0.099866  -6.1e-05  0.110266  0.084497  -7.7e-05  1.022949  0.0
H  H88  1  0.86795932  0.15683637  0.81005906  1  0.092704  -1.8e-05  0.112398  0.086847  -1.7e-05  1.001842  0.0
H  H89  1  0.13202825  0.84316442  0.18993923  1  0.092638  1.8e-05  0.112405  0.086886  1.7e-05  1.001941  0.0
H  H90  1  0.74466461  0.03283151  0.69255846  1  0.073868  -3.5e-05  0.106551  0.11278  -2.9e-05  1.024226  0.0
H  H91  1  0.25532898  0.96716534  0.30744147  1  0.073953  3.5e-05  0.106533  0.112669  2.9e-05  1.02416  0.0
H  H92  1  0.47308107  0.87425874  0.59946833  1  0.101739  4.1e-05  0.108622  0.112647  3e-05  1.030882  0.0
H  H93  1  0.52692107  0.12573743  0.40053329  1  0.102111  -4.1e-05  0.108627  0.112673  -3e-05  1.030831  0.0
H  H94  1  0.26523944  0.74234994  0.59908543  1  0.104712  0.000109  0.120474  0.091817  7.7e-05  0.987452  0.0
H  H95  1  0.73476049  0.25764625  0.40091293  1  0.104713  -0.000109  0.120431  0.091742  -7.7e-05  0.987455  0.0
H  H96  1  0.25082649  0.63405896  0.36379770  1  0.117286  8.2e-05  0.125427  0.100801  5.7e-05  0.96647  0.0
H  H97  1  0.74916574  0.36593987  0.63619749  1  0.117009  -8.2e-05  0.125447  0.100823  -5.7e-05  0.966539  0.0
H  H98  1  0.45915559  0.76086233  0.35409865  1  0.115877  2.4e-05  0.112432  0.118887  7e-06  1.003056  0.0
H  H99  1  0.54084307  0.23914107  0.64589962  1  0.11588  -2.4e-05  0.112458  0.118943  -7e-06  1.003092  0.0
C  C100  1  0.71937821  0.95208446  0.91299550  1  1.525975  -0.000261  0.21979  0.571456  -0.000238  4.060671  0.0
C  C101  1  0.28064984  0.04792542  0.08700916  1  1.52565  0.000262  0.219724  0.571456  0.000239  4.060883  0.0
C  C102  1  0.55237801  0.92366821  0.85919009  1  0.099357  0.000322  -0.013484  0.166271  0.000186  3.809066  0.0
C  C103  1  0.44764292  0.07634563  0.14081278  1  0.099901  -0.000316  -0.013568  0.166021  -0.000184  3.809369  0.0
C  C104  1  0.50700551  0.00862549  0.83927550  1  -0.08153  0.000243  -0.242921  -0.399145  0.000164  3.878255  0.0
C  C105  1  0.49301648  0.99138572  0.16072609  1  -0.081773  -0.000243  -0.242954  -0.399208  -0.000164  3.878133  0.0
C  C106  1  0.44665669  0.87477689  0.90530070  1  -0.089199  -0.001366  -0.24475  -0.401941  -0.000833  3.906044  -0.001
C  C107  1  0.55336534  0.12523695  0.09470114  1  -0.088806  0.001366  -0.244716  -0.402024  0.000833  3.906258  0.001
C  C108  1  0.54085314  0.86597329  0.77819369  1  -0.055865  0.001003  -0.244794  -0.404047  0.000641  3.910347  0.001
C  C109  1  0.45916660  0.13403530  0.22181150  1  -0.056392  -0.001004  -0.244693  -0.403902  -0.000641  3.910409  -0.001
C  C110  1  0.99018878  0.83525509  0.98372981  1  1.514331  -3.9e-05  0.220306  0.571367  -3.8e-05  4.055534  0.0
C  C111  1  0.00981598  0.16474959  0.01627357  1  1.514491  3.9e-05  0.220392  0.571732  3.8e-05  4.05517  0.0
C  C112  1  0.95512705  0.73447648  0.96446637  1  0.075064  0.000371  -0.013689  0.163274  0.000259  3.808799  0.0
C  C113  1  0.04486830  0.26552692  0.03553323  1  0.074575  -0.000366  -0.013627  0.163046  -0.000255  3.809074  0.0
C  C114  1  0.95390752  0.69259303  0.04248966  1  -0.066121  -0.001029  -0.245276  -0.405636  -0.000606  3.932486  -0.001
C  C115  1  0.04609417  0.30740971  0.95750778  1  -0.065783  0.00103  -0.245306  -0.40563  0.000607  3.932496  0.001
C  C116  1  0.07090313  0.70685646  0.92351396  1  -0.045088  0.000783  -0.243344  -0.403964  0.000462  3.919802  0.001
C  C117  1  0.92908808  0.29314761  0.07647920  1  -0.045022  -0.000783  -0.243292  -0.403743  -0.000462  3.919699  -0.001
C  C118  1  0.79371531  0.70691126  0.90332246  1  -0.076854  0.000313  -0.239253  -0.403202  0.000226  3.89085  0.0
C  C119  1  0.20628263  0.29309804  0.09667685  1  -0.076506  -0.000313  -0.239282  -0.403075  -0.000226  3.890928  0.0
C  C120  1  0.84380105  0.48468484  0.34716411  1  1.54274  1.3e-05  0.219968  0.568115  4.7e-05  4.059204  0.0
C  C121  1  0.15620526  0.51531330  0.65283531  1  1.542821  -1.2e-05  0.219885  0.568081  -4.7e-05  4.059217  0.0
C  C122  1  0.74660260  0.47621527  0.25673411  1  0.066452  -6e-05  -0.012754  0.166566  -5.1e-05  3.80207  0.0
C  C123  1  0.25339229  0.52377699  0.74326438  1  0.066631  5.7e-05  -0.012775  0.166279  4.8e-05  3.802326  0.0
C  C124  1  0.84677342  0.51340974  0.20233472  1  -0.054007  0.001049  -0.245056  -0.405617  0.000641  3.910597  0.001
C  C125  1  0.15321562  0.48657926  0.79766267  1  -0.053935  -0.00105  -0.244946  -0.405381  -0.000641  3.910489  -0.001
C  C126  1  0.66454293  0.38010707  0.22184196  1  -0.062397  -0.00116  -0.244616  -0.405267  -0.00072  3.923665  -0.001
C  C127  1  0.33545356  0.61988124  0.77816469  1  -0.062848  0.00116  -0.244609  -0.405059  0.00072  3.923834  0.001
C  C128  1  0.62785257  0.52972330  0.26024802  1  -0.066908  8.6e-05  -0.237655  -0.395795  6.2e-05  3.888494  0.0
C  C129  1  0.37213643  0.47026306  0.73975505  1  -0.066785  -8.6e-05  -0.237585  -0.395543  -6.3e-05  3.888023  0.0
C  C130  1  0.15800643  0.40442228  0.44831348  1  1.546143  -8.4e-05  0.218892  0.56904  -7e-06  4.060623  0.0
C  C131  1  0.84198941  0.59557719  0.55168404  1  1.54623  8.5e-05  0.218979  0.569195  8e-06  4.060638  0.0
C  C132  1  0.24036173  0.34668968  0.40653675  1  0.06842  0.000274  -0.015363  0.162944  0.000176  3.819081  0.0
C  C133  1  0.75962596  0.65330129  0.59346005  1  0.06857  -0.000277  -0.015449  0.162824  -0.000178  3.819345  0.0
C  C134  1  0.41140537  0.39000031  0.42761798  1  -0.090603  0.000952  -0.245778  -0.401249  0.000601  3.890094  0.001
C  C135  1  0.58858870  0.60999263  0.57237513  1  -0.090067  -0.000953  -0.245652  -0.401033  -0.000601  3.89002  -0.001
C  C136  1  0.21302676  0.25574815  0.43206803  1  -0.093626  -0.000992  -0.249031  -0.404925  -0.000581  3.919157  -0.001
C  C137  1  0.78695881  0.74424806  0.56793074  1  -0.09352  0.000991  -0.249025  -0.404949  0.000581  3.919006  0.001
C  C138  1  0.16756624  0.33868584  0.31265910  1  -0.097906  0.000271  -0.237861  -0.401088  0.000186  3.888602  0.0
C  C139  1  0.83241703  0.66130513  0.68733710  1  -0.097559  -0.000271  -0.237917  -0.401097  -0.000187  3.888491  0.0
C  C140  1  0.93711050  0.05535110  0.24039864  1  0.49557  -0.000845  0.053447  0.09948  -0.000555  3.939471  -0.001
C  C141  1  0.06289905  0.94465948  0.75960357  1  0.495703  0.000843  0.053467  0.099581  0.000554  3.939409  0.001
C  C142  1  0.90122524  0.05251711  0.31551114  1  -0.035413  0.000222  -0.078543  -0.157268  0.000144  3.948083  0.0
C  C143  1  0.09877679  0.94748890  0.68449139  1  -0.03541  -0.000221  -0.078524  -0.157438  -0.000144  3.947977  0.0
C  C144  1  0.81573516  0.97382475  0.32901413  1  -0.049975  -0.000866  0.009572  0.035846  -0.00056  3.973658  -0.001
C  C145  1  0.18426763  0.02617798  0.67098523  1  -0.050324  0.000865  0.009591  0.035939  0.00056  3.97364  0.001
C  C146  1  0.77342029  0.90042182  0.26723112  1  -0.047924  0.000176  -0.069806  -0.14195  0.000121  3.940049  0.0
C  C147  1  0.22658696  0.09958352  0.73276910  1  -0.047598  -0.000176  -0.069889  -0.142013  -0.000121  3.939985  0.0
C  C148  1  0.81598568  0.90896271  0.19446746  1  0.511314  -0.00083  0.058471  0.104137  -0.00055  3.929891  -0.001
C  C149  1  0.18401769  0.09104133  0.80553329  1  0.511365  0.000829  0.05851  0.104231  0.00055  3.929911  0.001
C  C150  1  0.76580905  0.96947777  0.40541551  1  1.113925  -0.000149  0.264442  0.38739  -9e-05  3.999613  0.0
C  C151  1  0.23419284  0.03052037  0.59458389  1  1.113854  0.000149  0.264411  0.387289  9e-05  3.99975  0.0
C  C152  1  0.77952165  0.02935616  0.53582016  1  1.085646  6e-06  0.262869  0.382766  6e-06  4.003646  0.0
C  C153  1  0.22047300  0.97063807  0.46417848  1  1.085678  -6e-06  0.262842  0.382627  -6e-06  4.003471  0.0
C  C154  1  0.60751724  0.90067949  0.47458488  1  1.113086  0.000142  0.264308  0.383318  9.3e-05  4.011459  0.0
C  C155  1  0.39248628  0.09931735  0.52541403  1  1.113097  -0.000142  0.264346  0.383427  -9.3e-05  4.011389  0.0
C  C156  1  0.84854069  0.10057188  0.60731344  1  -0.008309  4e-06  -0.000197  0.020684  4e-06  3.991904  0.0
C  C157  1  0.15145233  0.89942365  0.39268629  1  -0.008436  -4e-06  -0.000173  0.020776  -4e-06  3.992052  0.0
C  C158  1  0.94511027  0.17842291  0.59969151  1  -0.049715  5.5e-05  -0.080916  -0.148925  3.6e-05  3.940576  0.0
C  C159  1  0.05488167  0.82157526  0.40030535  1  -0.050069  -5.5e-05  -0.080901  -0.148991  -3.6e-05  3.9405  0.0
C  C160  1  0.00188773  0.24553231  0.66754022  1  0.50626  0.000113  0.039835  0.080032  6.9e-05  3.994056  0.0
C  C161  1  0.99810177  0.75446783  0.33245708  1  0.506854  -0.000113  0.039833  0.080076  -6.9e-05  3.994  0.0
C  C162  1  0.88467351  0.16258970  0.74874817  1  0.525495  -1e-06  0.041758  0.082949  -2e-06  3.990447  0.0
C  C163  1  0.11531930  0.83741044  0.25124722  1  0.5254  1e-06  0.041724  0.082793  2e-06  3.990357  0.0
C  C164  1  0.81762022  0.09275122  0.68381286  1  -0.038706  -4.4e-05  -0.079451  -0.150108  -3.6e-05  3.93879  0.0
C  C165  1  0.18237447  0.90724562  0.31618663  1  -0.03855  4.4e-05  -0.079405  -0.149869  3.6e-05  3.938608  0.0
C  C166  1  0.48207900  0.82666691  0.47662398  1  -0.038902  0.000941  0.010764  0.036871  0.000612  3.968104  0.001
C  C167  1  0.51791929  0.17333059  0.52337369  1  -0.039075  -0.000941  0.010743  0.036807  -0.000612  3.968168  -0.001
C  C168  1  0.42611676  0.82226996  0.54621732  1  -0.023584  -0.000249  -0.076489  -0.153466  -0.000157  3.941021  0.0
C  C169  1  0.57388350  0.17772949  0.45378318  1  -0.023937  0.000249  -0.076457  -0.153452  0.000157  3.941127  0.0
C  C170  1  0.31156437  0.74977825  0.54609683  1  0.521246  0.00096  0.05481  0.101782  0.000627  3.940864  0.001
C  C171  1  0.68843118  0.25022056  0.45390355  1  0.521151  -0.000959  0.054813  0.101767  -0.000627  3.940914  -0.001
C  C172  1  0.30407481  0.68881131  0.41446786  1  0.509785  0.000934  0.057194  0.100844  0.000618  3.941487  0.001
C  C173  1  0.69591997  0.31119078  0.58552975  1  0.509714  -0.000934  0.057073  0.100713  -0.000618  3.941621  -0.001
C  C174  1  0.41845895  0.75861837  0.40915655  1  -0.042885  -0.000276  -0.070518  -0.144519  -0.000189  3.934853  0.0
C  C175  1  0.58153525  0.24138241  0.59084205  1  -0.042284  0.000276  -0.070464  -0.14449  0.000189  3.934803  0.0
N  N176  1  0.89440965  0.98515333  0.18072072  1  -1.1864  -0.001594  -0.327664  -0.221514  -0.000706  3.501339  0.0
N  N177  1  0.10559708  0.01485332  0.81928192  1  -1.186529  0.001593  -0.327745  -0.221686  0.000706  3.501361  0.0
N  N178  1  0.83209844  0.03579898  0.46867620  1  -1.187154  5.9e-05  -0.300862  -0.397294  4.3e-05  3.208362  0.0
N  N179  1  0.16790378  0.96420244  0.53132592  1  -1.187189  -5.9e-05  -0.300843  -0.397223  -4.3e-05  3.208317  0.0
N  N180  1  0.66670236  0.96329084  0.54159642  1  -1.195707  1.8e-05  -0.300479  -0.397436  1e-05  3.199467  0.0
N  N181  1  0.33330039  0.03670928  0.45840269  1  -1.195683  -1.8e-05  -0.300505  -0.397437  -1e-05  3.199289  0.0
N  N182  1  0.65414846  0.90005028  0.40542378  1  -1.203731  3.8e-05  -0.300496  -0.398827  2.4e-05  3.203394  0.0
N  N183  1  0.34586001  0.09994524  0.59457628  1  -1.203669  -3.8e-05  -0.300535  -0.398895  -2.4e-05  3.203447  0.0
N  N184  1  0.97375877  0.23864601  0.74128141  1  -1.189172  1.9e-05  -0.318484  -0.267197  6e-06  3.312893  0.0
N  N185  1  0.02622933  0.76135348  0.25871505  1  -1.189491  -1.9e-05  -0.318451  -0.267171  -6e-06  3.312706  0.0
N  N186  1  0.25224769  0.68411920  0.48179272  1  -1.222749  0.001562  -0.330774  -0.22474  0.000658  3.520434  0.0
N  N187  1  0.74774872  0.31588158  0.51820441  1  -1.222698  -0.001559  -0.330727  -0.224669  -0.000656  3.5203  0.0
O  O188  1  0.74331880  0.95853934  0.99117499  1  -1.114309  0.082251  -0.312263  -0.509377  0.053652  2.351171  0.075
O  O189  1  0.25670261  0.04147056  0.00882758  1  -1.114223  -0.082259  -0.312172  -0.509312  -0.053658  2.350982  -0.075
O  O190  1  0.82033320  0.96985924  0.87418496  1  -1.123513  -0.081176  -0.318964  -0.524602  -0.052983  2.368355  -0.074
O  O191  1  0.17969206  0.03014934  0.12581980  1  -1.123296  0.081165  -0.31892  -0.524572  0.052976  2.36859  0.074
O  O192  1  0.96148010  0.86792582  0.04825083  1  -1.116268  0.082069  -0.309293  -0.516907  0.053667  2.385743  0.075
O  O193  1  0.03852348  0.13207362  0.95175426  1  -1.116368  -0.082065  -0.309383  -0.517092  -0.053666  2.38569  -0.075
O  O194  1  0.03668991  0.87766522  0.93075641  1  -1.118005  -0.080132  -0.313457  -0.519217  -0.052444  2.367078  -0.073
O  O195  1  0.96332210  0.12234337  0.06925246  1  -1.117888  0.080146  -0.313454  -0.519381  0.052453  2.367001  0.073
O  O196  1  0.95905734  0.55007275  0.37347365  1  -1.118957  -0.082341  -0.310087  -0.517497  -0.053719  2.379478  -0.075
O  O197  1  0.04093825  0.44992870  0.62652283  1  -1.118997  0.08235  -0.310001  -0.517446  0.053724  2.379389  0.075
O  O198  1  0.79846790  0.42739023  0.38933534  1  -1.115306  0.080111  -0.310395  -0.515464  0.05235  2.374373  0.073
O  O199  1  0.20154225  0.57260659  0.61066448  1  -1.115298  -0.080101  -0.310436  -0.515502  -0.052344  2.374418  -0.073
O  O200  1  0.20521663  0.48675831  0.45303082  1  -1.118121  -0.081133  -0.311945  -0.511047  -0.053041  2.370704  -0.074
O  O201  1  0.79478803  0.51324116  0.54696494  1  -1.118178  0.081136  -0.311954  -0.511101  0.053043  2.370824  0.074
O  O202  1  0.04449675  0.36499784  0.47100212  1  -1.11505  0.082366  -0.317207  -0.518149  0.053854  2.371917  0.075
O  O203  1  0.95549830  0.63500492  0.52899322  1  -1.115059  -0.082366  -0.317218  -0.518174  -0.053854  2.371717  -0.075
