# generated using pymatgen
data_ZnH9C8NO6
_symmetry_space_group_name_H-M   'P 1'
_cell_length_a   6.41181130
_cell_length_b   9.61317572
_cell_length_c   14.87073349
_cell_angle_alpha   93.87897965
_cell_angle_beta   90.00001897
_cell_angle_gamma   89.99998197
_symmetry_Int_Tables_number   1
_chemical_formula_structural   ZnH9C8NO6
_chemical_formula_sum   'Zn4 H36 C32 N4 O24'
_cell_volume   914.50053772
_cell_formula_units_Z   4
loop_
 _symmetry_equiv_pos_site_id
 _symmetry_equiv_pos_as_xyz
  1  'x, y, z'
loop_
 _atom_site_type_symbol
 _atom_site_label
 _atom_site_symmetry_multiplicity
 _atom_site_fract_x
 _atom_site_fract_y
 _atom_site_fract_z
 _atom_site_occupancy
 _atom_site_hle17_bader_spin_density
 _atom_site_hle17_ddec_charge
 _atom_site_hle17_ddec_spin_density
 _atom_site_hle17_ddec_sum_bond_order
 _atom_site_hle17_magmom
 _atom_site_hse06_10hf_bader_spin_density
 _atom_site_hse06_10hf_ddec_charge
 _atom_site_hse06_10hf_ddec_spin_density
 _atom_site_hse06_10hf_ddec_sum_bond_order
 _atom_site_hse06_10hf_magmom
 _atom_site_hse06_bader_spin_density
 _atom_site_hse06_ddec_charge
 _atom_site_hse06_ddec_spin_density
 _atom_site_hse06_ddec_sum_bond_order
 _atom_site_hse06_magmom
 _atom_site_pbe_bader_spin_density
 _atom_site_pbe_cm5_charge
 _atom_site_pbe_ddec_charge
 _atom_site_pbe_ddec_spin_density
 _atom_site_pbe_ddec_sum_bond_order
 _atom_site_pbe_magmom
Zn  Zn0  1  0.98974217  0.64777016  0.37440414  1  0  1.130017  0  1.694297  0  0  0.965433  0  2.129237  0  0  1.012229  0  2.074151  0  0  0.67189  0.932517  0  2.167048  0
Zn  Zn1  1  0.48974302  0.35222911  0.12559487  1  0  1.130037  0  1.694283  0  0  0.965428  0  2.129219  0  0  1.012226  0  2.074137  0  0  0.671885  0.932513  0  2.167029  0
Zn  Zn2  1  0.01025468  0.35223071  0.62559528  1  0  1.130016  0  1.694292  0  0  0.965413  0  2.129235  0  0  1.012207  0  2.074152  0  0  0.671873  0.932496  0  2.167045  0
Zn  Zn3  1  0.51025851  0.64776969  0.87440377  1  0  1.130019  0  1.694284  0  0  0.965432  0  2.129221  0  0  1.01223  0  2.074137  0  0  0.671896  0.932517  0  2.167034  0
H  H4  1  0.64366527  0.61933604  0.43645069  1  0  0.420538  0  0.886532  0  0  0.384673  0  0.958821  0  0  0.396904  0  0.941228  0  0  0.288234  0.376043  0  0.971218  0
H  H5  1  0.14366605  0.38066432  0.06355034  1  0  0.420458  0  0.886641  0  0  0.384561  0  0.958988  0  0  0.396793  0  0.941394  0  0  0.288185  0.375931  0  0.971386  0
H  H6  1  0.35633315  0.38066378  0.56355002  1  0  0.420482  0  0.886606  0  0  0.384595  0  0.958937  0  0  0.396827  0  0.941344  0  0  0.288202  0.375965  0  0.971334  0
H  H7  1  0.85633548  0.61933653  0.93645110  1  0  0.420471  0  0.886628  0  0  0.384572  0  0.958969  0  0  0.396804  0  0.941375  0  0  0.288191  0.375942  0  0.971367  0
H  H8  1  0.78516823  0.57263004  0.51940886  1  0  0.412674  0  0.900533  0  0  0.380772  0  0.967196  0  0  0.391435  0  0.952069  0  0  0.291091  0.373281  0  0.977818  0
H  H9  1  0.28516777  0.42737133  0.98059163  1  0  0.412713  0  0.900499  0  0  0.380786  0  0.967186  0  0  0.391449  0  0.952059  0  0  0.291076  0.373296  0  0.977807  0
H  H10  1  0.21483019  0.42737187  0.48059129  1  0  0.412698  0  0.900499  0  0  0.380767  0  0.967208  0  0  0.391431  0  0.952081  0  0  0.291067  0.373277  0  0.977829  0
H  H11  1  0.71483221  0.57262849  0.01940908  1  0  0.412688  0  0.900532  0  0  0.380757  0  0.967225  0  0  0.39142  0  0.952099  0  0  0.291071  0.373266  0  0.977848  0
H  H12  1  0.30005876  0.74167213  0.46614465  1  0  0.421773  0  0.888095  0  0  0.386987  0  0.958875  0  0  0.398223  0  0.942708  0  0  0.290247  0.379057  0  0.97029  0
H  H13  1  0.80006249  0.25832822  0.03385505  1  0  0.421785  0  0.888086  0  0  0.387019  0  0.95883  0  0  0.398253  0  0.942667  0  0  0.290258  0.379089  0  0.970247  0
H  H14  1  0.69993654  0.25832875  0.53385476  1  0  0.421765  0  0.888122  0  0  0.386996  0  0.958862  0  0  0.398229  0  0.942699  0  0  0.29026  0.379064  0  0.970279  0
H  H15  1  0.19994372  0.74167369  0.96614576  1  0  0.421797  0  0.888068  0  0  0.387011  0  0.958841  0  0  0.398247  0  0.942674  0  0  0.29027  0.379081  0  0.970256  0
H  H16  1  0.19967532  0.62940674  0.52583521  1  0  0.430035  0  0.855074  0  0  0.401362  0  0.921356  0  0  0.411597  0  0.906526  0  0  0.297327  0.394114  0  0.931817  0
H  H17  1  0.69967935  0.37059465  0.97416527  1  0  0.430168  0  0.854821  0  0  0.401467  0  0.921219  0  0  0.411707  0  0.906376  0  0  0.297366  0.394219  0  0.931677  0
H  H18  1  0.80031998  0.37059517  0.47416493  1  0  0.430161  0  0.854838  0  0  0.401466  0  0.92122  0  0  0.411705  0  0.906381  0  0  0.297366  0.394219  0  0.931678  0
H  H19  1  0.30032686  0.62940726  0.02583488  1  0  0.430053  0  0.855041  0  0  0.40138  0  0.921328  0  0  0.411616  0  0.906497  0  0  0.297342  0.394133  0  0.931788  0
H  H20  1  0.81209037  0.24131115  0.21023229  1  0  0.309452  0  0.904657  0  0  0.296956  0  0.962339  0  0  0.302872  0  0.958604  0  0  0.297404  0.292744  0  0.965021  0
H  H21  1  0.31209272  0.75868814  0.28976871  1  0  0.309422  0  0.904699  0  0  0.296922  0  0.962386  0  0  0.302839  0  0.958651  0  0  0.297396  0.292709  0  0.96507  0
H  H22  1  0.18790961  0.75868867  0.78976842  1  0  0.309445  0  0.904657  0  0  0.296949  0  0.96234  0  0  0.302867  0  0.958606  0  0  0.297405  0.292737  0  0.965024  0
H  H23  1  0.68790725  0.24131064  0.71023195  1  0  0.309415  0  0.904694  0  0  0.296923  0  0.962375  0  0  0.302838  0  0.958642  0  0  0.297394  0.292711  0  0.965057  0
H  H24  1  0.71721701  0.38894913  0.25986838  1  0  0.326626  0  0.926872  0  0  0.307777  0  0.990504  0  0  0.316256  0  0.983591  0  0  0.292427  0.301607  0  0.995393  0
H  H25  1  0.21721783  0.61105019  0.24013194  1  0  0.326616  0  0.926883  0  0  0.307763  0  0.990517  0  0  0.316242  0  0.983604  0  0  0.292432  0.301593  0  0.995405  0
H  H26  1  0.28278297  0.61105070  0.74013166  1  0  0.326607  0  0.926885  0  0  0.307755  0  0.990518  0  0  0.316235  0  0.983605  0  0  0.292432  0.301586  0  0.995404  0
H  H27  1  0.78278370  0.38894755  0.75986867  1  0  0.32665  0  0.926833  0  0  0.307793  0  0.990479  0  0  0.316272  0  0.983566  0  0  0.292428  0.301622  0  0.995372  0
H  H28  1  0.80504095  0.04590563  0.29095461  1  0  0.111724  0  0.965882  0  0  0.11881  0  1.033174  0  0  0.121539  0  1.033262  0  0  0.105019  0.116653  0  1.033656  0
H  H29  1  0.30504628  0.95409471  0.20904577  1  0  0.111737  0  0.965855  0  0  0.118811  0  1.033158  0  0  0.121541  0  1.033247  0  0  0.105033  0.116653  0  1.033642  0
H  H30  1  0.19495278  0.95409315  0.70904537  1  0  0.111758  0  0.965853  0  0  0.118829  0  1.033159  0  0  0.121559  0  1.033247  0  0  0.105039  0.116671  0  1.033643  0
H  H31  1  0.69495682  0.04590199  0.79095412  1  0  0.111771  0  0.965825  0  0  0.118862  0  1.033117  0  0  0.121591  0  1.033204  0  0  0.105055  0.116707  0  1.033595  0
H  H32  1  0.25337766  0.96275706  0.44393963  1  0  0.111132  0  0.944057  0  0  0.123943  0  1.000923  0  0  0.12703  0  0.999719  0  0  0.10915  0.121637  0  1.002313  0
H  H33  1  0.75338151  0.03724329  0.05606074  1  0  0.111103  0  0.944134  0  0  0.123919  0  1.001007  0  0  0.127006  0  0.999805  0  0  0.109143  0.121613  0  1.002398  0
H  H34  1  0.74661763  0.03724485  0.55606051  1  0  0.111091  0  0.944126  0  0  0.123907  0  1.001003  0  0  0.126994  0  0.999804  0  0  0.109138  0.121601  0  1.002394  0
H  H35  1  0.24662314  0.96275653  0.94393997  1  0  0.111148  0  0.944051  0  0  0.123954  0  1.00092  0  0  0.127042  0  0.999716  0  0  0.109148  0.121648  0  1.002311  0
H  H36  1  0.11445764  0.19410738  0.41373833  1  0  0.11102  0  0.958066  0  0  0.120471  0  1.019601  0  0  0.124039  0  1.017185  0  0  0.105867  0.117703  0  1.021792  0
H  H37  1  0.61445961  0.80589300  0.08626135  1  0  0.110955  0  0.958006  0  0  0.120403  0  1.019575  0  0  0.123972  0  1.01716  0  0  0.105836  0.117631  0  1.021769  0
H  H38  1  0.88554077  0.80589662  0.58626192  1  0  0.110983  0  0.957987  0  0  0.120426  0  1.019558  0  0  0.123994  0  1.017142  0  0  0.105845  0.117647  0  1.02176  0
H  H39  1  0.38554036  0.19410683  0.91373801  1  0  0.110964  0  0.958033  0  0  0.120412  0  1.019595  0  0  0.123982  0  1.017178  0  0  0.105833  0.117638  0  1.021792  0
C  C40  1  0.37443249  0.25007169  0.33152338  1  0  -0.169827  0  3.706105  0  0  -0.153626  0  3.948016  0  0  -0.162524  0  3.96812  0  0  -0.023281  -0.148822  0  3.935491  0
C  C41  1  0.87443455  0.74992760  0.16847629  1  0  -0.169857  0  3.706096  0  0  -0.153634  0  3.948041  0  0  -0.16253  0  3.968146  0  0  -0.023241  -0.148834  0  3.935512  0
C  C42  1  0.62556748  0.74992814  0.66847666  1  0  -0.169802  0  3.706052  0  0  -0.153587  0  3.947977  0  0  -0.162484  0  3.968083  0  0  -0.023246  -0.148784  0  3.935446  0
C  C43  1  0.12556542  0.25007016  0.83152230  1  0  -0.169792  0  3.706087  0  0  -0.153547  0  3.948018  0  0  -0.162443  0  3.968124  0  0  -0.023211  -0.148745  0  3.935491  0
C  C44  1  0.56915594  0.20664197  0.29459717  1  0  0.293343  0  3.754621  0  0  0.283536  0  4.001224  0  0  0.292456  0  4.021455  0  0  0.095844  0.277479  0  3.987273  0
C  C45  1  0.06915977  0.79335737  0.20540313  1  0  0.293282  0  3.754668  0  0  0.283457  0  4.001296  0  0  0.292372  0  4.021536  0  0  0.095815  0.277416  0  3.98732  0
C  C46  1  0.43084092  0.79335786  0.70540220  1  0  0.293335  0  3.75468  0  0  0.283491  0  4.001337  0  0  0.292408  0  4.021576  0  0  0.095841  0.277441  0  3.987375  0
C  C47  1  0.93084176  0.20664245  0.79459758  1  0  0.293385  0  3.754485  0  0  0.283504  0  4.001215  0  0  0.292417  0  4.021452  0  0  0.095833  0.277451  0  3.987258  0
C  C48  1  0.65199216  0.07882696  0.31625804  1  0  -0.164921  0  3.681605  0  0  -0.192773  0  3.930773  0  0  -0.196368  0  3.949658  0  0  -0.087757  -0.18994  0  3.918171  0
C  C49  1  0.15199436  0.92117236  0.18374226  1  0  -0.164846  0  3.681651  0  0  -0.192682  0  3.930833  0  0  -0.196278  0  3.949722  0  0  -0.087725  -0.189856  0  3.918226  0
C  C50  1  0.34800625  0.92117182  0.68374195  1  0  -0.164896  0  3.681827  0  0  -0.192716  0  3.931009  0  0  -0.19631  0  3.949895  0  0  -0.087709  -0.189885  0  3.918405  0
C  C51  1  0.84800717  0.07882434  0.81625762  1  0  -0.164933  0  3.681629  0  0  -0.192765  0  3.930836  0  0  -0.196357  0  3.949721  0  0  -0.087776  -0.189935  0  3.918234  0
C  C52  1  0.54080031  0.99020932  0.36951972  1  0  -0.055986  0  3.77977  0  0  -0.035624  0  4.022643  0  0  -0.03981  0  4.042931  0  0  -0.019368  -0.032663  0  4.008809  0
C  C53  1  0.04080443  0.00979002  0.13048058  1  0  -0.055965  0  3.779968  0  0  -0.035627  0  4.022829  0  0  -0.039812  0  4.043117  0  0  -0.019345  -0.032663  0  4.008991  0
C  C54  1  0.45919655  0.00978632  0.63048079  1  0  -0.055904  0  3.779906  0  0  -0.035578  0  4.022769  0  0  -0.039762  0  4.043057  0  0  -0.019346  -0.032616  0  4.008931  0
C  C55  1  0.95920334  0.99021085  0.86951884  1  0  -0.055926  0  3.779897  0  0  -0.035611  0  4.022772  0  0  -0.039797  0  4.043059  0  0  -0.019332  -0.032647  0  4.008933  0
C  C56  1  0.34370490  0.03044891  0.40292281  1  0  -0.086191  0  3.723421  0  0  -0.116184  0  3.984657  0  0  -0.118221  0  4.004371  0  0  -0.092212  -0.115663  0  3.972297  0
C  C57  1  0.84370837  0.96955142  0.09707758  1  0  -0.086297  0  3.72356  0  0  -0.116287  0  3.984806  0  0  -0.118324  0  4.004517  0  0  -0.092249  -0.115766  0  3.97244  0
C  C58  1  0.65629195  0.96955299  0.59707801  1  0  -0.086236  0  3.723456  0  0  -0.116226  0  3.984706  0  0  -0.118263  0  4.004416  0  0  -0.092213  -0.115705  0  3.972344  0
C  C59  1  0.15629316  0.03044944  0.90292319  1  0  -0.086259  0  3.723415  0  0  -0.116232  0  3.984651  0  0  -0.118268  0  4.004363  0  0  -0.092207  -0.115707  0  3.972278  0
C  C60  1  0.26504379  0.16079746  0.38570888  1  0  -0.052309  0  3.724636  0  0  -0.077428  0  3.981319  0  0  -0.07624  0  3.999911  0  0  -0.084658  -0.078013  0  3.969765  0
C  C61  1  0.76504889  0.83920184  0.11429144  1  0  -0.052148  0  3.724459  0  0  -0.077277  0  3.981156  0  0  -0.07609  0  3.99975  0  0  -0.084643  -0.077859  0  3.969605  0
C  C62  1  0.73495307  0.83920444  0.61429194  1  0  -0.052265  0  3.724406  0  0  -0.07739  0  3.981106  0  0  -0.076201  0  3.999698  0  0  -0.084686  -0.077967  0  3.969557  0
C  C63  1  0.23495421  0.16079590  0.88570849  1  0  -0.052246  0  3.724493  0  0  -0.077368  0  3.981178  0  0  -0.076183  0  3.999773  0  0  -0.084669  -0.077948  0  3.969628  0
C  C64  1  0.27488960  0.38585542  0.31225395  1  0  0.694666  0  3.818977  0  0  0.636316  0  4.116218  0  0  0.672295  0  4.106265  0  0  0.225277  0.612051  0  4.122234  0
C  C65  1  0.77489174  0.61414494  0.18774575  1  0  0.694696  0  3.818926  0  0  0.636297  0  4.116252  0  0  0.672278  0  4.106299  0  0  0.225246  0.612031  0  4.122269  0
C  C66  1  0.72511037  0.61414545  0.68774614  1  0  0.694661  0  3.818969  0  0  0.636318  0  4.116198  0  0  0.672297  0  4.106247  0  0  0.225282  0.612052  0  4.122213  0
C  C67  1  0.22510668  0.38585490  0.81225361  1  0  0.694535  0  3.819123  0  0  0.636146  0  4.116424  0  0  0.672125  0  4.106474  0  0  0.225188  0.61188  0  4.122439  0
C  C68  1  0.63624607  0.85260285  0.38797456  1  0  0.655231  0  3.888682  0  0  0.597984  0  4.189415  0  0  0.631738  0  4.18203  0  0  0.217003  0.575434  0  4.193224  0
C  C69  1  0.13624856  0.14739648  0.11202574  1  0  0.655214  0  3.888617  0  0  0.598001  0  4.189284  0  0  0.631751  0  4.1819  0  0  0.216974  0.575449  0  4.193098  0
C  C70  1  0.36375078  0.14739801  0.61202620  1  0  0.655137  0  3.888599  0  0  0.597928  0  4.189276  0  0  0.631676  0  4.181894  0  0  0.216915  0.575377  0  4.193087  0
C  C71  1  0.86375609  0.85260231  0.88797424  1  0  0.655176  0  3.888778  0  0  0.598033  0  4.189364  0  0  0.631788  0  4.181979  0  0  0.217036  0.57548  0  4.193178  0
N  N72  1  0.67861950  0.28861726  0.23429217  1  0  -0.689047  0  3.172037  0  0  -0.633331  0  3.418397  0  0  -0.654009  0  3.413047  0  0  -0.607162  -0.618476  0  3.421631  0
N  N73  1  0.17862186  0.71138206  0.26570814  1  0  -0.688971  0  3.172085  0  0  -0.633244  0  3.418443  0  0  -0.653919  0  3.413095  0  0  -0.607141  -0.618391  0  3.421669  0
N  N74  1  0.32138047  0.71138153  0.76570714  1  0  -0.689033  0  3.172076  0  0  -0.633312  0  3.418456  0  0  -0.65399  0  3.413108  0  0  -0.607186  -0.618459  0  3.421688  0
N  N75  1  0.82137811  0.28861568  0.73429180  1  0  -0.689064  0  3.171977  0  0  -0.633348  0  3.418388  0  0  -0.654018  0  3.413036  0  0  -0.607179  -0.618493  0  3.421621  0
O  O76  1  0.15953219  0.44503783  0.37388244  1  0  -0.649215  0  2.059698  0  0  -0.573754  0  2.303714  0  0  -0.601928  0  2.29093  0  0  -0.306474  -0.554061  0  2.311861  0
O  O77  1  0.65953275  0.55496254  0.12611725  1  0  -0.649228  0  2.059642  0  0  -0.573744  0  2.303671  0  0  -0.601917  0  2.290888  0  0  -0.306478  -0.554051  0  2.311819  0
O  O78  1  0.84046778  0.55496304  0.62611698  1  0  -0.649191  0  2.059662  0  0  -0.573756  0  2.303689  0  0  -0.601929  0  2.290905  0  0  -0.306483  -0.554062  0  2.311835  0
O  O79  1  0.34046723  0.44503833  0.87388284  1  0  -0.649161  0  2.059641  0  0  -0.57372  0  2.303702  0  0  -0.601893  0  2.29092  0  0  -0.306485  -0.554027  0  2.311849  0
O  O80  1  0.30295495  0.43688413  0.23635927  1  0  -0.621376  0  2.070624  0  0  -0.549912  0  2.31642  0  0  -0.577628  0  2.305306  0  0  -0.300397  -0.530289  0  2.323067  0
O  O81  1  0.80295561  0.56311516  0.26364105  1  0  -0.621387  0  2.070637  0  0  -0.549929  0  2.316479  0  0  -0.577646  0  2.305366  0  0  -0.300372  -0.530303  0  2.323126  0
O  O82  1  0.69704502  0.56311569  0.76364077  1  0  -0.621381  0  2.070639  0  0  -0.549918  0  2.316443  0  0  -0.577634  0  2.30533  0  0  -0.300394  -0.530294  0  2.323091  0
O  O83  1  0.19704124  0.43688467  0.73635899  1  0  -0.621335  0  2.070748  0  0  -0.549825  0  2.316515  0  0  -0.577542  0  2.305404  0  0  -0.300326  -0.530201  0  2.323159  0
O  O84  1  0.83228272  0.84048543  0.38099429  1  0  -0.620881  0  2.052843  0  0  -0.554881  0  2.30909  0  0  -0.582817  0  2.300213  0  0  -0.305797  -0.53486  0  2.314306  0
O  O85  1  0.33228677  0.15951389  0.11900402  1  0  -0.620895  0  2.052845  0  0  -0.554861  0  2.309029  0  0  -0.582799  0  2.300159  0  0  -0.305782  -0.534838  0  2.314241  0
O  O86  1  0.16771413  0.15951545  0.61900513  1  0  -0.620886  0  2.052937  0  0  -0.55486  0  2.309125  0  0  -0.5828  0  2.30026  0  0  -0.305749  -0.534836  0  2.314334  0
O  O87  1  0.66771944  0.84048389  0.88099322  1  0  -0.620863  0  2.052971  0  0  -0.554913  0  2.309189  0  0  -0.582848  0  2.300311  0  0  -0.305819  -0.534892  0  2.314408  0
O  O88  1  0.51331204  0.75333250  0.40734229  1  0  -0.661766  0  2.059456  0  0  -0.590614  0  2.278915  0  0  -0.617262  0  2.269175  0  0  -0.313181  -0.572368  0  2.28509  0
O  O89  1  0.01331603  0.24666893  0.09265878  1  0  -0.661753  0  2.059474  0  0  -0.590615  0  2.278909  0  0  -0.61725  0  2.269162  0  0  -0.313159  -0.572369  0  2.285085  0
O  O90  1  0.48668481  0.24666940  0.59265920  1  0  -0.661738  0  2.059508  0  0  -0.590595  0  2.278936  0  0  -0.61723  0  2.269192  0  0  -0.313157  -0.57235  0  2.285111  0
O  O91  1  0.98668862  0.75332981  0.90734390  1  0  -0.661781  0  2.059508  0  0  -0.590648  0  2.278922  0  0  -0.617296  0  2.269183  0  0  -0.313218  -0.572402  0  2.285099  0
O  O92  1  0.75914904  0.55356202  0.45298921  1  0  -0.835491  0  1.936507  0  0  -0.765611  0  2.139145  0  0  -0.788649  0  2.103503  0  0  -0.57267  -0.749337  0  2.163731  0
O  O93  1  0.25915134  0.44644041  0.04701127  1  0  -0.835449  0  1.936562  0  0  -0.765524  0  2.139201  0  0  -0.788564  0  2.103567  0  0  -0.572607  -0.749241  0  2.163767  0
O  O94  1  0.24084938  0.44643885  0.54701088  1  0  -0.835453  0  1.936529  0  0  -0.765544  0  2.139191  0  0  -0.788584  0  2.103555  0  0  -0.572628  -0.749262  0  2.163758  0
O  O95  1  0.74085019  0.55356149  0.95298955  1  0  -0.83546  0  1.936565  0  0  -0.765517  0  2.139215  0  0  -0.78856  0  2.103582  0  0  -0.57261  -0.749238  0  2.163791  0
O  O96  1  0.16397086  0.71105375  0.49161122  1  0  -0.821253  0  1.889017  0  0  -0.761268  0  2.098643  0  0  -0.78315  0  2.064816  0  0  -0.573829  -0.745824  0  2.122334  0
O  O97  1  0.66397300  0.28894767  0.00838852  1  0  -0.821356  0  1.888759  0  0  -0.761399  0  2.098425  0  0  -0.783283  0  2.064604  0  0  -0.573884  -0.745955  0  2.122122  0
O  O98  1  0.83602443  0.28894713  0.50838819  1  0  -0.821324  0  1.888781  0  0  -0.76137  0  2.098468  0  0  -0.78325  0  2.064645  0  0  -0.573877  -0.745925  0  2.122166  0
O  O99  1  0.33603165  0.71105424  0.99161163  1  0  -0.821283  0  1.888978  0  0  -0.761295  0  2.098622  0  0  -0.783177  0  2.064796  0  0  -0.573861  -0.745853  0  2.122315  0
