# generated using pymatgen
data_MnH16C14(NO3)2
_symmetry_space_group_name_H-M   'P 1'
_cell_length_a   6.98416662
_cell_length_b   9.75371922
_cell_length_c   9.84725174
_cell_angle_alpha   89.99978386
_cell_angle_beta   90.00000268
_cell_angle_gamma   102.50113424
_symmetry_Int_Tables_number   1
_chemical_formula_structural   MnH16C14(NO3)2
_chemical_formula_sum   'Mn2 H32 C28 N4 O12'
_cell_volume   654.90678331
_cell_formula_units_Z   2
loop_
 _symmetry_equiv_pos_site_id
 _symmetry_equiv_pos_as_xyz
  1  'x, y, z'
loop_
 _atom_site_type_symbol
 _atom_site_label
 _atom_site_symmetry_multiplicity
 _atom_site_fract_x
 _atom_site_fract_y
 _atom_site_fract_z
 _atom_site_occupancy
 _atom_site_pbe_cm5_charge
 _atom_site_pbe_ddec_charge
 _atom_site_pbe_ddec_spin_density
 _atom_site_pbe_ddec_sum_bond_order
 _atom_site_pbe_magmom
Mn  Mn0  1  0.00000113  0.99999902  0.49999940  1  0.661633  0.803566  -1.217445  3.212419  -1.177
Mn  Mn1  1  0.49999747  0.99999961  0.00000002  1  0.661565  0.803423  -1.21757  3.212316  -1.177
H  H2  1  0.12841476  0.16524025  0.27860433  1  0.295225  0.38021  -0.000266  0.961456  -0.001
H  H3  1  0.37158244  0.83475870  0.77860756  1  0.295197  0.380144  -0.000267  0.961562  -0.001
H  H4  1  0.87158630  0.83476055  0.72139466  1  0.29521  0.380191  -0.000266  0.961486  -0.001
H  H5  1  0.62841657  0.16523999  0.22139143  1  0.295204  0.380161  -0.000267  0.961539  -0.001
H  H6  1  0.30879903  0.17360807  0.38441862  1  0.299106  0.380664  0.000162  0.958182  -0.001
H  H7  1  0.19120091  0.82639047  0.88441882  1  0.299119  0.380707  0.000161  0.958131  -0.001
H  H8  1  0.69120284  0.82639063  0.61558038  1  0.299103  0.380643  0.000162  0.958219  -0.001
H  H9  1  0.80879524  0.17360821  0.11558018  1  0.299125  0.380681  0.000161  0.958179  -0.001
H  H10  1  0.03435889  0.30775584  0.52301438  1  0.116088  0.090337  0.001221  1.043424  0.0
H  H11  1  0.46564037  0.69224518  0.02301732  1  0.116053  0.090293  0.001219  1.043417  0.0
H  H12  1  0.96564186  0.69224391  0.47698461  1  0.116095  0.090361  0.001221  1.043408  0.0
H  H13  1  0.53436038  0.30775457  0.97698371  1  0.116069  0.090326  0.001219  1.043373  0.0
H  H14  1  0.07659252  0.40174351  0.95136316  1  0.103767  0.103626  0.000855  1.019307  0.0
H  H15  1  0.42340478  0.59825580  0.45136543  1  0.103749  0.103582  0.000854  1.019362  0.0
H  H16  1  0.92340444  0.59825307  0.04863786  1  0.103758  0.103613  0.000855  1.019306  0.0
H  H17  1  0.57659628  0.40174499  0.54863559  1  0.103759  0.103616  0.000854  1.019292  0.0
H  H18  1  0.13541265  0.00312059  0.78796097  1  0.123711  0.084933  0.000154  1.066978  0.0
H  H19  1  0.36459090  0.99688044  0.28796274  1  0.123698  0.084951  0.000154  1.066986  0.0
H  H20  1  0.86458810  0.99687915  0.21203701  1  0.123709  0.084928  0.000155  1.066986  0.0
H  H21  1  0.63541017  0.00312035  0.71203726  1  0.12371  0.08498  0.000154  1.066946  0.0
H  H22  1  0.18328468  0.58505196  0.65658007  1  0.092488  0.134057  2.9e-05  1.027129  0.0
H  H23  1  0.31671790  0.41495064  0.15658404  1  0.092466  0.134019  2.9e-05  1.027181  0.0
H  H24  1  0.81671894  0.41494779  0.34341994  1  0.092488  0.134048  2.9e-05  1.02713  0.0
H  H25  1  0.68328348  0.58505121  0.84341800  1  0.092477  0.134032  2.9e-05  1.027149  0.0
H  H26  1  0.02021708  0.58232828  0.79378383  1  0.092918  0.137402  0.000192  1.022809  0.0
H  H27  1  0.47978390  0.41767377  0.29378679  1  0.092906  0.137361  0.000191  1.02281  0.0
H  H28  1  0.97978511  0.41767147  0.20621719  1  0.092917  0.137387  0.000192  1.022809  0.0
H  H29  1  0.52021685  0.58232598  0.70621424  1  0.092915  0.137368  0.000191  1.0228  0.0
H  H30  1  0.92691837  0.52864129  0.63039320  1  0.090915  0.128339  0.000297  1.022691  0.0
H  H31  1  0.57308205  0.47136064  0.13039491  1  0.090901  0.128319  0.000297  1.022673  0.0
H  H32  1  0.07308412  0.47135951  0.36960782  1  0.090898  0.128317  0.000297  1.02268  0.0
H  H33  1  0.42691645  0.52864119  0.86960612  1  0.090889  0.128297  0.000297  1.022685  0.0
C  C34  1  0.05447385  0.28018985  0.62820622  1  0.035332  -0.001174  0.031453  3.892678  0.017
C  C35  1  0.44552415  0.71981180  0.12820905  1  0.035376  -0.001123  0.031436  3.89265  0.017
C  C36  1  0.94552864  0.71981095  0.37179277  1  0.035358  -0.001184  0.031453  3.892677  0.017
C  C37  1  0.55447517  0.28018794  0.87179197  1  0.035355  -0.001177  0.031445  3.89268  0.017
C  C38  1  0.06033778  0.37775635  0.73279867  1  -0.007025  0.133368  -0.003155  4.00259  -0.005
C  C39  1  0.43966614  0.62224595  0.23279984  1  -0.006965  0.133411  -0.003155  4.002553  -0.005
C  C40  1  0.93966471  0.62224445  0.26720134  1  -0.007013  0.133404  -0.003155  4.002573  -0.005
C  C41  1  0.56033636  0.37775485  0.76720017  1  -0.007008  0.133386  -0.003155  4.002568  -0.005
C  C42  1  0.08025737  0.33217249  0.86517681  1  -0.07807  -0.142054  0.02967  3.928156  0.017
C  C43  1  0.41974414  0.66783138  0.36518085  1  -0.078132  -0.142108  0.029671  3.928311  0.017
C  C44  1  0.91974164  0.66782620  0.13482320  1  -0.078065  -0.142039  0.029671  3.928147  0.017
C  C45  1  0.58025754  0.33217152  0.63482220  1  -0.078082  -0.142056  0.029672  3.928182  0.017
C  C46  1  0.11481657  0.19736297  0.88694964  1  -0.015781  -0.080227  -0.000161  4.021873  -0.004
C  C47  1  0.38518305  0.80263451  0.38695012  1  -0.015818  -0.080174  -0.000162  4.021861  -0.004
C  C48  1  0.88517895  0.80263361  0.11304935  1  -0.015831  -0.080325  -0.00016  4.021945  -0.004
C  C49  1  0.61481770  0.19736523  0.61304989  1  -0.015853  -0.080306  -0.00016  4.022015  -0.004
C  C50  1  0.11071134  0.10834872  0.77592187  1  0.048403  0.061487  0.013119  3.894291  0.007
C  C51  1  0.38929059  0.89165655  0.27592811  1  0.048475  0.061505  0.013122  3.894238  0.007
C  C52  1  0.88928798  0.89165102  0.22407610  1  0.048483  0.061619  0.01312  3.894314  0.007
C  C53  1  0.61070966  0.10834634  0.72407393  1  0.048466  0.061526  0.013118  3.894292  0.007
C  C54  1  0.04639749  0.52571720  0.70193394  1  -0.242154  -0.411849  0.001065  3.927629  0.001
C  C55  1  0.45360504  0.47428522  0.20193567  1  -0.242111  -0.411744  0.001065  3.927561  0.001
C  C56  1  0.95360644  0.47428361  0.29806606  1  -0.242135  -0.411814  0.001065  3.927594  0.001
C  C57  1  0.54639602  0.52571557  0.79806535  1  -0.242103  -0.411728  0.001065  3.927562  0.001
C  C58  1  0.15250432  0.15258297  0.02727840  1  0.219845  0.561878  0.022052  4.156788  0.014
C  C59  1  0.34749830  0.84741489  0.52728157  1  0.219855  0.561791  0.022044  4.156854  0.014
C  C60  1  0.84749294  0.84741466  0.97271958  1  0.219841  0.5619  0.022049  4.1567  0.014
C  C61  1  0.65250163  0.15258695  0.47271945  1  0.219828  0.561795  0.022046  4.156874  0.014
N  N62  1  0.06956395  0.14549537  0.64898791  1  -0.34425  -0.198746  0.017383  3.613741  0.017
N  N63  1  0.43043597  0.85450305  0.14899023  1  -0.344273  -0.198737  0.017387  3.613791  0.017
N  N64  1  0.93043711  0.85450543  0.35101007  1  -0.344314  -0.198837  0.017384  3.613917  0.017
N  N65  1  0.56956304  0.14549564  0.85100978  1  -0.344257  -0.198714  0.017386  3.613858  0.017
O  O66  1  0.06134213  0.19928872  0.12424343  1  -0.305326  -0.556526  0.010032  2.255007  0.008
O  O67  1  0.43865844  0.80071190  0.62424476  1  -0.305327  -0.556456  0.010027  2.255092  0.008
O  O68  1  0.93865513  0.80070891  0.87575556  1  -0.305333  -0.556533  0.01003  2.254999  0.008
O  O69  1  0.56134437  0.19928995  0.37575626  1  -0.305312  -0.556449  0.010029  2.255106  0.008
O  O70  1  0.27202536  0.07316111  0.05066579  1  -0.299991  -0.490753  -0.022292  2.499544  -0.019
O  O71  1  0.22797367  0.92684399  0.55066561  1  -0.299975  -0.490738  -0.022289  2.499537  -0.019
O  O72  1  0.72797427  0.92683968  0.94933422  1  -0.299984  -0.49077  -0.022292  2.499493  -0.019
O  O73  1  0.77202882  0.07315681  0.44933440  1  -0.299967  -0.490758  -0.02229  2.499549  -0.019
O  O74  1  0.16322122  0.15644156  0.37735881  1  -0.555993  -0.716715  0.006958  2.263448  0.009
O  O75  1  0.33677237  0.84355489  0.87735692  1  -0.556008  -0.716719  0.006954  2.263494  0.009
O  O76  1  0.83678127  0.84355925  0.62264019  1  -0.555978  -0.716707  0.006957  2.263495  0.009
O  O77  1  0.66322439  0.15644589  0.12264106  1  -0.556014  -0.716713  0.006955  2.263477  0.009
