# generated using pymatgen
data_CdH20C20(NO)4
_symmetry_space_group_name_H-M   'P 1'
_cell_length_a   8.47364428
_cell_length_b   10.28363430
_cell_length_c   12.55054345
_cell_angle_alpha   83.24751330
_cell_angle_beta   77.46502128
_cell_angle_gamma   77.56837870
_symmetry_Int_Tables_number   1
_chemical_formula_structural   CdH20C20(NO)4
_chemical_formula_sum   'Cd2 H40 C40 N8 O8'
_cell_volume   1039.66884351
_cell_formula_units_Z   2
loop_
 _symmetry_equiv_pos_site_id
 _symmetry_equiv_pos_as_xyz
  1  'x, y, z'
loop_
 _atom_site_type_symbol
 _atom_site_label
 _atom_site_symmetry_multiplicity
 _atom_site_fract_x
 _atom_site_fract_y
 _atom_site_fract_z
 _atom_site_occupancy
 _atom_site_hle17_bader_spin_density
 _atom_site_hle17_ddec_charge
 _atom_site_hle17_ddec_spin_density
 _atom_site_hle17_ddec_sum_bond_order
 _atom_site_hle17_magmom
 _atom_site_hse06_10hf_bader_spin_density
 _atom_site_hse06_10hf_ddec_charge
 _atom_site_hse06_10hf_ddec_spin_density
 _atom_site_hse06_10hf_ddec_sum_bond_order
 _atom_site_hse06_10hf_magmom
 _atom_site_hse06_bader_spin_density
 _atom_site_hse06_ddec_charge
 _atom_site_hse06_ddec_spin_density
 _atom_site_hse06_ddec_sum_bond_order
 _atom_site_hse06_magmom
 _atom_site_pbe_bader_spin_density
 _atom_site_pbe_cm5_charge
 _atom_site_pbe_ddec_charge
 _atom_site_pbe_ddec_spin_density
 _atom_site_pbe_ddec_sum_bond_order
 _atom_site_pbe_magmom
Cd  Cd0  1  0.12901511  0.48156845  0.78959680  1  0  1.098179  0  1.667447  0  0  0.905948  0  2.10288  0  0  0.965151  0  2.05026  0  0  0.773327  0.86383  0  2.13922  0
Cd  Cd1  1  0.87098790  0.51842633  0.21040400  1  0  1.098255  0  1.667469  0  0  0.90598  0  2.102877  0  0  0.965184  0  2.050256  0  0  0.773337  0.863862  0  2.139218  0
H  H2  1  0.68404822  0.91045827  0.63907373  1  0  0.086329  0  0.961616  0  0  0.098741  0  1.024028  0  0  0.101977  0  1.021973  0  0  0.101158  0.096409  0  1.025632  0
H  H3  1  0.31596472  0.08953055  0.36092707  1  0  0.086175  0  0.961644  0  0  0.098547  0  1.02411  0  0  0.101781  0  1.022059  0  0  0.101153  0.09622  0  1.025706  0
H  H4  1  0.63413862  0.24889120  0.40163798  1  0  0.09179  0  0.94516  0  0  0.104923  0  1.002797  0  0  0.107599  0  1.001974  0  0  0.100198  0.103021  0  1.003306  0
H  H5  1  0.36587408  0.75110254  0.59836802  1  0  0.091835  0  0.945187  0  0  0.104962  0  1.002826  0  0  0.107634  0  1.002001  0  0  0.100241  0.10306  0  1.003332  0
H  H6  1  0.87544789  0.13438618  0.27568120  1  0  0.109169  0  0.987713  0  0  0.116855  0  1.050363  0  0  0.120372  0  1.04822  0  0  0.102269  0.114248  0  1.052043  0
H  H7  1  0.12455793  0.86560657  0.72432259  1  0  0.109135  0  0.987682  0  0  0.116811  0  1.050361  0  0  0.120328  0  1.048213  0  0  0.10228  0.114204  0  1.052041  0
H  H8  1  0.02182907  0.90594787  0.32901844  1  0  0.093107  0  0.969323  0  0  0.103517  0  1.032544  0  0  0.106534  0  1.03122  0  0  0.101798  0.101224  0  1.033844  0
H  H9  1  0.97817791  0.09404096  0.67098075  1  0  0.093035  0  0.969342  0  0  0.103459  0  1.032572  0  0  0.106474  0  1.031251  0  0  0.101784  0.101167  0  1.033873  0
H  H10  1  0.22422858  0.48940180  0.49183236  1  0  0.082214  0  0.935089  0  0  0.094368  0  0.995375  0  0  0.096446  0  0.993354  0  0  0.132984  0.092684  0  0.996828  0
H  H11  1  0.77578256  0.51059288  0.50817696  1  0  0.082243  0  0.934979  0  0  0.094422  0  0.995241  0  0  0.096502  0  0.99322  0  0  0.133009  0.092738  0  0.996695  0
H  H12  1  0.88601409  0.74828653  0.70795909  1  0  0.114371  0  0.933357  0  0  0.128078  0  0.985127  0  0  0.130728  0  0.983545  0  0  0.124018  0.12611  0  0.986601  0
H  H13  1  0.11398412  0.25170824  0.29204154  1  0  0.114335  0  0.933414  0  0  0.128046  0  0.985178  0  0  0.130696  0  0.983596  0  0  0.124023  0.126076  0  0.986653  0
H  H14  1  0.20236424  0.15436928  0.81911234  1  0  0.094743  0  0.938858  0  0  0.10417  0  1.003127  0  0  0.106233  0  1.000831  0  0  0.142448  0.102577  0  1.00489  0
H  H15  1  0.79763520  0.84563554  0.18088411  1  0  0.094867  0  0.938715  0  0  0.104182  0  1.003121  0  0  0.106245  0  1.000825  0  0  0.142453  0.102589  0  1.004881  0
H  H16  1  0.47709911  0.37599739  0.57143252  1  0  0.098911  0  0.950444  0  0  0.109927  0  1.011122  0  0  0.112419  0  1.009565  0  0  0.116872  0.108022  0  1.012488  0
H  H17  1  0.52290797  0.62399260  0.42855619  1  0  0.098905  0  0.95047  0  0  0.109933  0  1.011116  0  0  0.112424  0  1.00956  0  0  0.116883  0.108028  0  1.012483  0
H  H18  1  0.57687409  0.25269043  0.08941389  1  0  0.067309  0  0.901223  0  0  0.084333  0  0.950728  0  0  0.086178  0  0.950171  0  0  0.099553  0.082997  0  0.951301  0
H  H19  1  0.42311396  0.74731129  0.91058669  1  0  0.067354  0  0.901284  0  0  0.084387  0  0.950803  0  0  0.086231  0  0.95025  0  0  0.099563  0.083055  0  0.951374  0
H  H20  1  0.59561979  0.41080163  0.93403814  1  0  0.106845  0  0.907808  0  0  0.117271  0  0.965858  0  0  0.120353  0  0.963951  0  0  0.110661  0.115107  0  0.967242  0
H  H21  1  0.40437214  0.58921195  0.06597132  1  0  0.106987  0  0.90781  0  0  0.117394  0  0.965845  0  0  0.120473  0  0.96394  0  0  0.110662  0.115231  0  0.967228  0
H  H22  1  0.48406871  0.22127007  0.91683035  1  0  0.064396  0  0.930062  0  0  0.084423  0  0.989627  0  0  0.085022  0  0.990178  0  0  0.0874  0.083902  0  0.989406  0
H  H23  1  0.51591890  0.77874762  0.08317056  1  0  0.064456  0  0.930004  0  0  0.084488  0  0.98957  0  0  0.085088  0  0.990121  0  0  0.087481  0.083962  0  0.989345  0
H  H24  1  0.60450184  0.26311324  0.78869824  1  0  0.07168  0  0.959963  0  0  0.084993  0  1.028015  0  0  0.086633  0  1.027899  0  0  0.083095  0.083749  0  1.028243  0
H  H25  1  0.39548635  0.73691142  0.21130441  1  0  0.071624  0  0.959901  0  0  0.08492  0  1.028008  0  0  0.086559  0  1.027894  0  0  0.083102  0.083677  0  1.028228  0
H  H26  1  0.65623531  0.01417118  0.83414102  1  0  0.046681  0  0.949099  0  0  0.062823  0  1.015588  0  0  0.06423  0  1.014999  0  0  0.076407  0.061849  0  1.015985  0
H  H27  1  0.34374682  0.98585064  0.16584991  1  0  0.046638  0  0.949104  0  0  0.062793  0  1.015623  0  0  0.064199  0  1.01503  0  0  0.076374  0.061819  0  1.016021  0
H  H28  1  0.83644390  0.07886064  0.82215517  1  0  0.052246  0  0.951612  0  0  0.075838  0  1.007345  0  0  0.076196  0  1.008166  0  0  0.083205  0.075531  0  1.006829  0
H  H29  1  0.16354182  0.92115616  0.17783810  1  0  0.05211  0  0.951708  0  0  0.075739  0  1.007431  0  0  0.076072  0  1.008283  0  0  0.083166  0.075433  0  1.006915  0
H  H30  1  0.80790225  0.92072628  0.98565823  1  0  0.067541  0  0.940639  0  0  0.086209  0  1.00115  0  0  0.087806  0  1.000198  0  0  0.087107  0.084858  0  1.002208  0
H  H31  1  0.19208908  0.07928366  0.01432769  1  0  0.067615  0  0.94066  0  0  0.086211  0  1.001256  0  0  0.087797  0  1.000317  0  0  0.087125  0.084862  0  1.002315  0
H  H32  1  0.60869465  0.01163246  0.03744341  1  0  0.050572  0  0.956352  0  0  0.06979  0  1.022875  0  0  0.069946  0  1.02412  0  0  0.080718  0.069647  0  1.021992  0
H  H33  1  0.39129616  0.98836943  0.96254644  1  0  0.050545  0  0.956348  0  0  0.069822  0  1.022804  0  0  0.069983  0  1.024044  0  0  0.080709  0.069678  0  1.021924  0
H  H34  1  0.81747575  0.07440133  0.12624410  1  0  0.051731  0  0.96084  0  0  0.068078  0  1.029359  0  0  0.068866  0  1.029351  0  0  0.079881  0.067531  0  1.029347  0
H  H35  1  0.18251280  0.92559449  0.87375052  1  0  0.051736  0  0.960711  0  0  0.068128  0  1.029201  0  0  0.068923  0  1.029183  0  0  0.079908  0.067583  0  1.029182  0
H  H36  1  0.93133141  0.11750680  0.99781592  1  0  0.071851  0  0.946044  0  0  0.090798  0  1.009098  0  0  0.091245  0  1.009933  0  0  0.090402  0.090405  0  1.008633  0
H  H37  1  0.06865352  0.88249793  0.00218323  1  0  0.07191  0  0.946214  0  0  0.090856  0  1.009243  0  0  0.091302  0  1.010081  0  0  0.090467  0.09043  0  1.008817  0
H  H38  1  0.09040729  0.67561853  0.37324468  1  0  0.335193  0  0.931355  0  0  0.311769  0  1.000819  0  0  0.321343  0  0.991907  0  0  0.309925  0.304975  0  1.007137  0
H  H39  1  0.90960244  0.32436824  0.62675910  1  0  0.335271  0  0.931227  0  0  0.311817  0  1.000799  0  0  0.321369  0  0.991896  0  0  0.309907  0.305023  0  1.00712  0
H  H40  1  0.41542325  0.98934087  0.69926718  1  0  0.297559  0  0.878335  0  0  0.286975  0  0.927646  0  0  0.2929  0  0.924251  0  0  0.33046  0.28268  0  0.93032  0
H  H41  1  0.58458211  0.01064888  0.30073692  1  0  0.297591  0  0.87839  0  0  0.286966  0  0.927713  0  0  0.292892  0  0.924317  0  0  0.330489  0.282671  0  0.930386  0
C  C42  1  0.85978133  0.89125234  0.48705379  1  0  0.052498  0  3.829966  0  0  0.070281  0  4.063395  0  0  0.071853  0  4.086731  0  0  -0.006033  0.069293  0  4.047696  0
C  C43  1  0.14022401  0.10873349  0.51294506  1  0  0.052436  0  3.829785  0  0  0.070327  0  4.063119  0  0  0.071902  0  4.086462  0  0  -0.006005  0.069338  0  4.047425  0
C  C44  1  0.72337044  0.95872939  0.55838711  1  0  -0.149825  0  3.702428  0  0  -0.18001  0  3.952072  0  0  -0.183868  0  3.97195  0  0  -0.090317  -0.177381  0  3.938612  0
C  C45  1  0.27663918  0.04125844  0.44161260  1  0  -0.14945  0  3.702414  0  0  -0.179677  0  3.952017  0  0  -0.183535  0  3.971894  0  0  -0.09027  -0.17705  0  3.938558  0
C  C46  1  0.64172410  0.08730170  0.52961940  1  0  0.032481  0  3.861928  0  0  0.0488  0  4.100879  0  0  0.049726  0  4.124145  0  0  -0.012445  0.048345  0  4.084783  0
C  C47  1  0.35828441  0.91269008  0.47038332  1  0  0.032134  0  3.862644  0  0  0.048574  0  4.101426  0  0  0.049505  0  4.124681  0  0  -0.012602  0.048118  0  4.085332  0
C  C48  1  0.69659924  0.14901149  0.42591868  1  0  -0.121627  0  3.738621  0  0  -0.145943  0  3.992426  0  0  -0.148632  0  4.012628  0  0  -0.097086  -0.144011  0  3.977972  0
C  C49  1  0.30340825  0.85098036  0.57407859  1  0  -0.121744  0  3.738764  0  0  -0.146095  0  3.992536  0  0  -0.148779  0  4.012728  0  0  -0.097142  -0.144162  0  3.978082  0
C  C50  1  0.83278089  0.08327699  0.35472554  1  0  -0.08032  0  3.791697  0  0  -0.093537  0  4.049199  0  0  -0.094361  0  4.069191  0  0  -0.096653  -0.09278  0  4.035458  0
C  C51  1  0.16722483  0.91671180  0.64527540  1  0  -0.079989  0  3.791603  0  0  -0.093191  0  4.049066  0  0  -0.094012  0  4.069061  0  0  -0.096539  -0.092434  0  4.035327  0
C  C52  1  0.91373524  0.95527762  0.38453001  1  0  -0.106094  0  3.710853  0  0  -0.131834  0  3.966381  0  0  -0.134737  0  3.986144  0  0  -0.09281  -0.130043  0  3.953355  0
C  C53  1  0.08627390  0.04471222  0.61546881  1  0  -0.106223  0  3.711118  0  0  -0.132014  0  3.966642  0  0  -0.13492  0  3.986411  0  0  -0.0929  -0.130223  0  3.953616  0
C  C54  1  0.13366303  0.57468133  0.52359150  1  0  0.217005  0  3.698986  0  0  0.155348  0  3.977797  0  0  0.168752  0  3.991989  0  0  0.13824  0.147126  0  3.966091  0
C  C55  1  0.86635104  0.42531249  0.47640953  1  0  0.21693  0  3.698513  0  0  0.155328  0  3.977395  0  0  0.168699  0  3.991568  0  0  0.13823  0.147103  0  3.965687  0
C  C56  1  0.95199254  0.70806601  0.63111050  1  0  -0.037055  0  3.716094  0  0  -0.075314  0  3.980112  0  0  -0.074039  0  4.000831  0  0  0.00467  -0.076961  0  3.966844  0
C  C57  1  0.04801618  0.29192977  0.36889187  1  0  -0.037099  0  3.716197  0  0  -0.075339  0  3.9802  0  0  -0.074063  0  4.000933  0  0  0.004627  -0.076984  0  3.966934  0
C  C58  1  0.94836092  0.76273386  0.52495676  1  0  0.110648  0  3.778098  0  0  0.100109  0  4.030277  0  0  0.101836  0  4.054088  0  0  0.081693  0.099129  0  4.013978  0
C  C59  1  0.05165069  0.23725601  0.47504014  1  0  0.110781  0  3.777931  0  0  0.100271  0  4.030155  0  0  0.101953  0  4.053977  0  0  0.081836  0.099285  0  4.013858  0
C  C60  1  0.29378767  0.17972008  0.74929728  1  0  0.23553  0  3.677501  0  0  0.172919  0  3.956247  0  0  0.186973  0  3.969531  0  0  0.154155  0.163794  0  3.946933  0
C  C61  1  0.70620985  0.82028774  0.25069838  1  0  0.235599  0  3.677164  0  0  0.173037  0  3.95588  0  0  0.187093  0  3.969162  0  0  0.154218  0.16391  0  3.946567  0
C  C62  1  0.43617156  0.28989125  0.61857493  1  0  -0.042792  0  3.705992  0  0  -0.081148  0  3.972894  0  0  -0.080065  0  3.992407  0  0  0.002756  -0.081848  0  3.959739  0
C  C63  1  0.56383840  0.71010064  0.38142042  1  0  -0.042691  0  3.705952  0  0  -0.081036  0  3.972851  0  0  -0.079947  0  3.992361  0  0  0.002809  -0.081739  0  3.959697  0
C  C64  1  0.50374588  0.15602547  0.60666692  1  0  0.128326  0  3.774644  0  0  0.116454  0  4.029581  0  0  0.119692  0  4.052101  0  0  0.089273  0.114202  0  4.014417  0
C  C65  1  0.49625785  0.84396630  0.39333483  1  0  0.128453  0  3.774574  0  0  0.116505  0  4.029445  0  0  0.119738  0  4.051967  0  0  0.089289  0.114254  0  4.014282  0
C  C66  1  0.70359549  0.25613102  0.04388119  1  0  -0.104331  0  3.621191  0  0  -0.108019  0  3.857724  0  0  -0.113327  0  3.871958  0  0  -0.08462  -0.104449  0  3.848035  0
C  C67  1  0.29639288  0.74387364  0.95612309  1  0  -0.104303  0  3.62147  0  0  -0.108123  0  3.858166  0  0  -0.113431  0  3.872392  0  0  -0.084669  -0.10456  0  3.848469  0
C  C68  1  0.68369351  0.31447881  0.92735725  1  0  -0.128854  0  3.594612  0  0  -0.13117  0  3.828915  0  0  -0.137327  0  3.843272  0  0  -0.084829  -0.12688  0  3.818852  0
C  C69  1  0.31630235  0.68553382  0.07265018  1  0  -0.129336  0  3.59532  0  0  -0.13157  0  3.829607  0  0  -0.137717  0  3.843953  0  0  -0.084817  -0.127278  0  3.819538  0
C  C70  1  0.61134299  0.22147941  0.87247297  1  0  -0.117494  0  3.673394  0  0  -0.163501  0  3.933601  0  0  -0.16403  0  3.947754  0  0  -0.17195  -0.162919  0  3.923638  0
C  C71  1  0.38864933  0.77853937  0.12752325  1  0  -0.117222  0  3.673205  0  0  -0.163252  0  3.933461  0  0  -0.16378  0  3.947609  0  0  -0.171983  -0.162661  0  3.923489  0
C  C72  1  0.71236054  0.07891205  0.87259316  1  0  -0.094212  0  3.690981  0  0  -0.131336  0  3.952242  0  0  -0.132461  0  3.966926  0  0  -0.169815  -0.130393  0  3.941867  0
C  C73  1  0.28762493  0.92110575  0.12740005  1  0  -0.09404  0  3.690823  0  0  -0.131229  0  3.952152  0  0  -0.132334  0  3.966832  0  0  -0.16978  -0.130291  0  3.941775  0
C  C74  1  0.73101820  0.02181565  0.98830749  1  0  -0.121103  0  3.708243  0  0  -0.163509  0  3.976095  0  0  -0.164941  0  3.991193  0  0  -0.173645  -0.162243  0  3.965463  0
C  C75  1  0.26896894  0.97819123  0.01168242  1  0  -0.121246  0  3.708378  0  0  -0.163605  0  3.976216  0  0  -0.165035  0  3.991315  0  0  -0.173647  -0.16234  0  3.965582  0
C  C76  1  0.80525911  0.11363988  0.04242199  1  0  -0.121335  0  3.689773  0  0  -0.167357  0  3.951734  0  0  -0.167559  0  3.966092  0  0  -0.173009  -0.167035  0  3.941755  0
C  C77  1  0.19472882  0.88636290  0.95757453  1  0  -0.121365  0  3.689892  0  0  -0.167428  0  3.951924  0  0  -0.167628  0  3.966284  0  0  -0.17313  -0.167085  0  3.941948  0
C  C78  1  0.76585406  0.34809152  0.10540806  1  0  0.653407  0  3.873382  0  0  0.601821  0  4.177255  0  0  0.636517  0  4.171377  0  0  0.184191  0.578279  0  4.180197  0
C  C79  1  0.23413578  0.65190714  0.89459732  1  0  0.653243  0  3.873512  0  0  0.601733  0  4.177346  0  0  0.636427  0  4.171473  0  0  0.1842  0.578196  0  4.180284  0
C  C80  1  0.84102109  0.35086446  0.85493413  1  0  0.668747  0  3.845409  0  0  0.618927  0  4.146394  0  0  0.652267  0  4.140922  0  0  0.204148  0.596265  0  4.1492  0
C  C81  1  0.15897373  0.64914712  0.14507591  1  0  0.668902  0  3.845529  0  0  0.619038  0  4.146524  0  0  0.652376  0  4.14105  0  0  0.20422  0.596376  0  4.149328  0
N  N82  1  0.06532915  0.67570785  0.45872963  1  0  -0.328015  0  3.41011  0  0  -0.264464  0  3.644894  0  0  -0.280969  0  3.659323  0  0  -0.371555  -0.252659  0  3.633309  0
N  N83  1  0.93468812  0.32427799  0.54127165  1  0  -0.328106  0  3.409715  0  0  -0.264739  0  3.644805  0  0  -0.281146  0  3.659163  0  0  -0.371605  -0.252931  0  3.633228  0
N  N84  1  0.06794508  0.59205539  0.62906894  1  0  -0.397742  0  3.290168  0  0  -0.323601  0  3.584176  0  0  -0.345177  0  3.602018  0  0  -0.362293  -0.309019  0  3.571262  0
N  N85  1  0.93206293  0.40793838  0.37093369  1  0  -0.397643  0  3.290223  0  0  -0.323494  0  3.584211  0  0  -0.345071  0  3.602063  0  0  -0.362318  -0.308913  0  3.571298  0
N  N86  1  0.41212930  0.08926142  0.69205960  1  0  -0.324413  0  3.463151  0  0  -0.262424  0  3.695633  0  0  -0.278701  0  3.711964  0  0  -0.376433  -0.2515  0  3.684617  0
N  N87  1  0.58788165  0.91074041  0.30793879  1  0  -0.324472  0  3.463025  0  0  -0.262348  0  3.695384  0  0  -0.278623  0  3.711712  0  0  -0.37643  -0.251425  0  3.684374  0
N  N88  1  0.30647605  0.30251813  0.70700406  1  0  -0.380607  0  3.254553  0  0  -0.306677  0  3.54449  0  0  -0.327409  0  3.560892  0  0  -0.352271  -0.292533  0  3.53294  0
N  N89  1  0.69353303  0.69747279  0.29298910  1  0  -0.380843  0  3.254341  0  0  -0.306951  0  3.544318  0  0  -0.327687  0  3.560715  0  0  -0.352381  -0.292806  0  3.532776  0
O  O90  1  0.88773909  0.30147056  0.15263914  1  0  -0.648611  0  1.943511  0  0  -0.584124  0  2.179745  0  0  -0.613081  0  2.169301  0  0  -0.339053  -0.563754  0  2.186141  0
O  O91  1  0.11224420  0.69851891  0.84737822  1  0  -0.64852  0  1.943712  0  0  -0.584104  0  2.179974  0  0  -0.613061  0  2.169533  0  0  -0.339063  -0.563735  0  2.186367  0
O  O92  1  0.68806859  0.46895829  0.11222955  1  0  -0.645822  0  1.913103  0  0  -0.585458  0  2.148074  0  0  -0.614885  0  2.137438  0  0  -0.345972  -0.564796  0  2.154644  0
O  O93  1  0.31192922  0.53104242  0.88777383  1  0  -0.64574  0  1.913028  0  0  -0.585387  0  2.147967  0  0  -0.614813  0  2.137333  0  0  -0.345977  -0.564725  0  2.154535  0
O  O94  1  0.94986172  0.37484220  0.90304287  1  0  -0.629832  0  1.993663  0  0  -0.553682  0  2.240068  0  0  -0.584488  0  2.228587  0  0  -0.326703  -0.532333  0  2.247518  0
O  O95  1  0.05013429  0.62516938  0.09696782  1  0  -0.630001  0  1.993915  0  0  -0.553707  0  2.240182  0  0  -0.584514  0  2.228707  0  0  -0.326741  -0.532356  0  2.247628  0
O  O96  1  0.85339514  0.36274153  0.75225030  1  0  -0.671056  0  1.997508  0  0  -0.621389  0  2.233535  0  0  -0.64575  0  2.223476  0  0  -0.345523  -0.604257  0  2.239767  0
O  O97  1  0.14660731  0.63726916  0.24775484  1  0  -0.670987  0  1.997586  0  0  -0.621374  0  2.233656  0  0  -0.645735  0  2.22359  0  0  -0.345545  -0.604244  0  2.239885  0
