# generated using pymatgen
data_CuH10Au(C3N)4
_symmetry_space_group_name_H-M   'P 1'
_cell_length_a   7.70869549
_cell_length_b   12.54061512
_cell_length_c   13.87740000
_cell_angle_alpha   90.00000000
_cell_angle_beta   90.52789421
_cell_angle_gamma   90.00000000
_symmetry_Int_Tables_number   1
_chemical_formula_structural   CuH10Au(C3N)4
_chemical_formula_sum   'Cu4 H40 Au4 C48 N16'
_cell_volume   1341.49606362
_cell_formula_units_Z   4
loop_
 _symmetry_equiv_pos_site_id
 _symmetry_equiv_pos_as_xyz
  1  'x, y, z'
loop_
 _atom_site_type_symbol
 _atom_site_label
 _atom_site_symmetry_multiplicity
 _atom_site_fract_x
 _atom_site_fract_y
 _atom_site_fract_z
 _atom_site_occupancy
 _atom_site_hle17_bader_spin_density
 _atom_site_hle17_ddec_charge
 _atom_site_hle17_ddec_spin_density
 _atom_site_hle17_ddec_sum_bond_order
 _atom_site_hle17_magmom
 _atom_site_hse06_10hf_bader_spin_density
 _atom_site_hse06_10hf_ddec_charge
 _atom_site_hse06_10hf_ddec_spin_density
 _atom_site_hse06_10hf_ddec_sum_bond_order
 _atom_site_hse06_10hf_magmom
 _atom_site_hse06_bader_spin_density
 _atom_site_hse06_ddec_charge
 _atom_site_hse06_ddec_spin_density
 _atom_site_hse06_ddec_sum_bond_order
 _atom_site_hse06_magmom
 _atom_site_pbe_bader_charge
 _atom_site_pbe_bader_spin_density
 _atom_site_pbe_cm5_charge
 _atom_site_pbe_ddec_charge
 _atom_site_pbe_ddec_spin_density
 _atom_site_pbe_ddec_sum_bond_order
 _atom_site_pbe_magmom
Cu  Cu0  1  0.32072936  0.82349948  0.30972871  1  0  0.500671  0  2.202515  0  0  0.393616  0  2.720087  0  0  0.377929  0  2.68343  0  0.801544  0  0.62824  0.40922  0  2.740531  0
Cu  Cu1  1  0.17928308  0.32350247  0.19027146  1  0  0.500657  0  2.202535  0  0  0.393682  0  2.720055  0  0  0.378003  0  2.683399  0  0.801549  0  0.628251  0.409287  0  2.740507  0
Cu  Cu2  1  0.67928124  0.17649692  0.69028021  1  0  0.50082  0  2.202845  0  0  0.393769  0  2.720462  0  0  0.378061  0  2.683804  0  0.801417  0  0.628313  0.409367  0  2.740896  0
Cu  Cu3  1  0.82070028  0.67648994  0.80972362  1  0  0.500848  0  2.202574  0  0  0.393768  0  2.720137  0  0  0.378119  0  2.683514  0  0.801584  0  0.628382  0.409415  0  2.740608  0
H  H4  1  0.04668303  0.89997021  0.17290383  1  0  0.059879  0  0.98591  0  0  0.064219  0  1.0636  0  0  0.066515  0  1.06071  0  0.100771  0  0.094213  0.062535  0  1.065705  0
H  H5  1  0.45332421  0.39996363  0.32710713  1  0  0.059889  0  0.985956  0  0  0.064198  0  1.06368  0  0  0.066489  0  1.060799  0  0.100737  0  0.094228  0.062513  0  1.06578  0
H  H6  1  0.95331459  0.10003895  0.82711295  1  0  0.059952  0  0.985851  0  0  0.064267  0  1.063587  0  0  0.066561  0  1.060701  0  0.100755  0  0.094204  0.062577  0  1.065681  0
H  H7  1  0.54666952  0.60003755  0.67288369  1  0  0.05995  0  0.98596  0  0  0.064287  0  1.063653  0  0  0.066586  0  1.060762  0  0.100657  0  0.094223  0.062598  0  1.065746  0
H  H8  1  0.74474646  0.85222773  0.12425340  1  0  0.08727  0  0.99538  0  0  0.093201  0  1.066444  0  0  0.095109  0  1.066543  0  0.09717  0  0.090354  0.091812  0  1.066544  0
H  H9  1  0.75525841  0.35221797  0.37574983  1  0  0.087294  0  0.995315  0  0  0.093213  0  1.066413  0  0  0.095121  0  1.066511  0  0.097309  0  0.090373  0.091822  0  1.066516  0
H  H10  1  0.25525376  0.14778860  0.87574826  1  0  0.08724  0  0.995471  0  0  0.093175  0  1.066541  0  0  0.095084  0  1.066636  0  0.097267  0  0.090331  0.091785  0  1.066643  0
H  H11  1  0.24473792  0.64778960  0.62424748  1  0  0.087317  0  0.995293  0  0  0.093237  0  1.066382  0  0  0.095144  0  1.066482  0  0.097301  0  0.090409  0.091848  0  1.066483  0
H  H12  1  0.60207294  0.69408477  0.20166609  1  0  0.095303  0  0.945685  0  0  0.104473  0  1.008945  0  0  0.107868  0  1.005869  0  0.110035  0  0.105888  0.101984  0  1.011193  0
H  H13  1  0.89793582  0.19407820  0.29832995  1  0  0.095277  0  0.94574  0  0  0.104495  0  1.008947  0  0  0.107884  0  1.005891  0  0.109899  0  0.105885  0.102005  0  1.011197  0
H  H14  1  0.39793636  0.30592040  0.79832985  1  0  0.095284  0  0.945777  0  0  0.104496  0  1.008983  0  0  0.107889  0  1.005915  0  0.109934  0  0.105896  0.102006  0  1.011234  0
H  H15  1  0.10206051  0.80591741  0.70167024  1  0  0.095224  0  0.945811  0  0  0.104442  0  1.009015  0  0  0.107832  0  1.005952  0  0.110008  0  0.105862  0.101951  0  1.011267  0
H  H16  1  0.77535864  0.58743610  0.32296311  1  0  0.092235  0  0.968322  0  0  0.099708  0  1.036224  0  0  0.101813  0  1.036274  0  0.078598  0  0.095798  0.098174  0  1.036368  0
H  H17  1  0.72464623  0.08742952  0.17702787  1  0  0.092192  0  0.968513  0  0  0.099616  0  1.036459  0  0  0.101716  0  1.036513  0  0.078592  0  0.095767  0.098081  0  1.036602  0
H  H18  1  0.22464806  0.41256828  0.67703426  1  0  0.092219  0  0.968411  0  0  0.099674  0  1.03635  0  0  0.10178  0  1.036399  0  0.078465  0  0.095787  0.09814  0  1.036494  0
H  H19  1  0.27533713  0.91256528  0.82296866  1  0  0.092266  0  0.968528  0  0  0.099671  0  1.036486  0  0  0.101782  0  1.036526  0  0.078346  0  0.095808  0.098137  0  1.036631  0
H  H20  1  0.07701241  0.64601616  0.36306294  1  0  0.058392  0  0.998224  0  0  0.063367  0  1.075567  0  0  0.065113  0  1.073437  0  0.130727  0  0.092858  0.062033  0  1.07721  0
H  H21  1  0.42300392  0.14601836  0.13693509  1  0  0.058384  0  0.998298  0  0  0.063382  0  1.075599  0  0  0.065134  0  1.073464  0  0.130916  0  0.092911  0.062048  0  1.077245  0
H  H22  1  0.92298652  0.35398742  0.63694015  1  0  0.058318  0  0.998278  0  0  0.063327  0  1.075596  0  0  0.065043  0  1.073493  0  0.130824  0  0.092858  0.061991  0  1.077239  0
H  H23  1  0.57700798  0.85398682  0.86305870  1  0  0.058423  0  0.998216  0  0  0.06342  0  1.075547  0  0  0.065143  0  1.073436  0  0.130859  0  0.092896  0.062083  0  1.077181  0
H  H24  1  0.24110550  0.05507944  0.28936934  1  0  0.074036  0  0.945787  0  0  0.082646  0  1.011231  0  0  0.083788  0  1.011077  0  0.066948  0  0.110323  0.081751  0  1.011457  0
H  H25  1  0.25889915  0.55507804  0.21062647  1  0  0.07403  0  0.945731  0  0  0.082643  0  1.011173  0  0  0.08378  0  1.011013  0  0.067018  0  0.110353  0.081746  0  1.011402  0
H  H26  1  0.75890121  0.94492095  0.71063812  1  0  0.074008  0  0.945588  0  0  0.082626  0  1.011057  0  0  0.083766  0  1.010902  0  0.067062  0  0.110341  0.081731  0  1.011281  0
H  H27  1  0.74109329  0.44492076  0.78937082  1  0  0.07408  0  0.945579  0  0  0.08262  0  1.011095  0  0  0.083756  0  1.010933  0  0.066913  0  0.110318  0.081726  0  1.011318  0
H  H28  1  0.20244103  0.21396239  0.39513727  1  0  0.101454  0  0.979219  0  0  0.109418  0  1.044128  0  0  0.111496  0  1.044694  0  0.126886  0  0.101512  0.107918  0  1.043821  0
H  H29  1  0.29755324  0.71395860  0.10485344  1  0  0.101425  0  0.97937  0  0  0.109434  0  1.044214  0  0  0.111515  0  1.044789  0  0.127007  0  0.101486  0.107935  0  1.043908  0
H  H30  1  0.79756049  0.78604119  0.60485719  1  0  0.101476  0  0.97929  0  0  0.109447  0  1.044179  0  0  0.111524  0  1.044748  0  0.12699  0  0.101534  0.107952  0  1.043875  0
H  H31  1  0.70244568  0.28603461  0.89514677  1  0  0.101409  0  0.979266  0  0  0.109398  0  1.044158  0  0  0.111479  0  1.044733  0  0.126976  0  0.101475  0.107898  0  1.043854  0
H  H32  1  0.22762924  0.19035111  0.57522640  1  0  0.089559  0  0.961893  0  0  0.102043  0  1.019646  0  0  0.10295  0  1.020512  0  0.086391  0  0.102203  0.101313  0  1.019165  0
H  H33  1  0.27235466  0.69035768  0.92476353  1  0  0.089655  0  0.961709  0  0  0.102047  0  1.019588  0  0  0.102955  0  1.020452  0  0.086076  0  0.102189  0.101316  0  1.019106  0
H  H34  1  0.77236450  0.80965486  0.42476874  1  0  0.089546  0  0.961934  0  0  0.102031  0  1.01968  0  0  0.102936  0  1.020547  0  0.086275  0  0.102209  0.101302  0  1.019195  0
H  H35  1  0.72765205  0.30963952  0.07523744  1  0  0.089709  0  0.961661  0  0  0.102094  0  1.01954  0  0  0.103002  0  1.020405  0  0.086016  0  0.102224  0.101365  0  1.019056  0
H  H36  1  0.28663654  0.00667990  0.64020982  1  0  0.098996  0  0.955177  0  0  0.110569  0  1.014262  0  0  0.11254  0  1.015006  0  0.084408  0  0.104015  0.109173  0  1.013866  0
H  H37  1  0.21336422  0.50668567  0.85979822  1  0  0.098953  0  0.955318  0  0  0.110544  0  1.014364  0  0  0.112515  0  1.015107  0  0.084444  0  0.104027  0.109149  0  1.013969  0
H  H38  1  0.71336109  0.99332927  0.35979182  1  0  0.099009  0  0.955107  0  0  0.110541  0  1.014248  0  0  0.112513  0  1.014992  0  0.084421  0  0.104003  0.109146  0  1.013853  0
H  H39  1  0.78664638  0.49331233  0.14020422  1  0  0.098953  0  0.95524  0  0  0.110529  0  1.014302  0  0  0.112497  0  1.015049  0  0.084444  0  0.103987  0.109135  0  1.013906  0
H  H40  1  0.32191767  0.85609278  0.52372660  1  0  0.070175  0  0.954628  0  0  0.079515  0  1.01891  0  0  0.080543  0  1.019307  0  0.10096  0  0.108691  0.07873  0  1.018719  0
H  H41  1  0.17809735  0.35609338  0.97627214  1  0  0.070234  0  0.954656  0  0  0.07957  0  1.018925  0  0  0.080598  0  1.019323  0  0.100931  0  0.108683  0.078762  0  1.018757  0
H  H42  1  0.67808773  0.14391080  0.47627652  1  0  0.070242  0  0.954559  0  0  0.079582  0  1.018819  0  0  0.080611  0  1.019216  0  0.100911  0  0.108702  0.07878  0  1.018646  0
H  H43  1  0.82190935  0.64389904  0.02372595  1  0  0.070104  0  0.954622  0  0  0.079452  0  1.018896  0  0  0.080479  0  1.019291  0  0.101091  0  0.108659  0.078633  0  1.01874  0
Au  Au44  1  0.49999038  0.99999640  0.99999934  1  0  0.083872  0  2.441863  0  0  0.028831  0  2.922379  0  0  0.043634  0  2.883649  0  0.228888  0  0.291681  0.01878  0  2.948945  0
Au  Au45  1  0.99998854  0.50000657  0.49999151  1  0  0.083907  0  2.441647  0  0  0.028867  0  2.922147  0  0  0.043667  0  2.883418  0  0.229283  0  0.291707  0.018812  0  2.948716  0
Au  Au46  1  0.49999038  0.49998425  0.49999862  1  0  0.076984  0  2.46147  0  0  0.022329  0  2.949131  0  0  0.036059  0  2.912041  0  0.231609  0  0.283511  0.013123  0  2.974469  0
Au  Au47  1  0.99999244  0.99999162  0.99999585  1  0  0.077089  0  2.461114  0  0  0.022418  0  2.948758  0  0  0.036154  0  2.911658  0  0.231901  0  0.283496  0.013202  0  2.974097  0
C  C48  1  0.43462895  0.92733649  0.12010886  1  0  0.030721  0  3.627875  0  0  0.037208  0  3.974232  0  0  0.039014  0  3.979144  0  0.779055  0  -0.015672  0.036183  0  3.971062  0
C  C49  1  0.06537700  0.42735384  0.37988191  1  0  0.030696  0  3.627847  0  0  0.037176  0  3.974213  0  0  0.038985  0  3.97912  0  0.778904  0  -0.015723  0.036151  0  3.971045  0
C  C50  1  0.56535960  0.07264157  0.87990139  1  0  0.030696  0  3.627164  0  0  0.037167  0  3.973598  0  0  0.03898  0  3.978502  0  0.778553  0  -0.015876  0.036137  0  3.970427  0
C  C51  1  0.93460246  0.57265453  0.62009658  1  0  0.030574  0  3.6275  0  0  0.037048  0  3.973921  0  0  0.038857  0  3.978831  0  0.77869  0  -0.015896  0.03602  0  3.970759  0
C  C52  1  0.44467128  0.62928572  0.42507544  1  0  0.030963  0  3.624204  0  0  0.035918  0  3.973429  0  0  0.037651  0  3.978853  0  0.787352  0  -0.021403  0.03493  0  3.969935  0
C  C53  1  0.05533597  0.12928154  0.07494056  1  0  0.030946  0  3.624213  0  0  0.035909  0  3.973426  0  0  0.03764  0  3.978848  0  0.787589  0  -0.021494  0.034921  0  3.969934  0
C  C54  1  0.55532245  0.37070749  0.57494204  1  0  0.031162  0  3.623944  0  0  0.03613  0  3.973166  0  0  0.037864  0  3.978588  0  0.788146  0  -0.021372  0.035141  0  3.969676  0
C  C55  1  0.94466555  0.87069493  0.92506327  1  0  0.03095  0  3.624424  0  0  0.035925  0  3.973613  0  0  0.037652  0  3.979038  0  0.788315  0  -0.021455  0.034938  0  3.970125  0
C  C56  1  0.98129587  0.83146320  0.20497605  1  0  0.112047  0  3.719186  0  0  0.08923  0  3.957343  0  0  0.093776  0  3.976199  0  0.452107  0  0.034787  0.08632  0  3.944822  0
C  C57  1  0.51869992  0.33145982  0.29502930  1  0  0.112238  0  3.718936  0  0  0.089512  0  3.957065  0  0  0.09406  0  3.975917  0  0.452394  0  0.034918  0.086599  0  3.944544  0
C  C58  1  0.01870305  0.16854436  0.79503569  1  0  0.11215  0  3.719167  0  0  0.089302  0  3.957241  0  0  0.093848  0  3.976095  0  0.452982  0  0.034897  0.0864  0  3.944708  0
C  C59  1  0.48128992  0.66853658  0.70496654  1  0  0.111995  0  3.719296  0  0  0.089179  0  3.957367  0  0  0.093724  0  3.976227  0  0.452971  0  0.034788  0.086278  0  3.944838  0
C  C60  1  0.81313966  0.80423328  0.17769118  1  0  -0.123776  0  3.755993  0  0  -0.128376  0  3.989664  0  0  -0.136443  0  4.014582  0  -0.078016  0  -0.090332  -0.123176  0  3.972995  0
C  C61  1  0.68687299  0.30421793  0.32231209  1  0  -0.123912  0  3.75578  0  0  -0.128525  0  3.989517  0  0  -0.13659  0  4.014433  0  -0.078182  0  -0.090462  -0.123325  0  3.972851  0
C  C62  1  0.18686445  0.19577588  0.82230833  1  0  -0.123808  0  3.756122  0  0  -0.128439  0  3.989824  0  0  -0.136507  0  4.014745  0  -0.078157  0  -0.090427  -0.12324  0  3.973156  0
C  C63  1  0.31312853  0.69577688  0.67769462  1  0  -0.123777  0  3.756152  0  0  -0.128402  0  3.989887  0  0  -0.136469  0  4.014807  0  -0.078026  0  -0.090449  -0.123204  0  3.97322  0
C  C64  1  0.73496229  0.71582214  0.22013556  1  0  -0.001644  0  3.716978  0  0  -0.019366  0  3.958881  0  0  -0.014233  0  3.975306  0  0.010528  0  -0.066916  -0.022689  0  3.947807  0
C  C65  1  0.76504388  0.21581398  0.27986335  1  0  -0.001727  0  3.717231  0  0  -0.019506  0  3.959162  0  0  -0.014381  0  3.97559  0  0.010559  0  -0.06694  -0.022826  0  3.948087  0
C  C66  1  0.26504312  0.28418462  0.77986540  1  0  -0.001668  0  3.716824  0  0  -0.019428  0  3.958758  0  0  -0.014298  0  3.975187  0  0.010522  0  -0.066931  -0.022752  0  3.947689  0
C  C67  1  0.23494985  0.78418482  0.72013395  1  0  -0.001677  0  3.716846  0  0  -0.019445  0  3.958769  0  0  -0.014314  0  3.975192  0  0.010299  0  -0.066953  -0.022771  0  3.9477  0
C  C68  1  0.83025872  0.65699409  0.28747153  1  0  -0.127757  0  3.758585  0  0  -0.134427  0  3.99742  0  0  -0.142382  0  4.021863  0  -0.07008  0  -0.089225  -0.129297  0  3.981074  0
C  C69  1  0.66976561  0.15698592  0.21252171  1  0  -0.127464  0  3.758316  0  0  -0.134056  0  3.997095  0  0  -0.142007  0  4.02155  0  -0.070266  0  -0.089095  -0.128929  0  3.980753  0
C  C70  1  0.16973631  0.34301826  0.71253154  1  0  -0.127605  0  3.758567  0  0  -0.134276  0  3.997411  0  0  -0.142231  0  4.021856  0  -0.069934  0  -0.089106  -0.129148  0  3.981068  0
C  C71  1  0.33025537  0.84302563  0.78746636  1  0  -0.127524  0  3.758425  0  0  -0.134122  0  3.997224  0  0  -0.14208  0  4.021668  0  -0.069462  0  -0.089011  -0.128995  0  3.980879  0
C  C72  1  0.99810747  0.68960094  0.31053429  1  0  0.107765  0  3.726987  0  0  0.082586  0  3.970738  0  0  0.087308  0  3.989213  0  0.456047  0  0.03425  0.079586  0  3.958459  0
C  C73  1  0.50189999  0.18959915  0.18946175  1  0  0.107762  0  3.726541  0  0  0.082628  0  3.970301  0  0  0.08734  0  3.988771  0  0.456094  0  0.034337  0.079622  0  3.958026  0
C  C74  1  0.00189015  0.31040742  0.68947456  1  0  0.107966  0  3.727378  0  0  0.082732  0  3.971061  0  0  0.087476  0  3.989553  0  0.455851  0  0.034304  0.07973  0  3.958777  0
C  C75  1  0.49810152  0.81040762  0.81052479  1  0  0.107759  0  3.727111  0  0  0.08257  0  3.970793  0  0  0.087307  0  3.989288  0  0.455394  0  0.03422  0.079577  0  3.958504  0
C  C76  1  0.24875303  0.04770819  0.36767530  1  0  0.113  0  3.707752  0  0  0.087138  0  3.952492  0  0  0.092094  0  3.971724  0  0.435595  0  0.037449  0.083915  0  3.939787  0
C  C77  1  0.25125291  0.54770360  0.13232124  1  0  0.113042  0  3.708007  0  0  0.087187  0  3.952795  0  0  0.092155  0  3.972019  0  0.435642  0  0.037438  0.083964  0  3.940089  0
C  C78  1  0.75125367  0.95229380  0.63232279  1  0  0.113096  0  3.707822  0  0  0.087235  0  3.95259  0  0  0.092197  0  3.971817  0  0.435543  0  0.037508  0.084012  0  3.939884  0
C  C79  1  0.74874860  0.45228882  0.86768115  1  0  0.113045  0  3.708207  0  0  0.087244  0  3.952948  0  0  0.092216  0  3.97217  0  0.435589  0  0.037482  0.084023  0  3.940245  0
C  C80  1  0.22742427  0.13609061  0.42713061  1  0  -0.130993  0  3.748111  0  0  -0.136975  0  3.985716  0  0  -0.145742  0  4.011047  0  -0.058854  0  -0.089424  -0.1313  0  3.968782  0
C  C81  1  0.27256741  0.63608443  0.07286585  1  0  -0.131112  0  3.748424  0  0  -0.1371  0  3.985988  0  0  -0.14588  0  4.01133  0  -0.058836  0  -0.089426  -0.131426  0  3.969059  0
C  C82  1  0.77257985  0.86391616  0.57286963  1  0  -0.130941  0  3.748371  0  0  -0.136932  0  3.98598  0  0  -0.1457  0  4.011314  0  -0.058896  0  -0.089388  -0.131266  0  3.969058  0
C  C83  1  0.72744059  0.36391437  0.92713297  1  0  -0.131056  0  3.748567  0  0  -0.137045  0  3.986111  0  0  -0.145824  0  4.011453  0  -0.058833  0  -0.089422  -0.131367  0  3.969177  0
C  C84  1  0.24048669  0.12260962  0.52676006  1  0  -3.7e-05  0  3.71571  0  0  -0.016492  0  3.955457  0  0  -0.012684  0  3.975266  0  0.053603  0  -0.06773  -0.018933  0  3.942138  0
C  C85  1  0.25950369  0.62261699  0.97323135  1  0  -1.2e-05  0  3.715378  0  0  -0.016456  0  3.955245  0  0  -0.012644  0  3.975046  0  0.053895  0  -0.067708  -0.0189  0  3.941933  0
C  C86  1  0.75951482  0.87739556  0.47323872  1  0  -0.000122  0  3.715571  0  0  -0.016572  0  3.95534  0  0  -0.012764  0  3.97515  0  0.053905  0  -0.067801  -0.019014  0  3.942024  0
C  C87  1  0.74050042  0.37738021  0.02676961  1  0  -3.8e-05  0  3.715218  0  0  -0.016469  0  3.955076  0  0  -0.012655  0  3.97487  0  0.053886  0  -0.067674  -0.018915  0  3.941764  0
C  C88  1  0.27331206  0.02076932  0.56303064  1  0  -0.118535  0  3.743978  0  0  -0.130194  0  3.991014  0  0  -0.136824  0  4.013309  0  -0.042857  0  -0.08634  -0.126041  0  3.976196  0
C  C89  1  0.22668740  0.52076871  0.93697162  1  0  -0.118486  0  3.744328  0  0  -0.130133  0  3.991322  0  0  -0.136763  0  4.013617  0  -0.042972  0  -0.086327  -0.12598  0  3.9765  0
C  C90  1  0.72670503  0.97924383  0.43697398  1  0  -0.118591  0  3.744127  0  0  -0.130229  0  3.991202  0  0  -0.136861  0  4.013497  0  -0.042881  0  -0.086337  -0.126075  0  3.97638  0
C  C91  1  0.77331541  0.47922450  0.06302933  1  0  -0.118438  0  3.74409  0  0  -0.130074  0  3.991105  0  0  -0.136703  0  4.013398  0  -0.043154  0  -0.08625  -0.125918  0  3.976276  0
C  C92  1  0.29329553  0.93667255  0.49862732  1  0  0.114378  0  3.714883  0  0  0.087719  0  3.960951  0  0  0.092818  0  3.979642  0  0.427137  0  0.038959  0.08446  0  3.94854  0
C  C93  1  0.20672339  0.43667236  0.00136928  1  0  0.114256  0  3.715098  0  0  0.087626  0  3.961172  0  0  0.092723  0  3.979865  0  0.427124  0  0.038995  0.084387  0  3.948766  0
C  C94  1  0.70672544  0.06333182  0.50136868  1  0  0.114325  0  3.715005  0  0  0.087702  0  3.961062  0  0  0.0928  0  3.979752  0  0.427179  0  0.038981  0.084459  0  3.948653  0
C  C95  1  0.79327813  0.56331846  0.99863454  1  0  0.114334  0  3.714868  0  0  0.087672  0  3.960967  0  0  0.092773  0  3.979659  0  0.42712  0  0.038886  0.084443  0  3.948565  0
N  N96  1  0.40135731  0.88525163  0.19326355  1  0  -0.409028  0  3.274143  0  0  -0.359858  0  3.612894  0  0  -0.361104  0  3.615179  0  -1.340084  0  -0.415593  -0.360224  0  3.610679  0
N  N97  1  0.09864863  0.38526101  0.30673298  1  0  -0.409023  0  3.274031  0  0  -0.359832  0  3.612694  0  0  -0.36108  0  3.614979  0  -1.340107  0  -0.415562  -0.360199  0  3.61048  0
N  N98  1  0.59864939  0.11474238  0.80673886  1  0  -0.409063  0  3.273178  0  0  -0.359863  0  3.61188  0  0  -0.361104  0  3.614163  0  -1.339464  0  -0.415435  -0.360228  0  3.609656  0
N  N99  1  0.90133602  0.61473699  0.69326139  1  0  -0.408953  0  3.27352  0  0  -0.359743  0  3.612158  0  0  -0.360998  0  3.614469  0  -1.339753  0  -0.415448  -0.36012  0  3.60996  0
N  N100  1  0.41045133  0.70575964  0.37982990  1  0  -0.411531  0  3.283051  0  0  -0.36126  0  3.624629  0  0  -0.3625  0  3.626784  0  -1.349891  0  -0.419387  -0.361658  0  3.622481  0
N  N101  1  0.08954943  0.20576184  0.12017886  1  0  -0.411525  0  3.283194  0  0  -0.361267  0  3.624745  0  0  -0.362509  0  3.626908  0  -1.350242  0  -0.419281  -0.361657  0  3.622581  0
N  N102  1  0.58954500  0.29422161  0.62018038  1  0  -0.411671  0  3.282859  0  0  -0.361435  0  3.624515  0  0  -0.362674  0  3.626675  0  -1.350562  0  -0.419448  -0.361825  0  3.622344  0
N  N103  1  0.91044300  0.79422340  0.87981700  1  0  -0.411565  0  3.283376  0  0  -0.361318  0  3.624966  0  0  -0.362577  0  3.627168  0  -1.350725  0  -0.419395  -0.361719  0  3.622819  0
N  N104  1  0.28205840  0.94922138  0.40224196  1  0  -0.302314  0  3.356106  0  0  -0.235837  0  3.649793  0  0  -0.243869  0  3.657493  0  -1.224642  0  -0.352574  -0.231283  0  3.64457  0
N  N105  1  0.21795534  0.44921401  0.09775966  1  0  -0.302261  0  3.356307  0  0  -0.235847  0  3.650045  0  0  -0.243876  0  3.65774  0  -1.224797  0  -0.352659  -0.231295  0  3.644816  0
N  N106  1  0.71794831  0.05078459  0.59776045  1  0  -0.302346  0  3.356058  0  0  -0.235925  0  3.649814  0  0  -0.243951  0  3.657505  0  -1.224915  0  -0.352674  -0.23137  0  3.64458  0
N  N107  1  0.78204099  0.55077841  0.90224126  1  0  -0.302414  0  3.356202  0  0  -0.235939  0  3.649862  0  0  -0.243977  0  3.657572  0  -1.224484  0  -0.35263  -0.231396  0  3.644646  0
N  N108  1  0.07307124  0.77572032  0.27079638  1  0  -0.291674  0  3.344803  0  0  -0.225381  0  3.631447  0  0  -0.232396  0  3.639041  0  -1.251812  0  -0.352516  -0.221398  0  3.626181  0
N  N109  1  0.42694379  0.27571375  0.22920452  1  0  -0.291905  0  3.345005  0  0  -0.225771  0  3.631823  0  0  -0.232787  0  3.639422  0  -1.251944  0  -0.352758  -0.221776  0  3.626551  0
N  N110  1  0.92692379  0.22429043  0.72920885  1  0  -0.292109  0  3.345234  0  0  -0.225673  0  3.631762  0  0  -0.23268  0  3.639343  0  -1.252412  0  -0.352674  -0.221679  0  3.626481  0
N  N111  1  0.57306551  0.72428824  0.77078998  1  0  -0.291996  0  3.345144  0  0  -0.225654  0  3.631749  0  0  -0.232676  0  3.639357  0  -1.25244  0  -0.352659  -0.221671  0  3.626488  0
