# generated using pymatgen
data_Al4H33C56Br3(NO5)4
_symmetry_space_group_name_H-M   'P 1'
_cell_length_a   6.66565292
_cell_length_b   17.12319777
_cell_length_c   19.26942683
_cell_angle_alpha   109.90185328
_cell_angle_beta   89.56549942
_cell_angle_gamma   91.09340903
_symmetry_Int_Tables_number   1
_chemical_formula_structural   Al4H33C56Br3(NO5)4
_chemical_formula_sum   'Al4 H33 C56 Br3 N4 O20'
_cell_volume   2067.63014772
_cell_formula_units_Z   1
loop_
 _symmetry_equiv_pos_site_id
 _symmetry_equiv_pos_as_xyz
  1  'x, y, z'
loop_
 _atom_site_type_symbol
 _atom_site_label
 _atom_site_symmetry_multiplicity
 _atom_site_fract_x
 _atom_site_fract_y
 _atom_site_fract_z
 _atom_site_occupancy
 _atom_site_pbe_bader_charge
 _atom_site_pbe_bader_spin_density
 _atom_site_pbe_cm5_charge
 _atom_site_pbe_ddec_charge
 _atom_site_pbe_ddec_spin_density
 _atom_site_pbe_ddec_sum_bond_order
 _atom_site_pbe_magmom
Al  Al0  1  0.13743456  0.49867467  0.49802632  1  2.502323  0  0.392496  1.644247  0  2.571418  0
Al  Al1  1  0.63630377  0.49829576  0.49723508  1  2.49809  0  0.393562  1.638355  0  2.583686  0
Al  Al2  1  0.64211405  0.00116925  0.99548282  1  2.500257  0  0.390718  1.630527  0  2.579343  0
Al  Al3  1  0.14258232  0.99781614  0.00045773  1  2.499725  0  0.391231  1.633318  0  2.591445  0
H  H4  1  0.15745300  0.81795761  0.09190306  1  0.100315  0  0.106487  0.111133  0  1.008202  0
H  H5  1  0.31933805  0.70851631  0.12718633  1  0.076213  0  0.107191  0.113291  0  0.977552  0
H  H6  1  0.32587921  0.61929298  0.20396643  1  0.088174  0  0.092472  0.094307  0  1.047924  0
H  H7  1  0.61191637  0.67530465  0.40209486  1  0.103009  0  0.111203  0.120943  0  0.997579  0
H  H8  1  0.45003296  0.78597203  0.36686669  1  0.067454  0  0.107753  0.113183  0  0.976514  0
H  H9  1  0.44328866  0.87519369  0.29024094  1  0.086838  0  0.092543  0.095748  0  1.043863  0
H  H10  1  0.02899211  0.79319899  0.65154068  1  0.059366  0  0.105743  0.111161  0  0.971722  0
H  H11  1  0.54519903  0.69450033  0.71814952  1  0.120469  0  0.097156  0.103747  0  1.022451  0
H  H12  1  0.75057938  0.70177253  0.84740171  1  0.076799  0  0.105845  0.106452  0  0.97865  0
H  H13  1  0.34584809  0.11683126  0.26382135  1  0.054371  0  0.090155  0.079879  0  1.027901  0
H  H14  1  0.65728486  0.23473128  0.32855938  1  0.067269  0  0.103293  0.100494  0  0.987071  0
H  H15  1  0.43915099  0.38581908  0.22965220  1  0.067641  0  0.086163  0.087079  0  1.03708  0
H  H16  1  0.13335107  0.26637590  0.16348807  1  0.058856  0  0.097372  0.085009  0  1.026395  0
H  H17  1  0.06329101  0.24731695  0.30379957  1  0.074917  0  0.101073  0.09176  0  0.994615  0
H  H18  1  0.66507372  0.17706942  0.89693324  1  0.075042  0  0.104937  0.111821  0  1.014593  0
H  H19  1  0.82781537  0.28913132  0.85863195  1  0.053473  0  0.101896  0.106353  0  0.989678  0
H  H20  1  0.82940365  0.37614082  0.77919773  1  0.067444  0  0.10303  0.108921  0  0.995115  0
H  H21  1  0.67096914  0.41552548  0.67917169  1  0.097442  0  0.107017  0.115981  0  1.002293  0
H  H22  1  0.09555480  0.31240968  0.59164115  1  0.056784  0  0.104254  0.110928  0  1.005477  0
H  H23  1  0.93396811  0.20211179  0.63150657  1  0.071676  0  0.104305  0.108985  0  0.98718  0
H  H24  1  0.92573750  0.11934048  0.71237024  1  0.05038  0  0.101365  0.096036  0  1.011366  0
H  H25  1  0.74800393  0.91148203  0.71230876  1  0.392784  0  0.286531  0.276134  0  0.973097  0
H  H26  1  0.61015521  0.91300991  0.78391125  1  0.433559  0  0.289343  0.284131  0  0.977114  0
H  H27  1  0.35207436  0.82885472  0.74756297  1  0.453541  0  0.282154  0.276247  0  1.022658  0
H  H28  1  0.29351988  0.85178447  0.83819364  1  0.454503  0  0.292673  0.298629  0  0.980986  0
H  H29  1  0.86379804  0.29446531  0.22009603  1  0.405592  0  0.289888  0.276756  0  0.982593  0
H  H30  1  0.76482526  0.26467831  0.13634368  1  0.411417  0  0.290815  0.276852  0  0.957517  0
H  H31  1  0.89726169  0.09822533  0.80666730  1  0.44878  0  0.300349  0.289396  0  0.982738  0
H  H32  1  0.01918243  0.06059280  0.86771598  1  0.531748  0  0.308917  0.319444  0  0.975931  0
H  H33  1  0.39220909  0.60296436  0.54791030  1  0.618003  0  0.350055  0.427038  0  0.859256  0
H  H34  1  0.88235594  0.40375614  0.51172807  1  0.616238  0  0.351374  0.427664  0  0.859194  0
H  H35  1  0.40152785  0.90731750  0.01670683  1  0.626918  0  0.345144  0.423452  0  0.870625  0
H  H36  1  0.89716991  0.10197351  0.05091212  1  0.626382  0  0.345231  0.422464  0  0.875327  0
C  C37  1  0.37732574  0.38204001  0.38476470  1  1.567477  0  0.26399  0.636657  0  4.117447  0
C  C38  1  0.38765938  0.41787748  0.58034628  1  1.545143  0  0.264681  0.642498  0  4.096308  0
C  C39  1  0.89317505  0.61558431  0.61203735  1  1.569794  0  0.266071  0.656669  0  4.090486  0
C  C40  1  0.88752976  0.57364367  0.41234589  1  1.607509  0  0.266707  0.649598  0  4.093117  0
C  C41  1  0.71967675  0.87725070  0.18476366  1  -0.134546  0  -0.009356  0.034207  0  3.888555  0
C  C42  1  0.87652600  0.87327562  0.13447673  1  0.001773  0  -0.022283  -0.088074  0  3.997347  0
C  C43  1  0.03543790  0.81967785  0.13030063  1  -0.020656  0  -0.081746  -0.138697  0  3.966887  0
C  C44  1  0.04027821  0.76822891  0.17310234  1  0.039432  0  -0.010627  0.071492  0  4.062111  0
C  C45  1  0.88236475  0.77289248  0.22469825  1  0.015514  0  0.005623  0.015055  0  3.899764  0
C  C46  1  0.72012357  0.82899939  0.23154751  1  0.038245  0  -0.013215  0.026166  0  4.019434  0
C  C47  1  0.19913970  0.71128669  0.16669429  1  -0.078044  0  -0.085798  -0.114884  0  3.993288  0
C  C48  1  0.20293446  0.66184536  0.20914593  1  0.004945  0  -0.095929  -0.126427  0  4.029145  0
C  C49  1  0.04880472  0.66544030  0.26236665  1  0.036534  0  -0.014084  0.024084  0  4.025121  0
C  C50  1  0.88679688  0.72165246  0.26951874  1  -0.055721  0  0.004524  0.012073  0  3.903857  0
C  C51  1  0.72884558  0.72604896  0.32106661  1  0.00414  0  -0.010765  0.069222  0  4.061421  0
C  C52  1  0.57030082  0.78314885  0.32738415  1  -0.007411  0  -0.084276  -0.110973  0  3.989962  0
C  C53  1  0.56625735  0.83262234  0.28489374  1  -0.059329  0  -0.098409  -0.131474  0  4.027514  0
C  C54  1  0.04929339  0.61671246  0.30870272  1  -0.1142  0  -0.007938  0.034914  0  3.895379  0
C  C55  1  0.89342841  0.62096910  0.35943864  1  0.024662  0  -0.018853  -0.083128  0  3.991615  0
C  C56  1  0.73393000  0.67438656  0.36380534  1  -0.032371  0  -0.079123  -0.139749  0  3.954299  0
C  C57  1  0.77536803  0.80957670  0.74246523  1  0.429691  0  0.095448  0.274467  0  3.716283  0
C  C58  1  0.96703633  0.77382540  0.69610467  1  -0.036347  0  -0.071385  -0.174621  0  3.598252  0
C  C59  1  0.88778323  0.68287133  0.68473105  1  -0.007404  0  -0.009903  -0.051887  0  3.678301  0
C  C60  1  0.69796782  0.71858531  0.73176234  1  -0.053085  0  -0.082353  -0.12439  0  3.618766  0
C  C61  1  0.81201810  0.72169665  0.80329777  1  -0.003056  0  -0.070685  -0.07269  0  3.654078  0
C  C62  1  0.00347993  0.68653721  0.75676813  1  -0.011977  0  -0.010824  0.042263  0  3.562512  0
C  C63  1  0.08375856  0.77846826  0.76793542  1  0.499082  0  0.09568  0.257151  0  3.781198  0
C  C64  1  0.89108412  0.81264369  0.81506906  1  -0.018564  0  -0.016077  -0.175996  0  3.677166  0
C  C65  1  0.53953676  0.24141561  0.29185431  1  -0.020918  0  -0.076531  -0.121943  0  3.62133  0
C  C66  1  0.36623156  0.17739279  0.25712997  1  0.005818  0  -0.067551  -0.045105  0  3.615637  0
C  C67  1  0.40246439  0.18956982  0.17991828  1  -0.003468  0  -0.008011  -0.097917  0  3.641701  0
C  C68  1  0.57696398  0.25364324  0.21591885  1  0.429217  0  0.092723  0.267479  0  3.744196  0
C  C69  1  0.41794951  0.32548840  0.23686237  1  -0.046058  0  -0.084096  -0.14597  0  3.618238  0
C  C70  1  0.24688972  0.26096448  0.20197579  1  -0.006436  0  -0.081129  -0.065072  0  3.681804  0
C  C71  1  0.20925440  0.24867328  0.27790826  1  -0.054488  0  -0.075147  -0.065306  0  3.626223  0
C  C72  1  0.38238793  0.31244702  0.31360807  1  -0.007683  0  -0.005314  -0.024781  0  3.66601  0
C  C73  1  0.19845576  0.12471439  0.81972016  1  0.461837  0  0.116909  0.265682  0  4.017093  0
C  C74  1  0.37272239  0.12507199  0.86275955  1  -0.02569  0  -0.037177  -0.180097  0  3.983669  0
C  C75  1  0.53851643  0.17625377  0.86107076  1  -0.074493  0  -0.092491  -0.148788  0  4.01308  0
C  C76  1  0.54174664  0.22788810  0.81844925  1  0.004151  0  -0.028409  0.038098  0  4.097086  0
C  C77  1  0.37560518  0.22255978  0.77007238  1  -0.025093  0  0.002973  0.020553  0  3.941143  0
C  C78  1  0.20793120  0.16929539  0.76881791  1  -0.006923  0  -0.021589  -0.04787  0  3.998803  0
C  C79  1  0.70325362  0.28528807  0.82106001  1  -0.084611  0  -0.094223  -0.128843  0  4.037921  0
C  C80  1  0.70443340  0.33333284  0.77723785  1  0.027929  0  -0.09673  -0.143304  0  4.018593  0
C  C81  1  0.54406097  0.32739315  0.72623492  1  -0.041512  0  -0.008266  0.076427  0  4.040174  0
C  C82  1  0.37861395  0.27166050  0.72339125  1  0.025412  0  0.003028  0.001654  0  3.894375  0
C  C83  1  0.21616081  0.26561560  0.67364040  1  0.068455  0  -0.00792  0.078461  0  4.049382  0
C  C84  1  0.05557244  0.20814991  0.67067659  1  -0.070331  0  -0.091149  -0.133598  0  4.015371  0
C  C85  1  0.05149363  0.16237495  0.71660291  1  -0.024481  0  -0.094332  -0.118171  0  4.040623  0
C  C86  1  0.54472557  0.37386429  0.67870401  1  -0.044203  0  -0.084738  -0.151212  0  3.929019  0
C  C87  1  0.38333917  0.36840948  0.63089358  1  -0.011866  0  -0.022062  -0.042083  0  4.033472  0
C  C88  1  0.21983301  0.31555577  0.62897528  1  -0.062556  0  -0.085417  -0.152517  0  3.947617  0
C  C89  1  0.38297339  0.07566157  0.91239734  1  1.53869  0  0.259046  0.643633  0  4.09051  0
C  C90  1  0.40375610  0.11925794  0.10961951  1  1.538379  0  0.262882  0.652779  0  4.097589  0
C  C91  1  0.88702610  0.92123798  0.08228375  1  1.601442  0  0.267077  0.66191  0  4.074517  0
C  C92  1  0.88427654  0.88242601  0.88538614  1  1.536122  0  0.267893  0.661668  0  4.084898  0
Br  Br93  1  0.50391479  0.95169541  0.19389532  1  -0.046443  0  0.074945  -0.020668  0  1.585092  0
Br  Br94  1  0.16512622  0.59976936  0.76757774  1  -0.11206  0  -0.022144  -0.116488  0  1.307581  0
Br  Br95  1  0.26257407  0.54115245  0.29802539  1  -0.031087  0  0.078429  -0.013486  0  1.608005  0
N  N96  1  0.66107895  0.87537172  0.73359344  1  -1.173826  0  -0.618637  -0.656416  0  3.230623  0
N  N97  1  0.27864204  0.81042347  0.78603579  1  -1.254847  0  -0.620124  -0.649405  0  3.310431  0
N  N98  1  0.77003819  0.25195213  0.18439206  1  -1.165907  0  -0.612444  -0.644707  0  3.287002  0
N  N99  1  0.02722737  0.08175566  0.82430733  1  -1.300275  0  -0.588678  -0.603202  0  3.355731  0
O  O100  1  0.55904501  0.44423322  0.56718889  1  -1.258473  0  -0.240007  -0.602338  0  2.345645  0
O  O101  1  0.20834545  0.41443086  0.40742569  1  -1.260113  0  -0.236219  -0.58948  0  2.354705  0
O  O102  1  0.05119371  0.56544955  0.44197662  1  -1.252952  0  -0.233334  -0.586206  0  2.396572  0
O  O103  1  0.22080818  0.42868331  0.55306369  1  -1.262149  0  -0.240411  -0.609998  0  2.350732  0
O  O104  1  0.06471003  0.58604974  0.58858869  1  -1.258402  0  -0.240913  -0.604911  0  2.343796  0
O  O105  1  0.54519707  0.40459782  0.41736294  1  -1.263615  0  -0.237116  -0.59016  0  2.339233  0
O  O106  1  0.38917818  0.55007140  0.50770970  1  -1.422843  0  -0.448189  -0.983154  0  2.181135  0
O  O107  1  0.72631006  0.59409826  0.57825634  1  -1.264125  0  -0.238747  -0.600322  0  2.32794  0
O  O108  1  0.71541661  0.54875666  0.42574905  1  -1.245769  0  -0.231041  -0.575458  0  2.334677  0
O  O109  1  0.88487261  0.44889615  0.49209745  1  -1.421029  0  -0.4493  -0.986404  0  2.196224  0
O  O110  1  0.23389842  0.09538500  0.07826923  1  -1.271209  0  -0.241786  -0.607585  0  2.332571  0
O  O111  1  0.55275009  0.06803987  0.93958842  1  -1.267044  0  -0.241632  -0.594159  0  2.334475  0
O  O112  1  0.71709254  0.91953581  0.90361504  1  -1.259222  0  -0.234283  -0.584184  0  2.310855  0
O  O113  1  0.57256782  0.08707670  0.08560920  1  -1.26593  0  -0.240434  -0.607774  0  2.38019  0
O  O114  1  0.72697172  0.92922574  0.05016076  1  -1.259096  0  -0.239593  -0.60942  0  2.391593  0
O  O115  1  0.21947140  0.04301328  0.92620363  1  -1.267786  0  -0.235265  -0.591504  0  2.398837  0
O  O116  1  0.39237804  0.94794163  0.99195463  1  -1.43393  0  -0.449548  -0.986198  0  2.181305  0
O  O117  1  0.06152106  0.94740503  0.07195520  1  -1.254123  0  -0.239799  -0.601163  0  2.339137  0
O  O118  1  0.04540245  0.90181804  0.92310929  1  -1.266169  0  -0.232357  -0.585752  0  2.348805  0
O  O119  1  0.89631002  0.05146564  0.00778705  1  -1.433247  0  -0.452451  -0.986614  0  2.169193  0
