# generated using pymatgen
data_Mn2H35C45N7O8
_symmetry_space_group_name_H-M   'P 1'
_cell_length_a   11.77552478
_cell_length_b   11.77553297
_cell_length_c   16.48190346
_cell_angle_alpha   69.61749090
_cell_angle_beta   69.61764231
_cell_angle_gamma   80.54395047
_symmetry_Int_Tables_number   1
_chemical_formula_structural   Mn2H35C45N7O8
_chemical_formula_sum   'Mn4 H70 C90 N14 O16'
_cell_volume   2005.79886961
_cell_formula_units_Z   2
loop_
 _symmetry_equiv_pos_site_id
 _symmetry_equiv_pos_as_xyz
  1  'x, y, z'
loop_
 _atom_site_type_symbol
 _atom_site_label
 _atom_site_symmetry_multiplicity
 _atom_site_fract_x
 _atom_site_fract_y
 _atom_site_fract_z
 _atom_site_occupancy
 _atom_site_pbe_bader_charge
 _atom_site_pbe_bader_spin_density
 _atom_site_pbe_cm5_charge
 _atom_site_pbe_ddec_charge
 _atom_site_pbe_ddec_spin_density
 _atom_site_pbe_ddec_sum_bond_order
 _atom_site_pbe_magmom
Mn  Mn0  1  0.61906842  0.83945573  0.04471068  1  1.485242  4.55565  0.600143  0.880628  4.685403  2.346332  4.466
Mn  Mn1  1  0.16054443  0.38093283  0.45528517  1  1.48513  4.555693  0.600171  0.880647  4.68545  2.346256  4.466
Mn  Mn2  1  0.38093765  0.16054159  0.95528559  1  1.485379  4.555616  0.60015  0.880556  4.685418  2.346477  4.466
Mn  Mn3  1  0.83945887  0.61906191  0.54471421  1  1.485379  4.555621  0.600145  0.880583  4.68542  2.346395  4.466
H  H4  1  0.16325061  0.41785487  0.03851688  1  0.497075  0.000319  0.296671  0.262771  -0.000136  1.011844  0.0
H  H5  1  0.58214577  0.83675061  0.46148125  1  0.497038  0.000319  0.296698  0.262801  -0.000136  1.011809  0.0
H  H6  1  0.83675086  0.58214444  0.96148488  1  0.497027  0.000319  0.29667  0.262772  -0.000136  1.011833  0.0
H  H7  1  0.41785580  0.16325240  0.53851534  1  0.497031  0.000319  0.296703  0.262819  -0.000136  1.011776  0.0
H  H8  1  0.80660790  0.67287422  0.27613767  1  0.097428  0.000455  0.098777  0.100055  -0.000115  1.080318  0.0
H  H9  1  0.32712587  0.19338905  0.22385896  1  0.097771  0.000455  0.098783  0.100068  -0.000115  1.08033  0.0
H  H10  1  0.19339182  0.32712885  0.72386178  1  0.097454  0.000455  0.098748  0.099999  -0.000115  1.080408  0.0
H  H11  1  0.67287392  0.80660961  0.77613485  1  0.097459  0.000455  0.098772  0.10004  -0.000115  1.080313  0.0
H  H12  1  0.33175231  0.34187446  0.07608999  1  0.117679  0.000586  0.119539  0.110168  0.00013  1.001994  0.0
H  H13  1  0.65812484  0.66824674  0.42391105  1  0.117658  0.000585  0.119538  0.110178  0.00013  1.001973  0.0
H  H14  1  0.66825097  0.65812385  0.92391096  1  0.117613  0.000586  0.119546  0.110188  0.000131  1.001997  0.0
H  H15  1  0.34187575  0.33175445  0.57608986  1  0.117687  0.000586  0.119556  0.110181  0.00013  1.001972  0.0
H  H16  1  0.25875747  0.35173569  0.18686459  1  0.087871  0.000374  0.106569  0.090349  -6.7e-05  1.025865  0.0
H  H17  1  0.64826442  0.74124372  0.31313445  1  0.08786  0.000374  0.106555  0.090336  -6.8e-05  1.025887  0.0
H  H18  1  0.74124401  0.64826364  0.81313656  1  0.087707  0.000374  0.106589  0.090404  -6.7e-05  1.02582  0.0
H  H19  1  0.35173619  0.25875569  0.68686506  1  0.087873  0.000374  0.106566  0.090339  -6.7e-05  1.02588  0.0
H  H20  1  0.97730095  0.55502465  0.04039803  1  0.038274  0.000465  0.09934  0.104005  0.000164  1.047595  0.0
H  H21  1  0.44497538  0.02270376  0.45959946  1  0.03863  0.000465  0.099365  0.104059  0.000164  1.047598  0.0
H  H22  1  0.02270234  0.44497277  0.95960253  1  0.038627  0.000465  0.099366  0.104054  0.000164  1.047572  0.0
H  H23  1  0.55502441  0.97730118  0.54039649  1  0.038206  0.000465  0.09937  0.104029  0.000164  1.047552  0.0
H  H24  1  0.15050528  0.47580797  0.24809444  1  0.11402  1.7e-05  0.108287  0.121802  -0.000265  1.044592  0.0
H  H25  1  0.52419846  0.84949520  0.25190362  1  0.113956  1.7e-05  0.108283  0.121827  -0.000265  1.044506  0.0
H  H26  1  0.84949718  0.52419766  0.75190373  1  0.114051  1.7e-05  0.108281  0.121802  -0.000264  1.044519  0.0
H  H27  1  0.47580487  0.15050405  0.74809527  1  0.114068  1.7e-05  0.108247  0.121721  -0.000264  1.044575  0.0
H  H28  1  0.45818400  0.39645525  0.18790516  1  0.089562  0.000597  0.106991  0.119874  0.00016  1.022182  0.0
H  H29  1  0.60354101  0.54182003  0.31209062  1  0.089521  0.000597  0.106994  0.1199  0.00016  1.022158  0.0
H  H30  1  0.54181571  0.60354512  0.81209434  1  0.089535  0.000597  0.106995  0.119871  0.00016  1.022175  0.0
H  H31  1  0.39645783  0.45818402  0.68790759  1  0.089539  0.000597  0.106999  0.119899  0.00016  1.022165  0.0
H  H32  1  0.28106279  0.64232154  0.99990071  1  0.106757  0.000569  0.103452  0.112175  0.000319  1.014893  0.0
H  H33  1  0.35767687  0.71893651  0.50009847  1  0.106749  0.000569  0.103461  0.112167  0.000319  1.014907  0.0
H  H34  1  0.71893690  0.35767881  0.00009940  1  0.106726  0.000569  0.103448  0.112136  0.000319  1.014934  0.0
H  H35  1  0.64232280  0.28106293  0.49990247  1  0.106742  0.000569  0.103454  0.112171  0.000319  1.014928  0.0
H  H36  1  0.58295257  0.56501932  0.15847877  1  0.100799  0.001056  0.114346  0.082018  0.000475  1.044605  0.001
H  H37  1  0.43497790  0.41705100  0.34151867  1  0.100839  0.001056  0.114384  0.082093  0.000475  1.044538  0.001
H  H38  1  0.41704442  0.43498031  0.84152095  1  0.100802  0.001056  0.114346  0.082015  0.000475  1.044558  0.001
H  H39  1  0.56502187  0.58295481  0.65847828  1  0.100784  0.001056  0.114378  0.082051  0.000475  1.044603  0.001
H  H40  1  0.41477174  0.80206055  0.97668287  1  0.086006  0.001527  0.115122  0.081308  0.000717  1.01148  0.001
H  H41  1  0.19794149  0.58522638  0.52331631  1  0.08601  0.001527  0.115144  0.081312  0.000717  1.011542  0.001
H  H42  1  0.58522612  0.19794080  0.02331865  1  0.085989  0.001527  0.115165  0.081354  0.000717  1.011513  0.001
H  H43  1  0.80205821  0.41477399  0.47668319  1  0.086016  0.001527  0.115158  0.081324  0.000717  1.011484  0.001
H  H44  1  0.74266740  0.92550283  0.15115671  1  0.112328  0.000946  0.116605  0.088849  0.000369  1.017793  0.0
H  H45  1  0.07450021  0.25732897  0.34884451  1  0.112307  0.000946  0.11659  0.088834  0.000369  1.017823  0.0
H  H46  1  0.25733323  0.07449571  0.84884118  1  0.112319  0.000946  0.116587  0.088817  0.000369  1.017791  0.0
H  H47  1  0.92550115  0.74266844  0.65116319  1  0.11221  0.000946  0.116569  0.088794  0.000369  1.017834  0.0
H  H48  1  0.98162777  0.21331368  0.96824543  1  0.086104  0.000113  0.104482  0.104433  -8.4e-05  1.025489  0.0
H  H49  1  0.78668596  0.01837180  0.53175388  1  0.086098  0.000113  0.104489  0.104443  -8.4e-05  1.025493  0.0
H  H50  1  0.01837379  0.78668214  0.03174985  1  0.085996  0.000113  0.10452  0.104478  -8.4e-05  1.025479  0.0
H  H51  1  0.21331992  0.98162265  0.46825223  1  0.085996  0.000113  0.104553  0.104459  -8.4e-05  1.02552  0.0
H  H52  1  0.75591730  0.05738193  0.88093908  1  0.097273  0.001233  0.11723  0.084199  0.000313  1.02561  0.0
H  H53  1  0.94262045  0.24407871  0.61906098  1  0.097628  0.001232  0.117262  0.084293  0.000312  1.025641  0.0
H  H54  1  0.24407613  0.94262156  0.11905875  1  0.097711  0.001232  0.117251  0.084261  0.000313  1.025652  0.0
H  H55  1  0.05737999  0.75591964  0.38094732  1  0.097434  0.001232  0.117257  0.084295  0.000313  1.025694  0.0
H  H56  1  0.89539848  0.06942033  0.12495262  1  0.094171  0.000437  0.094336  0.090481  0.000219  1.097172  0.0
H  H57  1  0.93058038  0.10460025  0.37504836  1  0.094228  0.000437  0.094364  0.090544  0.000219  1.097155  0.0
H  H58  1  0.10460668  0.93057614  0.87504407  1  0.094126  0.000437  0.094344  0.090548  0.000219  1.097211  0.0
H  H59  1  0.06942372  0.89539702  0.62495750  1  0.094176  0.000437  0.09435  0.090528  0.000219  1.097173  0.0
H  H60  1  0.90929241  0.20859654  0.84324311  1  0.098827  0.000644  0.105059  0.110254  0.000315  1.015186  0.0
H  H61  1  0.79140349  0.09070582  0.65675697  1  0.098827  0.000644  0.105048  0.110184  0.000315  1.015223  0.0
H  H62  1  0.09070552  0.79140306  0.15675457  1  0.099043  0.000644  0.10502  0.110195  0.000315  1.015226  0.0
H  H63  1  0.20859879  0.90928975  0.34324912  1  0.099306  0.000644  0.104987  0.110172  0.000315  1.015098  0.0
H  H64  1  0.96084640  0.30758417  0.16810436  1  0.092475  8e-05  0.106678  0.111405  4.3e-05  1.030022  0.0
H  H65  1  0.69241208  0.03914589  0.33189603  1  0.092374  8e-05  0.106673  0.111396  4.3e-05  1.029966  0.0
H  H66  1  0.03914244  0.69242043  0.83189733  1  0.092475  8e-05  0.106694  0.111442  4.3e-05  1.030032  0.0
H  H67  1  0.30758124  0.96085302  0.66810595  1  0.092447  8e-05  0.106658  0.111367  4.3e-05  1.030037  0.0
H  H68  1  0.07119679  0.92880034  0.25000242  1  0.060248  7.5e-05  0.105556  0.095384  -1e-06  1.02133  0.0
H  H69  1  0.92879930  0.07120563  0.74999842  1  0.060187  7.5e-05  0.105534  0.095327  -1e-06  1.021288  0.0
H  H70  1  0.12467257  0.14365385  0.16635719  1  0.113353  8.5e-05  0.112524  0.124674  -0.000286  0.995787  0.0
H  H71  1  0.85634619  0.87532542  0.33364331  1  0.113268  8.5e-05  0.112488  0.124604  -0.000286  0.995861  0.0
H  H72  1  0.87531994  0.85635418  0.83364220  1  0.113268  8.5e-05  0.112482  0.124623  -0.000286  0.995784  0.0
H  H73  1  0.14365170  0.12467864  0.66635755  1  0.113233  8.5e-05  0.112479  0.124578  -0.000286  0.995848  0.0
C  C74  1  0.97753363  0.57179463  0.27117191  1  0.003044  0.00142  -0.027239  -0.034681  8.8e-05  4.038287  0.0
C  C75  1  0.42820614  0.02246753  0.22882685  1  0.003159  0.001419  -0.027186  -0.034661  8.8e-05  4.03832  0.0
C  C76  1  0.02247331  0.42820709  0.72882734  1  0.003347  0.001418  -0.027254  -0.034793  8.8e-05  4.038415  0.0
C  C77  1  0.57179444  0.97752557  0.77117236  1  0.003385  0.001418  -0.027261  -0.034866  8.8e-05  4.038392  0.0
C  C78  1  0.87997879  0.62427009  0.23832022  1  -0.081066  0.007674  -0.103208  -0.156888  0.005563  3.973194  0.005
C  C79  1  0.37573139  0.12002128  0.26167605  1  -0.081624  0.007673  -0.103247  -0.1569  0.005563  3.97343  0.005
C  C80  1  0.12002182  0.37573292  0.76167963  1  -0.081165  0.007673  -0.103206  -0.156817  0.005562  3.973384  0.005
C  C81  1  0.62427020  0.87997726  0.73831858  1  -0.081111  0.007673  -0.103214  -0.156802  0.005563  3.973277  0.005
C  C82  1  0.27988462  0.40420264  0.11385631  1  0.317014  0.000451  -0.055666  -0.077816  0.000293  3.93915  0.0
C  C83  1  0.59579778  0.72011998  0.38614301  1  0.317065  0.000451  -0.055636  -0.077786  0.000293  3.939167  0.0
C  C84  1  0.72011596  0.59579495  0.88614426  1  0.317286  0.000451  -0.055698  -0.077916  0.000293  3.939309  0.0
C  C85  1  0.40420375  0.27988388  0.61385642  1  0.317023  0.000451  -0.05566  -0.077751  0.000293  3.939137  0.0
C  C86  1  0.97658320  0.55558313  0.10651451  1  0.02829  0.006863  -0.102806  -0.225286  0.005328  3.961217  0.004
C  C87  1  0.44441745  0.02341559  0.39348367  1  0.027889  0.006864  -0.102822  -0.225378  0.005329  3.961264  0.004
C  C88  1  0.02341557  0.44441636  0.89348664  1  0.028288  0.006863  -0.10279  -0.225304  0.005328  3.961161  0.004
C  C89  1  0.55558413  0.97658653  0.60651253  1  0.028346  0.006863  -0.102824  -0.225229  0.005328  3.961128  0.004
C  C90  1  0.07587509  0.50249131  0.13829651  1  0.425605  -0.000495  0.098078  0.236905  -0.000635  4.108728  -0.001
C  C91  1  0.49751071  0.92412493  0.36170323  1  0.425571  -0.000494  0.098102  0.236987  -0.000635  4.108686  -0.001
C  C92  1  0.92412823  0.49750973  0.86170316  1  0.425561  -0.000494  0.098064  0.236942  -0.000634  4.108708  -0.001
C  C93  1  0.50249084  0.07587536  0.63829402  1  0.425561  -0.000494  0.098094  0.236835  -0.000634  4.108685  -0.001
C  C94  1  0.88022222  0.61672373  0.15524099  1  -0.02929  -0.001143  -0.024944  -0.020859  -0.002021  4.034116  -0.002
C  C95  1  0.38327768  0.11977953  0.34475308  1  -0.028753  -0.001144  -0.024919  -0.020878  -0.002022  4.034107  -0.002
C  C96  1  0.11978110  0.38327372  0.84475773  1  -0.029627  -0.001143  -0.024944  -0.020923  -0.002022  4.034114  -0.002
C  C97  1  0.61672576  0.88022252  0.65524026  1  -0.029369  -0.001143  -0.024937  -0.020936  -0.002021  4.034167  -0.002
C  C98  1  0.35862319  0.50537694  0.09581832  1  -0.052852  0.005558  0.013102  0.144083  0.00418  3.919715  0.003
C  C99  1  0.49461856  0.64137964  0.40418076  1  -0.053048  0.005557  0.013109  0.143984  0.004179  3.919755  0.003
C  C100  1  0.64137915  0.49462139  0.90418467  1  -0.053377  0.005558  0.013133  0.144114  0.00418  3.919756  0.003
C  C101  1  0.50537932  0.35862172  0.59581954  1  -0.053154  0.005558  0.013125  0.144038  0.00418  3.919832  0.003
C  C102  1  0.07519860  0.51300480  0.22130478  1  -0.102259  0.007037  -0.0986  -0.216053  0.005306  3.919312  0.004
C  C103  1  0.48699793  0.92480080  0.27869493  1  -0.102191  0.007038  -0.098663  -0.216125  0.005306  3.919137  0.004
C  C104  1  0.92480386  0.48700083  0.77869339  1  -0.102209  0.007038  -0.098641  -0.216065  0.005307  3.919143  0.004
C  C105  1  0.51300085  0.07519601  0.72130504  1  -0.102159  0.007038  -0.098569  -0.21584  0.005307  3.918968  0.004
C  C106  1  0.78354355  0.68357278  0.11372903  1  1.515207  0.007129  0.201912  0.549191  0.008515  4.210098  0.005
C  C107  1  0.31642809  0.21645723  0.38626889  1  1.515189  0.007131  0.201855  0.549124  0.008515  4.210085  0.005
C  C108  1  0.21645699  0.31642387  0.88627358  1  1.515442  0.007132  0.201884  0.549234  0.008515  4.209858  0.005
C  C109  1  0.68357442  0.78354574  0.61372627  1  1.515211  0.007129  0.201875  0.549195  0.008513  4.210001  0.005
C  C110  1  0.44562309  0.48481608  0.14006891  1  0.015632  -9.2e-05  -0.083022  -0.174175  -0.000687  3.934034  0.0
C  C111  1  0.51518075  0.55438155  0.35992831  1  0.015707  -9.1e-05  -0.083014  -0.174133  -0.000687  3.934028  0.0
C  C112  1  0.55438020  0.51518582  0.85993299  1  0.016008  -9.2e-05  -0.082992  -0.174175  -0.000687  3.933892  0.0
C  C113  1  0.48481808  0.44561890  0.64006956  1  0.015907  -9.2e-05  -0.082997  -0.174178  -0.000687  3.934107  0.0
C  C114  1  0.97965723  0.57975733  0.35978549  1  1.548949  0.02751  0.220816  0.581981  0.026932  4.177056  0.024
C  C115  1  0.42024771  0.02033670  0.14021276  1  1.549079  0.027511  0.220832  0.582021  0.026934  4.177226  0.024
C  C116  1  0.02034613  0.42025363  0.64021422  1  1.548667  0.027509  0.220819  0.582116  0.02693  4.177034  0.024
C  C117  1  0.57975107  0.97965293  0.85978529  1  1.548695  0.027511  0.220807  0.582104  0.026931  4.177015  0.024
C  C118  1  0.34760512  0.62149677  0.03593325  1  -0.032607  -7.1e-05  -0.088632  -0.183361  -0.000544  3.965565  0.0
C  C119  1  0.37849922  0.65239687  0.46406579  1  -0.03246  -7.1e-05  -0.08863  -0.183266  -0.000544  3.965692  0.0
C  C120  1  0.65239455  0.37850266  0.96406830  1  -0.032473  -7.1e-05  -0.088611  -0.18326  -0.000545  3.965577  0.0
C  C121  1  0.62149867  0.34760270  0.53593372  1  -0.032444  -7.1e-05  -0.088665  -0.183391  -0.000544  3.965595  0.0
C  C122  1  0.51567440  0.57909136  0.12400244  1  0.478576  0.006422  0.048008  0.096147  0.005277  3.945231  0.004
C  C123  1  0.42090488  0.48432810  0.37599541  1  0.478608  0.006421  0.047988  0.096086  0.005276  3.945259  0.004
C  C124  1  0.48432615  0.42090710  0.87599973  1  0.47872  0.006423  0.047953  0.096125  0.005278  3.945021  0.004
C  C125  1  0.57909486  0.51567499  0.62400281  1  0.478473  0.006423  0.047971  0.09617  0.005278  3.94509  0.004
C  C126  1  0.42151206  0.71091251  0.02325388  1  0.479347  0.007245  0.046507  0.096093  0.005705  3.959156  0.005
C  C127  1  0.28908583  0.57849068  0.47674502  1  0.479336  0.007243  0.046462  0.096028  0.005703  3.959458  0.005
C  C128  1  0.57848939  0.28908588  0.97674871  1  0.479634  0.007246  0.046404  0.095957  0.005706  3.959306  0.005
C  C129  1  0.71091390  0.42151151  0.52325343  1  0.479275  0.007246  0.046474  0.096112  0.005705  3.959209  0.005
C  C130  1  0.78172788  0.98992616  0.08400383  1  0.448362  0.006771  0.046667  0.087232  0.005211  3.93453  0.004
C  C131  1  0.01007537  0.21827120  0.41599950  1  0.448496  0.006768  0.046664  0.087236  0.005209  3.934742  0.004
C  C132  1  0.21827183  0.01007421  0.91599566  1  0.448298  0.006768  0.04666  0.087222  0.005208  3.934587  0.004
C  C133  1  0.98992516  0.78172723  0.58400390  1  0.448581  0.006766  0.046679  0.087282  0.005207  3.93465  0.004
C  C134  1  0.91459449  0.15001055  0.98176316  1  -0.049247  0.006096  -0.068305  -0.023259  0.004621  3.948095  0.004
C  C135  1  0.84998852  0.08540500  0.51823995  1  -0.049277  0.006095  -0.068326  -0.023375  0.00462  3.948073  0.004
C  C136  1  0.08540705  0.84998883  0.01823431  1  -0.049075  0.006093  -0.068374  -0.0234  0.004619  3.948155  0.004
C  C137  1  0.15001563  0.91459053  0.48176206  1  -0.048994  0.006091  -0.068349  -0.023212  0.004617  3.948221  0.004
C  C138  1  0.79042521  0.06300443  0.93261277  1  0.460564  0.007032  0.048811  0.084672  0.005595  3.959323  0.005
C  C139  1  0.93699518  0.20957376  0.56738969  1  0.460189  0.007032  0.048816  0.08461  0.005595  3.959052  0.005
C  C140  1  0.20957269  0.93699604  0.06738653  1  0.460178  0.007029  0.048788  0.084639  0.005593  3.959255  0.005
C  C141  1  0.06300444  0.79042651  0.43261470  1  0.460503  0.00703  0.048747  0.084547  0.005594  3.959239  0.005
C  C142  1  0.86636222  0.07054420  0.06906913  1  -0.015801  -0.000173  -0.090886  -0.132217  -0.000645  3.995103  0.0
C  C143  1  0.92945932  0.13363722  0.43092734  1  -0.015924  -0.000173  -0.090871  -0.132191  -0.000645  3.99479  0.0
C  C144  1  0.13363937  0.92945523  0.93092589  1  -0.015805  -0.000173  -0.090806  -0.132131  -0.000644  3.994922  0.0
C  C145  1  0.07054844  0.86636256  0.56907643  1  -0.016079  -0.000172  -0.090932  -0.132314  -0.000643  3.994563  0.0
C  C146  1  0.87501785  0.14676780  0.91221523  1  -0.027117  -0.000545  -0.084287  -0.130243  -0.000987  3.983285  -0.001
C  C147  1  0.85323297  0.12498080  0.58778157  1  -0.027139  -0.000544  -0.084314  -0.130156  -0.000986  3.983443  -0.001
C  C148  1  0.12498192  0.85323263  0.08778059  1  -0.027353  -0.000544  -0.084311  -0.130261  -0.000986  3.983369  -0.001
C  C149  1  0.14676934  0.87501840  0.41222365  1  -0.027554  -0.000543  -0.084267  -0.130256  -0.000985  3.98358  -0.001
C  C150  1  0.72375774  0.27623216  0.24999933  1  0.827677  8.1e-05  0.19089  0.247173  5.3e-05  4.001704  0.0
C  C151  1  0.27623289  0.72376334  0.75000109  1  0.828915  8.1e-05  0.191088  0.247474  5.2e-05  4.002427  0.0
C  C152  1  0.93902509  0.21290055  0.20320376  1  0.022427  0.000113  -0.070548  -0.099748  4.7e-05  3.916305  0.0
C  C153  1  0.78709591  0.06096652  0.29679622  1  0.022532  0.000113  -0.070558  -0.099765  4.7e-05  3.916126  0.0
C  C154  1  0.06096827  0.78709928  0.79679679  1  0.022515  0.000113  -0.070628  -0.099843  4.7e-05  3.916378  0.0
C  C155  1  0.21290374  0.93903200  0.70320555  1  0.022449  0.000113  -0.07055  -0.099649  4.7e-05  3.916283  0.0
C  C156  1  0.99976158  0.00023546  0.25000213  1  0.057697  0.000235  -0.078657  -0.080212  0.000144  3.996547  0.0
C  C157  1  0.00023899  0.99976481  0.74999961  1  0.057771  0.000235  -0.078637  -0.080159  0.000144  3.996375  0.0
C  C158  1  0.03022219  0.12103776  0.20313343  1  -0.084063  8.8e-05  -0.079331  -0.073141  -2e-06  3.954124  0.0
C  C159  1  0.87895955  0.96977151  0.29686808  1  -0.084159  8.8e-05  -0.079298  -0.073054  -2e-06  3.954089  0.0
C  C160  1  0.96977114  0.87896206  0.79686834  1  -0.084111  8.8e-05  -0.079233  -0.073003  -2e-06  3.954004  0.0
C  C161  1  0.12104465  0.03022946  0.70313262  1  -0.084124  8.8e-05  -0.079292  -0.073049  -2e-06  3.95404  0.0
C  C162  1  0.81732284  0.18266974  0.24999999  1  -0.056806  7.7e-05  0.002771  0.039654  6.3e-05  4.111809  0.0
C  C163  1  0.18266691  0.81733391  0.75000111  1  -0.056972  7.7e-05  0.00281  0.039444  6.3e-05  4.111891  0.0
N  N164  1  0.17111999  0.44506306  0.08876017  1  -1.272593  -4.5e-05  -0.445555  -0.335845  -0.000295  3.595983  0.0
N  N165  1  0.55493576  0.82887957  0.41123999  1  -1.272622  -4.5e-05  -0.445619  -0.335917  -0.000295  3.59611  0.0
N  N166  1  0.82887877  0.55493553  0.91124119  1  -1.272554  -4.5e-05  -0.445562  -0.335871  -0.000295  3.596045  0.0
N  N167  1  0.44506398  0.17112352  0.58875823  1  -1.272607  -4.5e-05  -0.445611  -0.335915  -0.000295  3.595985  0.0
N  N168  1  0.50434468  0.69132246  0.06668245  1  -1.299241  0.048747  -0.324376  -0.252133  0.031274  3.50848  0.014
N  N169  1  0.30867671  0.49566025  0.43331703  1  -1.29933  0.048747  -0.324401  -0.252144  0.031273  3.508629  0.014
N  N170  1  0.49565768  0.30867410  0.93331914  1  -1.299572  0.048748  -0.324308  -0.252049  0.031272  3.508436  0.014
N  N171  1  0.69132485  0.50434274  0.56668079  1  -1.299263  0.048749  -0.324382  -0.252176  0.031275  3.508432  0.014
N  N172  1  0.74460401  0.98475393  0.01670701  1  -1.267025  0.046408  -0.317127  -0.249195  0.03049  3.499623  0.014
N  N173  1  0.01524812  0.25539371  0.48328982  1  -1.266998  0.04641  -0.317143  -0.249215  0.030492  3.499586  0.014
N  N174  1  0.25539213  0.01524582  0.98328924  1  -1.266972  0.04641  -0.317106  -0.249161  0.030493  3.499689  0.014
N  N175  1  0.98475058  0.74460750  0.51671579  1  -1.267134  0.04641  -0.317018  -0.249089  0.030491  3.499694  0.014
N  N176  1  0.64706741  0.35292329  0.24999967  1  -1.159504  0.000238  -0.286735  -0.352094  3.1e-05  2.829199  0.0
N  N177  1  0.35291147  0.64708280  0.75000345  1  -1.160565  0.000238  -0.286962  -0.352267  3.1e-05  2.830066  0.0
O  O178  1  0.89067340  0.63733139  0.40262908  1  -1.197016  0.074044  -0.311042  -0.55724  0.051915  2.323126  0.035
O  O179  1  0.36267441  0.10932206  0.09736787  1  -1.196948  0.074055  -0.311015  -0.557214  0.051916  2.323255  0.035
O  O180  1  0.10932996  0.36267776  0.59737045  1  -1.196909  0.074044  -0.31102  -0.557266  0.051918  2.322989  0.035
O  O181  1  0.63732712  0.89066744  0.90262773  1  -1.196965  0.074038  -0.311031  -0.557276  0.051917  2.323038  0.035
O  O182  1  0.69176077  0.73378131  0.16077905  1  -1.189645  0.052343  -0.310741  -0.553578  0.036867  2.251061  0.026
O  O183  1  0.26621554  0.30823915  0.33922112  1  -1.189568  0.052347  -0.31071  -0.553519  0.036869  2.251024  0.026
O  O184  1  0.30823976  0.26621264  0.83922300  1  -1.189716  0.052382  -0.310701  -0.553545  0.03687  2.250923  0.026
O  O185  1  0.73378328  0.69176219  0.66077775  1  -1.189771  0.052383  -0.310739  -0.553595  0.03687  2.251014  0.026
O  O186  1  0.79623594  0.69389791  0.03136688  1  -1.199688  0.041082  -0.313639  -0.564955  0.029829  2.189377  0.023
O  O187  1  0.30610434  0.20376150  0.46863152  1  -1.199716  0.041081  -0.31362  -0.564936  0.029828  2.189308  0.023
O  O188  1  0.20376646  0.30610137  0.96863344  1  -1.199738  0.041084  -0.313646  -0.564972  0.029826  2.189347  0.023
O  O189  1  0.69389900  0.79623598  0.53136598  1  -1.199786  0.041084  -0.313642  -0.564958  0.029824  2.189315  0.023
O  O190  1  0.07009861  0.53151075  0.38737002  1  -1.223324  0.076992  -0.317001  -0.570028  0.054936  2.386519  0.035
O  O191  1  0.46849042  0.92989311  0.11263310  1  -1.223768  0.077035  -0.317025  -0.570087  0.054937  2.386721  0.035
O  O192  1  0.92990656  0.46849739  0.61262933  1  -1.223486  0.077011  -0.316977  -0.570043  0.05494  2.386651  0.035
O  O193  1  0.53150647  0.07009385  0.88736908  1  -1.223397  0.077  -0.31699  -0.570047  0.05494  2.38654  0.035
