# generated using pymatgen
data_P2H15Pb2C8NO6
_symmetry_space_group_name_H-M   'P 1'
_cell_length_a   6.93597098
_cell_length_b   7.05805925
_cell_length_c   14.56448188
_cell_angle_alpha   84.68353794
_cell_angle_beta   81.86639611
_cell_angle_gamma   89.49397319
_symmetry_Int_Tables_number   1
_chemical_formula_structural   P2H15Pb2C8NO6
_chemical_formula_sum   'P4 H30 Pb4 C16 N2 O12'
_cell_volume   702.78170657
_cell_formula_units_Z   2
loop_
 _symmetry_equiv_pos_site_id
 _symmetry_equiv_pos_as_xyz
  1  'x, y, z'
loop_
 _atom_site_type_symbol
 _atom_site_label
 _atom_site_symmetry_multiplicity
 _atom_site_fract_x
 _atom_site_fract_y
 _atom_site_fract_z
 _atom_site_occupancy
 _atom_site_hle17_bader_spin_density
 _atom_site_hle17_ddec_charge
 _atom_site_hle17_ddec_spin_density
 _atom_site_hle17_ddec_sum_bond_order
 _atom_site_hle17_magmom
 _atom_site_hse06_10hf_bader_spin_density
 _atom_site_hse06_10hf_ddec_charge
 _atom_site_hse06_10hf_ddec_spin_density
 _atom_site_hse06_10hf_ddec_sum_bond_order
 _atom_site_hse06_10hf_magmom
 _atom_site_hse06_bader_spin_density
 _atom_site_hse06_ddec_charge
 _atom_site_hse06_ddec_spin_density
 _atom_site_hse06_ddec_sum_bond_order
 _atom_site_hse06_magmom
 _atom_site_pbe_bader_spin_density
 _atom_site_pbe_cm5_charge
 _atom_site_pbe_ddec_charge
 _atom_site_pbe_ddec_spin_density
 _atom_site_pbe_ddec_sum_bond_order
 _atom_site_pbe_magmom
P  P0  1  0.61655295  0.15447485  0.10476969  1  0  1.471269  0  4.851619  0  0  1.305802  0  5.351717  0  0  1.357657  0  5.316967  0  0  0.351347  1.269614  0  5.374533  0
P  P1  1  0.38348187  0.84552920  0.89522872  1  0  1.471719  0  4.851446  0  0  1.306195  0  5.3516  0  0  1.358067  0  5.316817  0  0  0.351503  1.270003  0  5.374422  0
P  P2  1  0.92190376  0.63451505  0.15271900  1  0  1.477495  0  4.923882  0  0  1.316512  0  5.429007  0  0  1.368398  0  5.392585  0  0  0.32535  1.280337  0  5.453057  0
P  P3  1  0.07808273  0.36547197  0.84727124  1  0  1.477516  0  4.923897  0  0  1.316535  0  5.429047  0  0  1.368426  0  5.3926  0  0  0.325284  1.280347  0  5.453106  0
H  H4  1  0.41566519  0.51760398  0.35035064  1  0  0.033559  0  0.912475  0  0  0.050564  0  0.970059  0  0  0.050268  0  0.970781  0  0  0.105035  0.050638  0  0.969758  0
H  H5  1  0.58434608  0.48235882  0.64964922  1  0  0.033484  0  0.912614  0  0  0.050433  0  0.970218  0  0  0.050136  0  0.970944  0  0  0.104992  0.050506  0  0.969915  0
H  H6  1  0.58340793  0.12434280  0.39911828  1  0  0.063788  0  0.963027  0  0  0.082889  0  1.026343  0  0  0.083365  0  1.026758  0  0  0.088879  0.082455  0  1.026208  0
H  H7  1  0.41659755  0.87560719  0.60088805  1  0  0.063693  0  0.963356  0  0  0.082763  0  1.026654  0  0  0.08327  0  1.027037  0  0  0.088847  0.082329  0  1.026507  0
H  H8  1  0.67138113  0.33960849  0.42986724  1  0  0.062954  0  0.965805  0  0  0.0783  0  1.034387  0  0  0.079572  0  1.03371  0  0  0.086267  0.077357  0  1.034911  0
H  H9  1  0.32862734  0.66033580  0.57014600  1  0  0.062862  0  0.965834  0  0  0.078174  0  1.034412  0  0  0.079466  0  1.033727  0  0  0.086211  0.0772  0  1.034962  0
H  H10  1  0.44314767  0.18011537  0.56130713  1  0  0.054083  0  0.948913  0  0  0.072731  0  1.011947  0  0  0.073932  0  1.011213  0  0  0.084196  0.071725  0  1.012689  0
H  H11  1  0.55682306  0.81987591  0.43869983  1  0  0.054037  0  0.948967  0  0  0.07264  0  1.012085  0  0  0.073869  0  1.01132  0  0  0.084233  0.071644  0  1.012821  0
H  H12  1  0.34734584  0.39930995  0.52139868  1  0  0.055926  0  0.963513  0  0  0.076223  0  1.026361  0  0  0.076321  0  1.027763  0  0  0.085803  0.076099  0  1.025424  0
H  H13  1  0.65266270  0.60072402  0.47858653  1  0  0.055968  0  0.963503  0  0  0.076191  0  1.026456  0  0  0.076286  0  1.027863  0  0  0.085788  0.076041  0  1.025558  0
H  H14  1  0.08760371  0.15587323  0.54532065  1  0  0.065199  0  0.931134  0  0  0.086513  0  0.98597  0  0  0.087499  0  0.985918  0  0  0.089588  0.085743  0  0.986114  0
H  H15  1  0.91235856  0.84422337  0.45466573  1  0  0.065053  0  0.931226  0  0  0.086501  0  0.985935  0  0  0.087448  0  0.985929  0  0  0.089511  0.085727  0  0.986092  0
H  H16  1  0.23170369  0.00731652  0.47197785  1  0  0.058141  0  0.939206  0  0  0.080137  0  0.997775  0  0  0.080202  0  0.999153  0  0  0.0876  0.080004  0  0.996924  0
H  H17  1  0.76820460  0.99269471  0.52803744  1  0  0.058108  0  0.939296  0  0  0.080074  0  0.997928  0  0  0.08014  0  0.9993  0  0  0.087545  0.079941  0  0.997081  0
H  H18  1  0.07229256  0.39951226  0.41275119  1  0  0.050889  0  0.933544  0  0  0.071383  0  0.993228  0  0  0.072327  0  0.992762  0  0  0.083444  0.070614  0  0.993668  0
H  H19  1  0.92780771  0.60055867  0.58721214  1  0  0.050919  0  0.933613  0  0  0.071432  0  0.993204  0  0  0.072383  0  0.99273  0  0  0.08343  0.070661  0  0.993649  0
H  H20  1  0.99595881  0.17825053  0.38253780  1  0  0.064305  0  0.941918  0  0  0.082808  0  1.003494  0  0  0.08331  0  1.00441  0  0  0.089232  0.082386  0  1.002933  0
H  H21  1  0.00402818  0.82183752  0.61744721  1  0  0.064304  0  0.942076  0  0  0.082725  0  1.003673  0  0  0.083227  0  1.004595  0  0  0.0892  0.082305  0  1.003103  0
H  H22  1  0.31947680  0.12730582  0.29182147  1  0  0.082913  0  0.932034  0  0  0.103018  0  0.988807  0  0  0.104478  0  0.988372  0  0  0.094879  0.101878  0  0.989266  0
H  H23  1  0.68053754  0.87265697  0.70818778  1  0  0.082847  0  0.93182  0  0  0.102931  0  0.988603  0  0  0.104383  0  0.988166  0  0  0.09483  0.101794  0  0.989057  0
H  H24  1  0.22006117  0.34701794  0.25296721  1  0  0.066262  0  1.001563  0  0  0.079533  0  1.074181  0  0  0.080716  0  1.074428  0  0  0.091076  0.078574  0  1.074197  0
H  H25  1  0.77999632  0.65291640  0.74701417  1  0  0.066232  0  1.00174  0  0  0.079391  0  1.074505  0  0  0.080543  0  1.074756  0  0  0.091007  0.078443  0  1.074511  0
H  H26  1  0.66207328  0.10826134  0.26441984  1  0  0.112677  0  0.947521  0  0  0.127856  0  1.005467  0  0  0.130161  0  1.003911  0  0  0.111765  0.126172  0  1.006726  0
H  H27  1  0.33781872  0.89173853  0.73558407  1  0  0.112739  0  0.947484  0  0  0.127835  0  1.005505  0  0  0.13014  0  1.003952  0  0  0.111716  0.126146  0  1.006768  0
H  H28  1  0.85176328  0.24791412  0.19988626  1  0  0.101929  0  1.004938  0  0  0.118169  0  1.065116  0  0  0.119511  0  1.065455  0  0  0.115372  0.117164  0  1.065014  0
H  H29  1  0.14824095  0.75198175  0.80015347  1  0  0.102035  0  1.004714  0  0  0.118266  0  1.064942  0  0  0.119612  0  1.065273  0  0  0.115348  0.117269  0  1.064829  0
H  H30  1  0.84864531  0.49638199  0.31193735  1  0  0.095932  0  0.953255  0  0  0.110463  0  1.016546  0  0  0.1122  0  1.015912  0  0  0.09948  0.109184  0  1.017144  0
H  H31  1  0.15135939  0.50368040  0.68807090  1  0  0.095966  0  0.953278  0  0  0.110563  0  1.016485  0  0  0.112301  0  1.015843  0  0  0.099499  0.10928  0  1.017089  0
H  H32  1  0.67950721  0.67502628  0.28403254  1  0  0.104332  0  0.944411  0  0  0.118425  0  1.006642  0  0  0.120176  0  1.005869  0  0  0.109942  0.117116  0  1.007371  0
H  H33  1  0.32048949  0.32500913  0.71594040  1  0  0.1044  0  0.944439  0  0  0.11854  0  1.006621  0  0  0.120288  0  1.005844  0  0  0.110012  0.117214  0  1.007364  0
Pb  Pb34  1  0.42014376  0.63524309  0.11668987  1  0  1.40409  0  1.545548  0  0  1.223732  0  1.942146  0  0  1.278823  0  1.900062  0  0  0.658169  1.183645  0  1.971939  0
Pb  Pb35  1  0.57979496  0.36469268  0.88334174  1  0  1.403985  0  1.545379  0  0  1.223638  0  1.941977  0  0  1.278726  0  1.899881  0  0  0.65812  1.183533  0  1.971794  0
Pb  Pb36  1  0.85475945  0.85837317  0.92660444  1  0  1.466577  0  1.532565  0  0  1.300054  0  1.933841  0  0  1.35245  0  1.889352  0  0  0.663409  1.261972  0  1.965147  0
Pb  Pb37  1  0.14522431  0.14162380  0.07339447  1  0  1.466551  0  1.532587  0  0  1.30004  0  1.933875  0  0  1.352437  0  1.889386  0  0  0.663338  1.261969  0  1.965188  0
C  C38  1  0.46072570  0.37389474  0.33156081  1  0  0.113928  0  3.614019  0  0  0.100747  0  3.852247  0  0  0.103895  0  3.870361  0  0  0.000556  0.098646  0  3.839674  0
C  C39  1  0.53929726  0.62606948  0.66843953  1  0  0.113849  0  3.614421  0  0  0.100728  0  3.852335  0  0  0.103873  0  3.870449  0  0  0.000636  0.098622  0  3.839771  0
C  C40  1  0.53959407  0.26905755  0.41558603  1  0  -0.163624  0  3.670499  0  0  -0.210302  0  3.930786  0  0  -0.211868  0  3.944903  0  0  -0.17033  -0.209032  0  3.920962  0
C  C41  1  0.46041728  0.73090952  0.58441706  1  0  -0.163358  0  3.670764  0  0  -0.20993  0  3.930863  0  0  -0.211535  0  3.944994  0  0  -0.170199  -0.208631  0  3.921039  0
C  C42  1  0.38438931  0.25516079  0.50168111  1  0  -0.099423  0  3.695196  0  0  -0.140379  0  3.959027  0  0  -0.141483  0  3.974322  0  0  -0.168796  -0.13939  0  3.94836  0
C  C43  1  0.61559596  0.74484187  0.49831881  1  0  -0.099382  0  3.69516  0  0  -0.140321  0  3.958979  0  0  -0.141446  0  3.974273  0  0  -0.168832  -0.139328  0  3.948321  0
C  C44  1  0.19953122  0.15722341  0.48360339  1  0  -0.1118  0  3.695548  0  0  -0.152179  0  3.959174  0  0  -0.153193  0  3.974288  0  0  -0.167551  -0.151314  0  3.948589  0
C  C45  1  0.80044981  0.84281198  0.51639263  1  0  -0.111657  0  3.695464  0  0  -0.152168  0  3.959121  0  0  -0.153152  0  3.974221  0  0  -0.167508  -0.151306  0  3.94855  0
C  C46  1  0.12311232  0.25520596  0.39782734  1  0  -0.093944  0  3.68673  0  0  -0.132485  0  3.949752  0  0  -0.133132  0  3.964176  0  0  -0.165227  -0.131831  0  3.939614  0
C  C47  1  0.87690642  0.74482658  0.60215790  1  0  -0.094116  0  3.687029  0  0  -0.132519  0  3.949781  0  0  -0.133172  0  3.964181  0  0  -0.165189  -0.131869  0  3.939647  0
C  C48  1  0.27976784  0.27089271  0.31200700  1  0  -0.177428  0  3.667142  0  0  -0.221081  0  3.918372  0  0  -0.223725  0  3.933153  0  0  -0.16962  -0.219102  0  3.908199  0
C  C49  1  0.72026243  0.72906865  0.68799570  1  0  -0.177098  0  3.666917  0  0  -0.220786  0  3.918097  0  0  -0.223374  0  3.932878  0  0  -0.169501  -0.218818  0  3.907909  0
C  C50  1  0.69302041  0.23103230  0.21233291  1  0  -0.320267  0  3.613322  0  0  -0.352448  0  3.847134  0  0  -0.357124  0  3.856323  0  0  -0.075153  -0.349314  0  3.841067  0
C  C51  1  0.30698094  0.76895611  0.78767475  1  0  -0.320433  0  3.612946  0  0  -0.352576  0  3.84659  0  0  -0.357247  0  3.855779  0  0  -0.075143  -0.349447  0  3.840516  0
C  C52  1  0.75617210  0.54828851  0.25905236  1  0  -0.342261  0  3.670093  0  0  -0.38062  0  3.928296  0  0  -0.38475  0  3.936743  0  0  -0.084722  -0.377707  0  3.922356  0
C  C53  1  0.24384233  0.45172125  0.74094518  1  0  -0.342643  0  3.670464  0  0  -0.381102  0  3.928554  0  0  -0.385273  0  3.937092  0  0  -0.084966  -0.378176  0  3.922608  0
N  N54  1  0.60745984  0.40768154  0.24680760  1  0  -0.190206  0  3.286552  0  0  -0.104669  0  3.51653  0  0  -0.122277  0  3.543492  0  0  -0.308937  -0.092055  0  3.497367  0
N  N55  1  0.39257064  0.59231112  0.75319712  1  0  -0.190094  0  3.286658  0  0  -0.104435  0  3.516551  0  0  -0.122046  0  3.543518  0  0  -0.308895  -0.091818  0  3.497373  0
O  O56  1  0.80296794  0.11085191  0.03890396  1  0  -0.908376  0  2.031154  0  0  -0.801273  0  2.295475  0  0  -0.833583  0  2.277441  0  0  -0.332831  -0.778077  0  2.307039  0
O  O57  1  0.19702603  0.88922335  0.96106670  1  0  -0.908752  0  2.031453  0  0  -0.801409  0  2.295381  0  0  -0.833864  0  2.277623  0  0  -0.332929  -0.778173  0  2.306836  0
O  O58  1  0.47687061  0.98564124  0.13268525  1  0  -0.938279  0  2.010669  0  0  -0.842916  0  2.2791  0  0  -0.875823  0  2.263484  0  0  -0.35912  -0.819343  0  2.289299  0
O  O59  1  0.52318742  0.01432436  0.86731941  1  0  -0.93839  0  2.011002  0  0  -0.842974  0  2.27938  0  0  -0.87587  0  2.263743  0  0  -0.359019  -0.819426  0  2.289621  0
O  O60  1  0.50473350  0.32101357  0.05735925  1  0  -0.911118  0  2.062764  0  0  -0.791183  0  2.318865  0  0  -0.825996  0  2.303673  0  0  -0.326427  -0.766313  0  2.328683  0
O  O61  1  0.49517050  0.67895780  0.94267667  1  0  -0.911214  0  2.062675  0  0  -0.791262  0  2.318744  0  0  -0.826085  0  2.30357  0  0  -0.32646  -0.766322  0  2.328394  0
O  O62  1  0.02202795  0.81180984  0.17636577  1  0  -0.924142  0  1.871868  0  0  -0.840401  0  2.119989  0  0  -0.871154  0  2.104148  0  0  -0.387255  -0.818417  0  2.130256  0
O  O63  1  0.97803754  0.18819845  0.82363440  1  0  -0.923903  0  1.872756  0  0  -0.840189  0  2.120895  0  0  -0.870926  0  2.105053  0  0  -0.387085  -0.818212  0  2.131157  0
O  O64  1  0.06989326  0.47443933  0.12981068  1  0  -0.941683  0  2.008024  0  0  -0.839852  0  2.267772  0  0  -0.873175  0  2.252279  0  0  -0.363768  -0.816057  0  2.277788  0
O  O65  1  0.93011235  0.52558040  0.87017812  1  0  -0.941689  0  2.007682  0  0  -0.839851  0  2.26739  0  0  -0.873171  0  2.251899  0  0  -0.363815  -0.816058  0  2.27741  0
O  O66  1  0.78412462  0.67013410  0.07750179  1  0  -0.883621  0  1.997309  0  0  -0.776073  0  2.261125  0  0  -0.807919  0  2.243261  0  0  -0.341592  -0.753387  0  2.27281  0
O  O67  1  0.21588581  0.32991549  0.92250456  1  0  -0.883615  0  1.996657  0  0  -0.776074  0  2.260475  0  0  -0.807918  0  2.242609  0  0  -0.341568  -0.753374  0  2.272146  0
