# generated using pymatgen
data_ZnH12C17NO5
_symmetry_space_group_name_H-M   'P 1'
_cell_length_a   10.30285452
_cell_length_b   10.30086876
_cell_length_c   15.34400000
_cell_angle_alpha   75.38135542
_cell_angle_beta   75.38423576
_cell_angle_gamma   84.63723052
_symmetry_Int_Tables_number   1
_chemical_formula_structural   ZnH12C17NO5
_chemical_formula_sum   'Zn4 H48 C68 N4 O20'
_cell_volume   1523.95460578
_cell_formula_units_Z   4
loop_
 _symmetry_equiv_pos_site_id
 _symmetry_equiv_pos_as_xyz
  1  'x, y, z'
loop_
 _atom_site_type_symbol
 _atom_site_label
 _atom_site_symmetry_multiplicity
 _atom_site_fract_x
 _atom_site_fract_y
 _atom_site_fract_z
 _atom_site_occupancy
 _atom_site_hle17_bader_spin_density
 _atom_site_hle17_ddec_charge
 _atom_site_hle17_ddec_spin_density
 _atom_site_hle17_ddec_sum_bond_order
 _atom_site_hle17_magmom
 _atom_site_hse06_10hf_bader_spin_density
 _atom_site_hse06_10hf_ddec_charge
 _atom_site_hse06_10hf_ddec_spin_density
 _atom_site_hse06_10hf_ddec_sum_bond_order
 _atom_site_hse06_10hf_magmom
 _atom_site_hse06_bader_spin_density
 _atom_site_hse06_ddec_charge
 _atom_site_hse06_ddec_spin_density
 _atom_site_hse06_ddec_sum_bond_order
 _atom_site_hse06_magmom
 _atom_site_pbe_bader_charge
 _atom_site_pbe_bader_spin_density
 _atom_site_pbe_cm5_charge
 _atom_site_pbe_ddec_charge
 _atom_site_pbe_ddec_spin_density
 _atom_site_pbe_ddec_sum_bond_order
 _atom_site_pbe_magmom
Zn  Zn0  1  0.48746919  0.17818271  0.96873524  1  0  1.058811  0  1.810483  0  0  0.873065  0  2.292472  0  0  0.92383  0  2.230466  0  1.284301  0  0.692825  0.837687  0  2.334966  0
Zn  Zn1  1  0.82181585  0.51252222  0.53126229  1  0  1.058805  0  1.810629  0  0  0.873086  0  2.292618  0  0  0.923851  0  2.230616  0  1.284551  0  0.692805  0.837709  0  2.335109  0
Zn  Zn2  1  0.51253117  0.82181746  0.03126441  1  0  1.058836  0  1.810467  0  0  0.873087  0  2.292448  0  0  0.923851  0  2.230443  0  1.284393  0  0.692838  0.837708  0  2.334943  0
Zn  Zn3  1  0.17818451  0.48747795  0.46873736  1  0  1.05883  0  1.810594  0  0  0.873111  0  2.292579  0  0  0.923876  0  2.230575  0  1.284545  0  0.692801  0.837733  0  2.335069  0
H  H4  1  0.60213870  0.28547156  0.09714489  1  0  0.090014  0  0.943612  0  0  0.100014  0  1.003579  0  0  0.102301  0  1.00159  0  0.124582  0  0.121457  0.098311  0  1.004953  0
H  H5  1  0.71452460  0.39785961  0.40285774  1  0  0.089958  0  0.943764  0  0  0.099975  0  1.003722  0  0  0.102261  0  1.001736  0  0.124702  0  0.121436  0.098266  0  1.005091  0
H  H6  1  0.39786166  0.71452860  0.90285476  1  0  0.090013  0  0.943626  0  0  0.100011  0  1.003597  0  0  0.102298  0  1.001607  0  0.124577  0  0.121453  0.098308  0  1.00497  0
H  H7  1  0.28547475  0.60214056  0.59714208  1  0  0.089953  0  0.943755  0  0  0.099966  0  1.003719  0  0  0.102253  0  1.001732  0  0.124689  0  0.121437  0.098257  0  1.005088  0
H  H8  1  0.76679476  0.45851191  0.07868000  1  0  0.117608  0  0.937785  0  0  0.129566  0  0.992263  0  0  0.132551  0  0.992161  0  0.087201  0  0.111989  0.127473  0  0.992436  0
H  H9  1  0.54148514  0.23320482  0.42131966  1  0  0.117575  0  0.937833  0  0  0.129552  0  0.992284  0  0  0.132541  0  0.992176  0  0.087217  0  0.112004  0.127458  0  0.992459  0
H  H10  1  0.23320563  0.54148725  0.92131982  1  0  0.117597  0  0.937807  0  0  0.129556  0  0.992281  0  0  0.132541  0  0.99218  0  0.087193  0  0.111985  0.127463  0  0.992455  0
H  H11  1  0.45851422  0.76679534  0.57868016  1  0  0.11755  0  0.937849  0  0  0.129516  0  0.99232  0  0  0.132504  0  0.992213  0  0.087214  0  0.111987  0.127422  0  0.992496  0
H  H12  1  0.75981499  0.58023912  0.78861693  1  0  0.124823  0  0.976776  0  0  0.129363  0  1.042885  0  0  0.132677  0  1.04204  0  0.140138  0  0.111861  0.126978  0  1.043668  0
H  H13  1  0.41976498  0.24018710  0.71138046  1  0  0.124894  0  0.976812  0  0  0.129428  0  1.042929  0  0  0.132743  0  1.042084  0  0.140627  0  0.111875  0.127041  0  1.043714  0
H  H14  1  0.24018436  0.41976105  0.21138354  1  0  0.124839  0  0.976787  0  0  0.129379  0  1.04288  0  0  0.132692  0  1.042038  0  0.140049  0  0.111859  0.126994  0  1.043663  0
H  H15  1  0.58023537  0.75981306  0.28861919  1  0  0.124913  0  0.976799  0  0  0.129436  0  1.042923  0  0  0.13275  0  1.042081  0  0.140623  0  0.111888  0.127051  0  1.043707  0
H  H16  1  0.58472888  0.41263121  0.82182326  1  0  0.095582  0  0.948189  0  0  0.104558  0  1.009842  0  0  0.107385  0  1.006635  0  0.143226  0  0.122219  0.10244  0  1.012145  0
H  H17  1  0.58737021  0.41527316  0.67817654  1  0  0.095589  0  0.948201  0  0  0.104562  0  1.009846  0  0  0.107392  0  1.006628  0  0.143035  0  0.122188  0.102443  0  1.012152  0
H  H18  1  0.41527047  0.58736895  0.17817656  1  0  0.095574  0  0.948206  0  0  0.104553  0  1.009856  0  0  0.107379  0  1.006649  0  0.143234  0  0.122222  0.102435  0  1.012159  0
H  H19  1  0.41262915  0.58472701  0.32182328  1  0  0.095589  0  0.948199  0  0  0.104563  0  1.009844  0  0  0.107392  0  1.006627  0  0.143029  0  0.12218  0.102443  0  1.012151  0
H  H20  1  0.05391779  0.75737689  0.64582474  1  0  0.116284  0  0.93494  0  0  0.127152  0  0.993327  0  0  0.130395  0  0.991788  0  0.087407  0  0.105568  0.124809  0  0.994434  0
H  H21  1  0.24262281  0.94608121  0.85417588  1  0  0.116246  0  0.934941  0  0  0.127113  0  0.993332  0  0  0.130358  0  0.991793  0  0.087413  0  0.105579  0.124782  0  0.994428  0
H  H22  1  0.94608260  0.24262227  0.35417573  1  0  0.116378  0  0.934952  0  0  0.12725  0  0.993312  0  0  0.130494  0  0.991775  0  0.087401  0  0.105617  0.124907  0  0.994419  0
H  H23  1  0.75737758  0.05391796  0.14582394  1  0  0.116228  0  0.934972  0  0  0.127107  0  0.993351  0  0  0.130351  0  0.991813  0  0.087409  0  0.105584  0.124782  0  0.994436  0
H  H24  1  0.06967525  0.77361401  0.92098905  1  0  0.089819  0  1.006423  0  0  0.097159  0  1.078603  0  0  0.099432  0  1.07849  0  0.101851  0  0.095701  0.09548  0  1.078878  0
H  H25  1  0.22638667  0.93032389  0.57901137  1  0  0.089819  0  1.006483  0  0  0.097156  0  1.078665  0  0  0.099427  0  1.078556  0  0.10212  0  0.095741  0.095486  0  1.078915  0
H  H26  1  0.93032510  0.22638615  0.07901125  1  0  0.089798  0  1.006443  0  0  0.097136  0  1.078629  0  0  0.099409  0  1.078515  0  0.101866  0  0.095696  0.095458  0  1.078904  0
H  H27  1  0.77361372  0.06967527  0.42098910  1  0  0.089797  0  1.006517  0  0  0.097139  0  1.0787  0  0  0.099408  0  1.078593  0  0.102112  0  0.095728  0.09547  0  1.078947  0
H  H28  1  0.84254581  0.72359172  0.93426236  1  0  0.082966  0  0.935753  0  0  0.09646  0  0.997367  0  0  0.096969  0  0.997032  0  0.101566  0  0.109681  0.096131  0  0.997524  0
H  H29  1  0.27641646  0.15745569  0.56573704  1  0  0.083156  0  0.935558  0  0  0.096575  0  0.997273  0  0  0.097085  0  0.996947  0  0.101895  0  0.109711  0.096241  0  0.997427  0
H  H30  1  0.15745355  0.27640845  0.06573746  1  0  0.082979  0  0.935741  0  0  0.096475  0  0.997346  0  0  0.096982  0  0.997011  0  0.101569  0  0.109671  0.096143  0  0.997506  0
H  H31  1  0.72358290  0.84254448  0.43426343  1  0  0.083129  0  0.935624  0  0  0.096557  0  0.997328  0  0  0.097065  0  0.996999  0  0.1019  0  0.109701  0.096224  0  0.99748  0
H  H32  1  0.96033230  0.58851226  0.95605120  1  0  0.055029  0  0.934448  0  0  0.067582  0  1.002702  0  0  0.068345  0  1.00136  0  0.046046  0  0.100916  0.066943  0  1.003867  0
H  H33  1  0.41148485  0.03966129  0.54394947  1  0  0.055126  0  0.934398  0  0  0.067718  0  1.002635  0  0  0.068489  0  1.001294  0  0.046148  0  0.100943  0.067071  0  1.0038  0
H  H34  1  0.03966706  0.41148791  0.04394928  1  0  0.05506  0  0.934417  0  0  0.06763  0  1.002646  0  0  0.068392  0  1.001302  0  0.045885  0  0.100937  0.066989  0  1.003811  0
H  H35  1  0.58851451  0.96033887  0.45605100  1  0  0.055157  0  0.934359  0  0  0.067724  0  1.002631  0  0  0.06849  0  1.001288  0  0.046016  0  0.100948  0.067076  0  1.003796  0
H  H36  1  0.21777381  0.39237998  0.72944905  1  0  0.105048  0  0.954638  0  0  0.112372  0  1.022057  0  0  0.116324  0  1.018363  0  0.123359  0  0.10632  0.109555  0  1.024571  0
H  H37  1  0.60761984  0.78221840  0.77055009  1  0  0.104979  0  0.954682  0  0  0.112263  0  1.022134  0  0  0.116215  0  1.01844  0  0.123681  0  0.106294  0.109446  0  1.024648  0
H  H38  1  0.78222554  0.60762018  0.27055142  1  0  0.105045  0  0.954635  0  0  0.112371  0  1.022054  0  0  0.116323  0  1.018359  0  0.123365  0  0.106321  0.109554  0  1.024567  0
H  H39  1  0.39238152  0.21778177  0.22944939  1  0  0.10502  0  0.954591  0  0  0.11231  0  1.022042  0  0  0.116262  0  1.01835  0  0.123647  0  0.106327  0.109499  0  1.02456  0
H  H40  1  0.06737354  0.10638947  0.98506549  1  0  0.093752  0  0.96539  0  0  0.102353  0  1.032701  0  0  0.105395  0  1.030275  0  0.089158  0  0.102821  0.100082  0  1.034526  0
H  H41  1  0.89360601  0.93262355  0.51493811  1  0  0.093799  0  0.965329  0  0  0.102402  0  1.032624  0  0  0.105452  0  1.030181  0  0.089168  0  0.102884  0.100123  0  1.034471  0
H  H42  1  0.93262688  0.89360869  0.01493449  1  0  0.09374  0  0.965327  0  0  0.10233  0  1.032666  0  0  0.105379  0  1.030222  0  0.08916  0  0.102805  0.100059  0  1.034492  0
H  H43  1  0.10639639  0.06737561  0.48506267  1  0  0.093807  0  0.965311  0  0  0.102411  0  1.032605  0  0  0.10546  0  1.030163  0  0.089196  0  0.102884  0.100132  0  1.034453  0
H  H44  1  0.84776262  0.10663740  0.94132187  1  0  0.101197  0  0.941694  0  0  0.112138  0  0.999091  0  0  0.115396  0  0.99795  0  0.088232  0  0.103429  0.109825  0  0.999966  0
H  H45  1  0.89336331  0.15224407  0.55867922  1  0  0.101274  0  0.941826  0  0  0.112183  0  0.999253  0  0  0.115441  0  0.998116  0  0.088079  0  0.103448  0.109869  0  1.000124  0
H  H46  1  0.15223777  0.89336176  0.05867795  1  0  0.10119  0  0.9417  0  0  0.112134  0  0.999095  0  0  0.115391  0  0.997955  0  0.088233  0  0.103441  0.109821  0  0.99997  0
H  H47  1  0.10663808  0.84775509  0.44132108  1  0  0.101307  0  0.941797  0  0  0.112196  0  0.999246  0  0  0.115453  0  0.998111  0  0.088068  0  0.103458  0.109884  0  1.000116  0
H  H48  1  0.81790299  0.24773451  0.79184047  1  0  0.094686  0  0.990447  0  0  0.102188  0  1.059144  0  0  0.105364  0  1.056083  0  0.098533  0  0.102918  0.099868  0  1.061297  0
H  H49  1  0.75226857  0.18211150  0.70815955  1  0  0.094772  0  0.990377  0  0  0.10225  0  1.059146  0  0  0.105429  0  1.056081  0  0.098189  0  0.102928  0.099932  0  1.061298  0
H  H50  1  0.18209634  0.75226666  0.20815919  1  0  0.094684  0  0.990391  0  0  0.102185  0  1.059104  0  0  0.105367  0  1.056027  0  0.098543  0  0.102909  0.099866  0  1.061257  0
H  H51  1  0.24773079  0.81788867  0.29183962  1  0  0.094771  0  0.990384  0  0  0.10225  0  1.059149  0  0  0.105428  0  1.056089  0  0.097961  0  0.102925  0.099933  0  1.061301  0
C  C52  1  0.63826062  0.35523818  0.03056861  1  0  0.135576  0  3.690883  0  0  0.103947  0  3.939767  0  0  0.111432  0  3.959377  0  0.463777  0  0.047841  0.099235  0  3.926387  0
C  C53  1  0.64476043  0.36173864  0.46943215  1  0  0.13541  0  3.691054  0  0  0.103794  0  3.940024  0  0  0.11128  0  3.959642  0  0.463871  0  0.047769  0.099095  0  3.926627  0
C  C54  1  0.36173873  0.64476199  0.96943122  1  0  0.135541  0  3.690878  0  0  0.103907  0  3.939762  0  0  0.111392  0  3.959372  0  0.463743  0  0.047833  0.099196  0  3.926382  0
C  C55  1  0.35523893  0.63826152  0.53056767  1  0  0.135456  0  3.691007  0  0  0.103846  0  3.939966  0  0  0.111332  0  3.959582  0  0.463883  0  0.047794  0.099147  0  3.926569  0
C  C56  1  0.73191448  0.45055296  0.01888675  1  0  -0.163564  0  3.703569  0  0  -0.183337  0  3.954264  0  0  -0.192379  0  3.976831  0  -0.001193  0  -0.081273  -0.177688  0  3.939503  0
C  C57  1  0.54944584  0.26808512  0.48111391  1  0  -0.163507  0  3.703741  0  0  -0.183208  0  3.954457  0  0  -0.19225  0  3.977021  0  -0.001083  0  -0.081221  -0.177562  0  3.939699  0
C  C58  1  0.26808487  0.54944721  0.98111307  1  0  -0.163561  0  3.703642  0  0  -0.183302  0  3.954352  0  0  -0.192345  0  3.976921  0  -0.0012  0  -0.081255  -0.177654  0  3.939592  0
C  C59  1  0.45055352  0.73191505  0.51888656  1  0  -0.163457  0  3.703702  0  0  -0.183139  0  3.954412  0  0  -0.192182  0  3.97698  0  -0.001063  0  -0.081201  -0.177494  0  3.939655  0
C  C60  1  0.72676623  0.51921842  0.85848851  1  0  -0.152986  0  3.691095  0  0  -0.174985  0  3.943432  0  0  -0.183318  0  3.964901  0  -0.00874  0  -0.082409  -0.170071  0  3.929314  0
C  C61  1  0.48078782  0.27323651  0.64151036  1  0  -0.153123  0  3.691292  0  0  -0.175052  0  3.943596  0  0  -0.183391  0  3.965073  0  -0.009394  0  -0.082368  -0.170137  0  3.929481  0
C  C62  1  0.27323312  0.48078174  0.14151196  1  0  -0.153087  0  3.691138  0  0  -0.175045  0  3.943479  0  0  -0.183378  0  3.96495  0  -0.008546  0  -0.082414  -0.170129  0  3.929359  0
C  C63  1  0.51921154  0.72676366  0.35848946  1  0  -0.153153  0  3.691344  0  0  -0.175064  0  3.943659  0  0  -0.183403  0  3.965136  0  -0.00939  0  -0.082385  -0.170148  0  3.929538  0
C  C64  1  0.63064824  0.42458521  0.87573764  1  0  0.143644  0  3.682623  0  0  0.110228  0  3.936112  0  0  0.117958  0  3.953945  0  0.464989  0  0.053429  0.105427  0  3.923758  0
C  C65  1  0.57542222  0.36935431  0.62425976  1  0  0.143534  0  3.682741  0  0  0.110201  0  3.936219  0  0  0.117934  0  3.954054  0  0.46479  0  0.053428  0.105397  0  3.923866  0
C  C66  1  0.36935111  0.57541496  0.12426218  1  0  0.143676  0  3.68267  0  0  0.110255  0  3.936148  0  0  0.117985  0  3.953982  0  0.464989  0  0.053432  0.105454  0  3.923794  0
C  C67  1  0.42457714  0.63064586  0.37574006  1  0  0.14354  0  3.682749  0  0  0.110208  0  3.936219  0  0  0.117943  0  3.954052  0  0.464784  0  0.053447  0.105405  0  3.923866  0
C  C68  1  0.78066216  0.53227055  0.93054143  1  0  0.131452  0  3.70919  0  0  0.145031  0  3.948401  0  0  0.150055  0  3.969457  0  -0.030007  0  0.016191  0.141859  0  3.934457  0
C  C69  1  0.46772718  0.21934365  0.56945575  1  0  0.131658  0  3.70905  0  0  0.145096  0  3.948485  0  0  0.150129  0  3.969548  0  -0.030112  0  0.016142  0.141917  0  3.934537  0
C  C70  1  0.21933720  0.46772961  0.06945839  1  0  0.131547  0  3.709172  0  0  0.145042  0  3.948478  0  0  0.150062  0  3.969536  0  -0.030107  0  0.016182  0.141868  0  3.934533  0
C  C71  1  0.53227217  0.78065652  0.43054407  1  0  0.131614  0  3.709106  0  0  0.145042  0  3.94856  0  0  0.150069  0  3.969622  0  -0.030095  0  0.016156  0.141862  0  3.934613  0
C  C72  1  0.04911905  0.75592844  0.78693992  1  0  0.245385  0  3.828979  0  0  0.236256  0  4.087921  0  0  0.245362  0  4.104954  0  0.405321  0  0.068001  0.229786  0  4.076291  0
C  C73  1  0.24407114  0.95087927  0.71306148  1  0  0.245412  0  3.828771  0  0  0.236245  0  4.08774  0  0  0.24535  0  4.104771  0  0.4053  0  0.067983  0.229778  0  4.076119  0
C  C74  1  0.95088235  0.24407072  0.21306038  1  0  0.245368  0  3.828981  0  0  0.236306  0  4.087848  0  0  0.245404  0  4.104882  0  0.405327  0  0.067998  0.229834  0  4.07622  0
C  C75  1  0.75592925  0.04911990  0.28693898  1  0  0.245369  0  3.828781  0  0  0.236225  0  4.087723  0  0  0.245327  0  4.104755  0  0.405294  0  0.068017  0.229755  0  4.076106  0
C  C76  1  0.09532355  0.79986382  0.69092951  1  0  -0.146965  0  3.759092  0  0  -0.168098  0  4.012322  0  0  -0.17121  0  4.031909  0  0.029269  0  -0.102873  -0.165912  0  3.999039  0
C  C77  1  0.20013648  0.90467535  0.80907101  1  0  -0.146819  0  3.758975  0  0  -0.167943  0  4.01222  0  0  -0.171059  0  4.031811  0  0.029433  0  -0.10281  -0.165766  0  3.998936  0
C  C78  1  0.90467684  0.20013534  0.30907095  1  0  -0.147096  0  3.759137  0  0  -0.168253  0  4.012349  0  0  -0.171368  0  4.031941  0  0.029273  0  -0.102903  -0.166067  0  3.999068  0
C  C79  1  0.79986491  0.09532381  0.19092863  1  0  -0.146731  0  3.75896  0  0  -0.167873  0  4.012197  0  0  -0.170989  0  4.031789  0  0.02944  0  -0.102788  -0.1657  0  3.998909  0
C  C80  1  0.10258001  0.80780471  0.84606183  1  0  -0.197601  0  3.813514  0  0  -0.216486  0  4.065487  0  0  -0.220529  0  4.086955  0  -0.075982  0  -0.115284  -0.21356  0  4.050985  0
C  C81  1  0.19219523  0.89741903  0.65393873  1  0  -0.197661  0  3.813665  0  0  -0.216537  0  4.065661  0  0  -0.220572  0  4.087111  0  -0.075957  0  -0.115342  -0.213614  0  4.051172  0
C  C82  1  0.89742038  0.19219445  0.15393864  1  0  -0.197612  0  3.813533  0  0  -0.216517  0  4.065495  0  0  -0.22056  0  4.086964  0  -0.075979  0  -0.115318  -0.213593  0  4.050996  0
C  C83  1  0.80780516  0.10258013  0.34606173  1  0  -0.197587  0  3.81361  0  0  -0.216469  0  4.065593  0  0  -0.220505  0  4.087046  0  -0.075955  0  -0.115347  -0.213547  0  4.051104  0
C  C84  1  0.88771909  0.63105138  0.91333130  1  0  0.039504  0  3.654004  0  0  -0.02043  0  3.910722  0  0  -0.013333  0  3.914513  0  0.427229  0  -0.058765  -0.025175  0  3.908006  0
C  C85  1  0.36894693  0.11228466  0.58666614  1  0  0.039149  0  3.654027  0  0  -0.020839  0  3.910998  0  0  -0.013772  0  3.914811  0  0.427084  0  -0.058797  -0.025546  0  3.908247  0
C  C86  1  0.11228026  0.36894878  0.08666852  1  0  0.039414  0  3.653983  0  0  -0.020513  0  3.910741  0  0  -0.013412  0  3.914512  0  0.427287  0  -0.058779  -0.025249  0  3.908013  0
C  C87  1  0.63105243  0.88771551  0.41333368  1  0  0.039182  0  3.654058  0  0  -0.020801  0  3.911045  0  0  -0.013717  0  3.914833  0  0.427038  0  -0.058787  -0.025512  0  3.908296  0
C  C88  1  0.15417074  0.25141537  0.86087895  1  0  -0.079669  0  3.766273  0  0  -0.054117  0  4.001239  0  0  -0.064809  0  4.025306  0  0.020525  0  -0.022898  -0.047538  0  3.985047  0
C  C89  1  0.74858423  0.84582683  0.63912258  1  0  -0.079748  0  3.76683  0  0  -0.054189  0  4.001742  0  0  -0.064879  0  4.025806  0  0.020187  0  -0.022965  -0.047606  0  3.985549  0
C  C90  1  0.84582862  0.74858480  0.13912152  1  0  -0.079738  0  3.766416  0  0  -0.054173  0  4.001374  0  0  -0.064865  0  4.025442  0  0.020531  0  -0.022894  -0.047592  0  3.985181  0
C  C91  1  0.25141713  0.15417333  0.36087756  1  0  -0.079796  0  3.766842  0  0  -0.054225  0  4.001758  0  0  -0.064916  0  4.025822  0  0.020052  0  -0.022947  -0.047644  0  3.985567  0
C  C92  1  0.13661007  0.33003430  0.77559168  1  0  -0.046729  0  3.674524  0  0  -0.084325  0  3.918738  0  0  -0.079296  0  3.935644  0  -0.107234  0  -0.070608  -0.087319  0  3.907256  0
C  C93  1  0.66996759  0.86338292  0.72440502  1  0  -0.046481  0  3.674799  0  0  -0.083994  0  3.91893  0  0  -0.078964  0  3.935832  0  -0.107158  0  -0.070472  -0.08699  0  3.907447  0
C  C94  1  0.86339029  0.66996586  0.22440863  1  0  -0.046674  0  3.674521  0  0  -0.08427  0  3.918729  0  0  -0.079245  0  3.935634  0  -0.107247  0  -0.070593  -0.087267  0  3.907247  0
C  C95  1  0.33003277  0.13661725  0.27559528  1  0  -0.046505  0  3.674707  0  0  -0.084025  0  3.918871  0  0  -0.078997  0  3.935776  0  -0.107126  0  -0.070518  -0.087029  0  3.907399  0
C  C96  1  0.05062191  0.16946891  0.92008296  1  0  -0.058641  0  3.730518  0  0  -0.085664  0  3.980681  0  0  -0.082741  0  4.000209  0  -0.139436  0  -0.078749  -0.087064  0  3.967337  0
C  C97  1  0.83053039  0.94937360  0.57991831  1  0  -0.05867  0  3.731  0  0  -0.085698  0  3.981156  0  0  -0.082775  0  4.00069  0  -0.13926  0  -0.07879  -0.087096  0  3.967802  0
C  C98  1  0.94937748  0.83053025  0.07991768  1  0  -0.058585  0  3.730463  0  0  -0.085618  0  3.980633  0  0  -0.08269  0  4.000161  0  -0.139445  0  -0.078715  -0.087013  0  3.967286  0
C  C99  1  0.16947204  0.05062456  0.42008198  1  0  -0.058648  0  3.730934  0  0  -0.085675  0  3.981088  0  0  -0.082752  0  4.000617  0  -0.139241  0  -0.078799  -0.087075  0  3.967733  0
C  C100  1  0.92927755  0.16932637  0.89554645  1  0  -0.08102  0  3.748544  0  0  -0.090546  0  4.001011  0  0  -0.096548  0  4.023334  0  -0.000254  0  -0.091366  -0.086675  0  3.985613  0
C  C101  1  0.83067255  0.07073124  0.60445654  1  0  -0.08114  0  3.748981  0  0  -0.090619  0  4.001459  0  0  -0.096629  0  4.023793  0  -6e-06  0  -0.091355  -0.086744  0  3.986055  0
C  C102  1  0.07072180  0.83067379  0.10445272  1  0  -0.081066  0  3.748516  0  0  -0.090585  0  4.000997  0  0  -0.096592  0  4.023322  0  -0.000266  0  -0.091435  -0.086719  0  3.985602  0
C  C103  1  0.16932884  0.92926792  0.39554376  1  0  -0.081166  0  3.748969  0  0  -0.090633  0  4.001452  0  0  -0.096639  0  4.023783  0  -3e-06  0  -0.091365  -0.086756  0  3.986047  0
C  C104  1  0.91249230  0.24803866  0.81061577  1  0  -0.035742  0  3.706436  0  0  -0.065805  0  3.953452  0  0  -0.062389  0  3.973543  0  -0.087886  0  -0.074528  -0.067607  0  3.939478  0
C  C105  1  0.75196713  0.08751442  0.68938251  1  0  -0.035731  0  3.706292  0  0  -0.065822  0  3.953339  0  0  -0.062402  0  3.973413  0  -0.088001  0  -0.074547  -0.067631  0  3.939378  0
C  C106  1  0.08750706  0.75196151  0.18938405  1  0  -0.035682  0  3.706311  0  0  -0.065755  0  3.953338  0  0  -0.062339  0  3.973432  0  -0.08786  0  -0.074494  -0.067558  0  3.939366  0
C  C107  1  0.24803322  0.91248575  0.31061715  1  0  -0.035776  0  3.706296  0  0  -0.065844  0  3.953351  0  0  -0.062428  0  3.973423  0  -0.087772  0  -0.074552  -0.067654  0  3.939389  0
C  C108  1  0.01665555  0.32691356  0.74918971  1  0  -0.080228  0  3.742713  0  0  -0.051506  0  3.972197  0  0  -0.062941  0  3.995806  0  0.092152  0  -0.018546  -0.044332  0  3.956605  0
C  C109  1  0.67308651  0.98334849  0.75080933  1  0  -0.080296  0  3.742978  0  0  -0.051572  0  3.972516  0  0  -0.062999  0  3.996117  0  0.092088  0  -0.0186  -0.044399  0  3.956924  0
C  C110  1  0.98334380  0.67308661  0.25081076  1  0  -0.080309  0  3.742777  0  0  -0.051582  0  3.972268  0  0  -0.06301  0  3.995871  0  0.09213  0  -0.018586  -0.044404  0  3.956675  0
C  C111  1  0.32691384  0.01665168  0.24919032  1  0  -0.080257  0  3.742904  0  0  -0.051582  0  3.972519  0  0  -0.06301  0  3.996121  0  0.092093  0  -0.018594  -0.04441  0  3.956929  0
C  C112  1  0.00136207  0.40331615  0.65527938  1  0  0.687716  0  3.842848  0  0  0.635394  0  4.125363  0  0  0.672401  0  4.116259  0  1.55819  0  0.227599  0.610242  0  4.130916  0
C  C113  1  0.59668649  0.99863804  0.84471728  1  0  0.68753  0  3.842681  0  0  0.635164  0  4.125278  0  0  0.672164  0  4.116186  0  1.558398  0  0.227595  0.610014  0  4.130823  0
C  C114  1  0.99863732  0.59668301  0.34471995  1  0  0.687648  0  3.842946  0  0  0.635327  0  4.125464  0  0  0.672331  0  4.116362  0  1.558173  0  0.227593  0.610172  0  4.131017  0
C  C115  1  0.40331390  0.00136112  0.15528253  1  0  0.687642  0  3.842548  0  0  0.63529  0  4.125151  0  0  0.672292  0  4.116057  0  1.558405  0  0.227658  0.61014  0  4.130696  0
C  C116  1  0.28500521  0.25265202  0.88647687  1  0  0.621673  0  3.937522  0  0  0.575263  0  4.225905  0  0  0.609064  0  4.22024  0  1.527706  0  0.196677  0.552543  0  4.228737  0
C  C117  1  0.74734663  0.71499034  0.61352255  1  0  0.621727  0  3.937622  0  0  0.575321  0  4.225994  0  0  0.609119  0  4.220326  0  1.527677  0  0.196676  0.552604  0  4.228825  0
C  C118  1  0.71499414  0.74734814  0.11352360  1  0  0.621636  0  3.937585  0  0  0.575225  0  4.225967  0  0  0.609025  0  4.220304  0  1.527707  0  0.196659  0.552505  0  4.228798  0
C  C119  1  0.25265372  0.28500982  0.38647710  1  0  0.621755  0  3.937667  0  0  0.575333  0  4.226053  0  0  0.609131  0  4.220384  0  1.527795  0  0.196684  0.552616  0  4.228883  0
N  N120  1  0.58939252  0.34109895  0.95984357  1  0  -0.349181  0  3.325359  0  0  -0.263561  0  3.607038  0  0  -0.285125  0  3.622796  0  -1.265661  0  -0.336648  -0.249088  0  3.595939  0
N  N121  1  0.65890358  0.41060860  0.54015816  1  0  -0.348874  0  3.325021  0  0  -0.263445  0  3.606906  0  0  -0.285016  0  3.622673  0  -1.265465  0  -0.336574  -0.248966  0  3.595796  0
N  N122  1  0.41060684  0.65890121  0.04015691  1  0  -0.349153  0  3.325372  0  0  -0.263529  0  3.607045  0  0  -0.285093  0  3.622803  0  -1.265609  0  -0.336648  -0.249056  0  3.595944  0
N  N123  1  0.34109674  0.58939257  0.45984132  1  0  -0.34893  0  3.325072  0  0  -0.263507  0  3.606978  0  0  -0.285077  0  3.62274  0  -1.265454  0  -0.336625  -0.249028  0  3.595868  0
O  O124  1  0.37280348  0.33423411  0.83745372  1  0  -0.612526  0  1.934113  0  0  -0.564182  0  2.158474  0  0  -0.587534  0  2.150125  0  -1.17491  0  -0.316019  -0.547775  0  2.163307  0
O  O125  1  0.66576657  0.62718683  0.66254428  1  0  -0.612544  0  1.934132  0  0  -0.564235  0  2.158537  0  0  -0.587608  0  2.150232  0  -1.175072  0  -0.316022  -0.547829  0  2.163371  0
O  O126  1  0.62719588  0.66576605  0.16254740  1  0  -0.612448  0  1.934104  0  0  -0.564128  0  2.15849  0  0  -0.58748  0  2.150143  0  -1.174926  0  -0.315997  -0.547724  0  2.163329  0
O  O127  1  0.33423275  0.37281433  0.33745602  1  0  -0.612546  0  1.934141  0  0  -0.564227  0  2.15854  0  0  -0.587602  0  2.150241  0  -1.175083  0  -0.316025  -0.547822  0  2.163378  0
O  O128  1  0.30078644  0.16463170  0.96121850  1  0  -0.660182  0  2.022863  0  0  -0.587664  0  2.29021  0  0  -0.61734  0  2.274613  0  -1.163191  0  -0.337701  -0.566879  0  2.300092  0
O  O129  1  0.83535953  0.69921496  0.53878640  1  0  -0.660222  0  2.022847  0  0  -0.587686  0  2.290184  0  0  -0.617358  0  2.274581  0  -1.163157  0  -0.337706  -0.566904  0  2.300069  0
O  O130  1  0.69921295  0.83536746  0.03878214  1  0  -0.660198  0  2.022858  0  0  -0.58767  0  2.290198  0  0  -0.617347  0  2.274601  0  -1.163169  0  -0.337712  -0.566886  0  2.300079  0
O  O131  1  0.16464085  0.30078420  0.46121342  1  0  -0.660263  0  2.022922  0  0  -0.587706  0  2.290255  0  0  -0.617378  0  2.274653  0  -1.163149  0  -0.337703  -0.566922  0  2.300139  0
O  O132  1  0.09694809  0.47799023  0.60330804  1  0  -0.654595  0  2.082835  0  0  -0.584009  0  2.361746  0  0  -0.611597  0  2.342817  0  -1.189549  0  -0.320425  -0.564841  0  2.374075  0
O  O133  1  0.52201142  0.90304521  0.89668864  1  0  -0.654414  0  2.082723  0  0  -0.583815  0  2.361644  0  0  -0.611406  0  2.342721  0  -1.189736  0  -0.320402  -0.564653  0  2.373983  0
O  O134  1  0.90305127  0.52200993  0.39669178  1  0  -0.654519  0  2.082836  0  0  -0.583933  0  2.36175  0  0  -0.611522  0  2.342825  0  -1.189543  0  -0.320411  -0.564768  0  2.374085  0
O  O135  1  0.47798998  0.09695395  0.10331100  1  0  -0.654476  0  2.082652  0  0  -0.583887  0  2.361581  0  0  -0.611477  0  2.342658  0  -1.189732  0  -0.320436  -0.564725  0  2.373923  0
O  O136  1  0.89417578  0.38784692  0.63200384  1  0  -0.631133  0  2.074608  0  0  -0.554915  0  2.34694  0  0  -0.583813  0  2.330612  0  -1.169263  0  -0.307188  -0.534887  0  2.357507  0
O  O137  1  0.61215524  0.10583739  0.86799787  1  0  -0.631112  0  2.074576  0  0  -0.554917  0  2.346978  0  0  -0.583815  0  2.330648  0  -1.169215  0  -0.307217  -0.534887  0  2.357545  0
O  O138  1  0.10582458  0.61215325  0.36799516  1  0  -0.631084  0  2.074573  0  0  -0.55488  0  2.346925  0  0  -0.583777  0  2.330595  0  -1.169239  0  -0.307161  -0.53485  0  2.357492  0
O  O139  1  0.38784414  0.89416177  0.13200212  1  0  -0.631176  0  2.074573  0  0  -0.554967  0  2.346959  0  0  -0.583866  0  2.330628  0  -1.169243  0  -0.307235  -0.534937  0  2.357527  0
O  O140  1  0.95228241  0.66070400  0.81717447  1  0  -0.279915  0  2.33208  0  0  -0.210516  0  2.565435  0  0  -0.227789  0  2.568813  0  -1.091493  0  -0.182166  -0.198322  0  2.5628  0
O  O141  1  0.33929499  0.04771661  0.68282626  1  0  -0.279976  0  2.331982  0  0  -0.21047  0  2.565333  0  0  -0.227725  0  2.56871  0  -1.091903  0  -0.182247  -0.198297  0  2.5627  0
O  O142  1  0.04771795  0.33929617  0.18282518  1  0  -0.279913  0  2.332082  0  0  -0.210542  0  2.565432  0  0  -0.227799  0  2.568794  0  -1.091565  0  -0.182185  -0.198347  0  2.562794  0
O  O143  1  0.66070537  0.95228355  0.31717404  1  0  -0.279962  0  2.33202  0  0  -0.210457  0  2.56536  0  0  -0.227711  0  2.568727  0  -1.091906  0  -0.182244  -0.198278  0  2.562725  0
