# generated using pymatgen
data_CdH24C36(BrN3)2
_symmetry_space_group_name_H-M   'P 1'
_cell_length_a   8.04387266
_cell_length_b   10.16139266
_cell_length_c   22.74504735
_cell_angle_alpha   90.00007025
_cell_angle_beta   91.20561979
_cell_angle_gamma   90.00008091
_symmetry_Int_Tables_number   1
_chemical_formula_structural   CdH24C36(BrN3)2
_chemical_formula_sum   'Cd2 H48 C72 Br4 N12'
_cell_volume   1858.69920526
_cell_formula_units_Z   2
loop_
 _symmetry_equiv_pos_site_id
 _symmetry_equiv_pos_as_xyz
  1  'x, y, z'
loop_
 _atom_site_type_symbol
 _atom_site_label
 _atom_site_symmetry_multiplicity
 _atom_site_fract_x
 _atom_site_fract_y
 _atom_site_fract_z
 _atom_site_occupancy
 _atom_site_pbe_bader_charge
 _atom_site_pbe_bader_spin_density
 _atom_site_pbe_cm5_charge
 _atom_site_pbe_ddec_charge
 _atom_site_pbe_ddec_spin_density
 _atom_site_pbe_ddec_sum_bond_order
 _atom_site_pbe_magmom
Cd  Cd0  1  0.24999637  0.45125065  0.24999771  1  1.107768  0  0.637441  0.653809  0  2.504086  0
Cd  Cd1  1  0.74999833  0.54874911  0.74999824  1  1.107778  0  0.63743  0.653767  0  2.504107  0
H  H2  1  0.36171423  0.16975213  0.40624228  1  0.083629  0  0.100884  0.107273  0  1.014163  0
H  H3  1  0.13827817  0.16977024  0.09376311  1  0.083359  0  0.100923  0.107378  0  1.014159  0
H  H4  1  0.63827193  0.83023090  0.59375979  1  0.083416  0  0.100943  0.107321  0  1.01405  0
H  H5  1  0.86172434  0.83024133  0.90624650  1  0.083551  0  0.100884  0.107262  0  1.014195  0
H  H6  1  0.62569971  0.15572555  0.35685076  1  0.107412  0  0.099315  0.111629  0  1.043003  0
H  H7  1  0.87428950  0.15574010  0.14314927  1  0.107185  0  0.099327  0.111599  0  1.043073  0
H  H8  1  0.37428634  0.84426732  0.64314735  1  0.10733  0  0.099343  0.111681  0  1.043048  0
H  H9  1  0.12570039  0.84427442  0.85685281  1  0.107143  0  0.099319  0.11166  0  1.04305  0
H  H10  1  0.69091977  0.75631560  0.42053512  1  0.072886  0  0.110014  0.123901  0  0.997349  0
H  H11  1  0.80908693  0.75632989  0.07946704  1  0.073139  0  0.110007  0.123931  0  0.997437  0
H  H12  1  0.30907488  0.24366940  0.57945907  1  0.073104  0  0.109988  0.123863  0  0.997496  0
H  H13  1  0.19091925  0.24367774  0.92053994  1  0.072941  0  0.110022  0.123936  0  0.997422  0
H  H14  1  0.42080555  0.76912481  0.46795772  1  0.092765  0  0.11176  0.118731  0  0.974888  0
H  H15  1  0.07920301  0.76913678  0.03204627  1  0.092978  0  0.111774  0.118795  0  0.974798  0
H  H16  1  0.57919914  0.23086412  0.53203959  1  0.093119  0  0.111783  0.118742  0  0.974814  0
H  H17  1  0.92080692  0.23087380  0.96796161  1  0.092992  0  0.111758  0.118734  0  0.974806  0
H  H18  1  0.07139138  0.35903801  0.37775609  1  0.105354  0  0.119829  0.092601  0  0.975546  0
H  H19  1  0.42860136  0.35904270  0.12224719  1  0.105076  0  0.119792  0.092517  0  0.975523  0
H  H20  1  0.92859981  0.64096076  0.62224819  1  0.10508  0  0.119811  0.092529  0  0.975665  0
H  H21  1  0.57141969  0.64096591  0.87775810  1  0.105021  0  0.119861  0.092595  0  0.975547  0
H  H22  1  0.90632438  0.17061645  0.41780317  1  0.107052  0  0.114494  0.133969  0  1.002197  0
H  H23  1  0.59367736  0.17061776  0.08219956  1  0.107121  0  0.114462  0.133889  0  1.002288  0
H  H24  1  0.09366171  0.82937839  0.58219626  1  0.107083  0  0.114495  0.133934  0  1.002165  0
H  H25  1  0.40634991  0.82938298  0.91780576  1  0.107181  0  0.114499  0.133942  0  1.002217  0
H  H26  1  0.93421746  0.98962303  0.24624254  1  0.085497  0  0.10982  0.12834  0  0.997784  0
H  H27  1  0.56576350  0.98961008  0.25375479  1  0.085406  0  0.109842  0.128373  0  0.997746  0
H  H28  1  0.06576604  0.01038854  0.75375292  1  0.085426  0  0.109846  0.128372  0  0.997801  0
H  H29  1  0.43422009  0.01037197  0.74624419  1  0.085653  0  0.109883  0.128389  0  0.997764  0
H  H30  1  0.08455402  0.19052937  0.21259420  1  0.094659  0  0.105129  0.078194  0  1.044007  0
H  H31  1  0.41543084  0.19051487  0.28740633  1  0.094638  0  0.105112  0.078162  0  1.044058  0
H  H32  1  0.91543458  0.80948417  0.78740612  1  0.094624  0  0.105111  0.078194  0  1.044067  0
H  H33  1  0.58455777  0.80946816  0.71259442  1  0.094678  0  0.105133  0.078207  0  1.044033  0
H  H34  1  0.30460172  0.70880309  0.32473742  1  0.131139  0  0.104166  0.080713  0  1.017682  0
H  H35  1  0.19540517  0.70879985  0.17525511  1  0.131006  0  0.104152  0.080648  0  1.017725  0
H  H36  1  0.69540286  0.29121242  0.67525593  1  0.130996  0  0.104172  0.080694  0  1.017783  0
H  H37  1  0.80460931  0.29119498  0.82473609  1  0.131075  0  0.104133  0.080664  0  1.017662  0
H  H38  1  0.15698996  0.91121233  0.35691421  1  0.081179  0  0.104528  0.11789  0  1.04541  0
H  H39  1  0.34302001  0.91121012  0.14308458  1  0.081065  0  0.104529  0.1179  0  1.045486  0
H  H40  1  0.84300721  0.08879727  0.64308087  1  0.081434  0  0.10453  0.117883  0  1.045463  0
H  H41  1  0.65699336  0.08878865  0.85691188  1  0.081124  0  0.104503  0.117875  0  1.045527  0
H  H42  1  0.69288692  0.70545234  0.32086140  1  0.115616  0  0.102903  0.124332  0  1.030649  0
H  H43  1  0.80711965  0.70545808  0.17913985  1  0.11584  0  0.102901  0.12436  0  1.030548  0
H  H44  1  0.30712162  0.29453955  0.67914076  1  0.115863  0  0.102888  0.12432  0  1.030552  0
H  H45  1  0.19289255  0.29454266  0.82085968  1  0.115663  0  0.102902  0.12433  0  1.030604  0
H  H46  1  0.86006328  0.51934697  0.28598181  1  0.129962  0  0.108697  0.083687  0  1.015031  0
H  H47  1  0.63994415  0.51935069  0.21401980  1  0.129693  0  0.108683  0.083654  0  1.015102  0
H  H48  1  0.13994650  0.48065082  0.71402036  1  0.129882  0  0.108695  0.083699  0  1.015108  0
H  H49  1  0.36006682  0.48065399  0.78598018  1  0.130006  0  0.108711  0.083753  0  1.014925  0
C  C50  1  0.07547011  0.99212463  0.48837886  1  -0.417075  0  -0.050952  -0.05939  0  4.321047  0
C  C51  1  0.42452260  0.99212701  0.01161946  1  -0.416364  0  -0.051004  -0.059443  0  4.321107  0
C  C52  1  0.92451445  0.00788891  0.51160957  1  -0.303994  0  -0.050979  -0.059375  0  4.321163  0
C  C53  1  0.57547483  0.00787963  0.98838617  1  -0.304604  0  -0.050925  -0.059311  0  4.320761  0
C  C54  1  0.21402722  0.97875150  0.46737144  1  0.072496  0  -0.021234  -0.069558  0  4.054812  0
C  C55  1  0.28597426  0.97877547  0.03263042  1  0.072376  0  -0.0212  -0.069478  0  4.054608  0
C  C56  1  0.78596619  0.02123842  0.53262274  1  0.072112  0  -0.021187  -0.069485  0  4.054744  0
C  C57  1  0.71403309  0.02124004  0.96737393  1  0.072161  0  -0.021246  -0.069575  0  4.054631  0
C  C58  1  0.36911273  0.96956578  0.44035299  1  0.1533  0  -0.013915  0.091989  0  4.157981  0
C  C59  1  0.13088385  0.96958083  0.05965236  1  0.15238  0  -0.013855  0.092197  0  4.157692  0
C  C60  1  0.63088581  0.03042119  0.55964693  1  0.152578  0  -0.013885  0.092025  0  4.157924  0
C  C61  1  0.86911242  0.03042877  0.94035634  1  0.152975  0  -0.013859  0.092  0  4.158152  0
C  C62  1  0.43187113  0.07797144  0.40883357  1  -0.0367  0  -0.081564  -0.099416  0  3.949546  0
C  C63  1  0.06812100  0.07799243  0.09116913  1  -0.036057  0  -0.081717  -0.099835  0  3.949837  0
C  C64  1  0.56811861  0.92201258  0.59116279  1  -0.036436  0  -0.081734  -0.099621  0  3.949614  0
C  C65  1  0.93187648  0.92202110  0.90883826  1  -0.036624  0  -0.081601  -0.099418  0  3.949679  0
C  C66  1  0.58251854  0.06969307  0.38071294  1  -0.050283  0  -0.101159  -0.187137  0  4.002849  0
C  C67  1  0.91747303  0.06970168  0.11928925  1  -0.050535  0  -0.101143  -0.187048  0  4.003198  0
C  C68  1  0.41747123  0.93029980  0.61928474  1  -0.050082  0  -0.101208  -0.1873  0  4.002962  0
C  C69  1  0.08252317  0.93029906  0.88071637  1  -0.04939  0  -0.101164  -0.18718  0  4.002743  0
C  C70  1  0.67791416  0.95348733  0.38361553  1  0.289891  0  0.099108  0.186549  0  4.018083  0
C  C71  1  0.82208169  0.95350175  0.11638361  1  0.290145  0  0.099151  0.186762  0  4.018321  0
C  C72  1  0.32207304  0.04650062  0.61637863  1  0.289808  0  0.099325  0.186966  0  4.017989  0
C  C73  1  0.17792069  0.04650785  0.88362073  1  0.289517  0  0.099236  0.186744  0  4.017592  0
C  C74  1  0.61795352  0.84608475  0.41611517  1  0.037311  0  -0.092774  -0.173004  0  3.988716  0
C  C75  1  0.88205342  0.84609716  0.08388879  1  0.0371  0  -0.092748  -0.172995  0  3.988936  0
C  C76  1  0.38204124  0.15390714  0.58388297  1  0.037456  0  -0.092742  -0.173005  0  3.988923  0
C  C77  1  0.11796025  0.15391441  0.91611955  1  0.037219  0  -0.092776  -0.17297  0  3.988759  0
C  C78  1  0.46564727  0.85346560  0.44330061  1  -0.036467  0  -0.0754  -0.094709  0  3.948031  0
C  C79  1  0.03435768  0.85347957  0.05670165  1  -0.03601  0  -0.075438  -0.094931  0  3.948048  0
C  C80  1  0.53434744  0.14651842  0.55669578  1  -0.036707  0  -0.075477  -0.094804  0  3.948111  0
C  C81  1  0.96565220  0.14652609  0.94330448  1  -0.036644  0  -0.075451  -0.094826  0  3.948281  0
C  C82  1  0.03513905  0.27592631  0.34988307  1  0.501652  0  0.052659  0.109049  0  3.949462  0
C  C83  1  0.46485476  0.27592325  0.15011974  1  0.50195  0  0.052693  0.109055  0  3.949342  0
C  C84  1  0.96484709  0.72407443  0.65011812  1  0.501879  0  0.05272  0.109135  0  3.949399  0
C  C85  1  0.53515633  0.72407355  0.84988463  1  0.502057  0  0.052679  0.109124  0  3.949489  0
C  C86  1  0.94483457  0.17085947  0.37222851  1  0.023599  0  -0.079603  -0.204156  0  3.926225  0
C  C87  1  0.55515967  0.17086187  0.12777243  1  0.023593  0  -0.079548  -0.203987  0  3.926257  0
C  C88  1  0.05515157  0.82913930  0.62777268  1  0.023659  0  -0.079551  -0.204047  0  3.926224  0
C  C89  1  0.44484890  0.82913887  0.87223105  1  0.023173  0  -0.079605  -0.204159  0  3.926182  0
C  C90  1  0.91031960  0.06374515  0.33519520  1  0.282672  0  0.112331  0.217582  0  4.006491  0
C  C91  1  0.58967561  0.06374375  0.16480393  1  0.282633  0  0.112314  0.217552  0  4.006608  0
C  C92  1  0.08967019  0.93625461  0.66480336  1  0.282632  0  0.112207  0.217416  0  4.006504  0
C  C93  1  0.41032791  0.93625305  0.83519645  1  0.282552  0  0.112253  0.217546  0  4.006419  0
C  C94  1  0.96065575  0.07011527  0.27664799  1  0.018574  0  -0.08979  -0.213947  0  3.956726  0
C  C95  1  0.53932951  0.07010712  0.22335066  1  0.019039  0  -0.089828  -0.214017  0  3.956846  0
C  C96  1  0.03933033  0.92989335  0.72335100  1  0.01896  0  -0.089811  -0.213949  0  3.956812  0
C  C97  1  0.46065785  0.92988280  0.77665009  1  0.018777  0  -0.089834  -0.213953  0  3.956773  0
C  C98  1  0.04639736  0.18012238  0.25804065  1  0.476071  0  0.038598  0.098497  0  3.978514  0
C  C99  1  0.45358872  0.18010975  0.24195988  1  0.475377  0  0.038645  0.098521  0  3.978601  0
C  C100  1  0.95358874  0.81988820  0.74195922  1  0.475197  0  0.038603  0.098414  0  3.978778  0
C  C101  1  0.54640116  0.81987722  0.75804176  1  0.475587  0  0.038525  0.098378  0  3.978665  0
C  C102  1  0.16905520  0.71501280  0.32288838  1  0.490121  0  0.037368  0.102104  0  3.97823  0
C  C103  1  0.33095053  0.71500871  0.17710722  1  0.490798  0  0.037455  0.102273  0  3.978244  0
C  C104  1  0.83095067  0.28499385  0.67710673  1  0.490461  0  0.037424  0.102151  0  3.978369  0
C  C105  1  0.66905534  0.28498416  0.82288790  1  0.490252  0  0.037411  0.102208  0  3.978247  0
C  C106  1  0.08643309  0.82635776  0.34147082  1  -0.002929  0  -0.095872  -0.223662  0  3.96991  0
C  C107  1  0.41357168  0.82635862  0.15852615  1  -0.003153  0  -0.095857  -0.223685  0  3.970025  0
C  C108  1  0.91356903  0.17364790  0.65852340  1  -0.003222  0  -0.095863  -0.223649  0  3.970107  0
C  C109  1  0.58643675  0.17363720  0.84147161  1  -0.002861  0  -0.09581  -0.223617  0  3.970003  0
C  C110  1  0.91149688  0.82854091  0.34011462  1  0.264336  0  0.110547  0.219742  0  4.003775  0
C  C111  1  0.58850867  0.82854147  0.15988493  1  0.263917  0  0.110586  0.219783  0  4.003769  0
C  C112  1  0.08850533  0.17146180  0.65988312  1  0.264189  0  0.110595  0.219785  0  4.003965  0
C  C113  1  0.41149859  0.17145632  0.84011591  1  0.264169  0  0.110585  0.219789  0  4.003818  0
C  C114  1  0.82785316  0.71387251  0.32189678  1  -0.011838  0  -0.093493  -0.224516  0  3.946965  0
C  C115  1  0.67215464  0.71387320  0.17810317  1  -0.012075  0  -0.093463  -0.224477  0  3.946772  0
C  C116  1  0.17215030  0.28612627  0.67810141  1  -0.012116  0  -0.093498  -0.224471  0  3.946949  0
C  C117  1  0.32785386  0.28612557  0.82189723  1  -0.011996  0  -0.093554  -0.224547  0  3.946929  0
C  C118  1  0.92184030  0.60772861  0.30274216  1  0.539627  0  0.044639  0.109887  0  3.960194  0
C  C119  1  0.57816600  0.60773124  0.19725684  1  0.53964  0  0.044708  0.109942  0  3.960353  0
C  C120  1  0.07816571  0.39227115  0.69725823  1  0.539508  0  0.044643  0.109797  0  3.960308  0
C  C121  1  0.42184494  0.39226458  0.80274225  1  0.539501  0  0.044675  0.109822  0  3.9603  0
Br  Br122  1  0.48151542  0.45169572  0.34169756  1  -0.688017  0  -0.398946  -0.591167  0  0.930938  0
Br  Br123  1  0.01849952  0.45169424  0.15829092  1  -0.687987  0  -0.398936  -0.591169  0  0.930947  0
Br  Br124  1  0.51850021  0.54830798  0.65829012  1  -0.687989  0  -0.398928  -0.591159  0  0.930933  0
Br  Br125  1  0.98150511  0.54830060  0.84170419  1  -0.687983  0  -0.398961  -0.591196  0  0.930906  0
N  N126  1  0.83088088  0.94715062  0.35483863  1  -1.211324  0  -0.242079  -0.144175  0  3.645695  0
N  N127  1  0.66911372  0.94715515  0.14516093  1  -1.21137  0  -0.242156  -0.144339  0  3.645853  0
N  N128  1  0.16910263  0.05284618  0.64515727  1  -1.211175  0  -0.242147  -0.144271  0  3.64569  0
N  N129  1  0.33089234  0.05284756  0.85484166  1  -1.211272  0  -0.242117  -0.144343  0  3.645691  0
N  N130  1  0.08608572  0.28045417  0.29410795  1  -1.227651  0  -0.330269  -0.233451  0  3.509037  0
N  N131  1  0.41390184  0.28044435  0.20589352  1  -1.227409  0  -0.330323  -0.233432  0  3.508966  0
N  N132  1  0.91390665  0.71955444  0.70589370  1  -1.227246  0  -0.330298  -0.233396  0  3.509011  0
N  N133  1  0.58609059  0.71954557  0.79411078  1  -1.22729  0  -0.330252  -0.233419  0  3.509188  0
N  N134  1  0.08881182  0.60778137  0.30228918  1  -1.284434  0  -0.338443  -0.245236  0  3.51622  0
N  N135  1  0.41119614  0.60778037  0.19770506  1  -1.284418  0  -0.338611  -0.24544  0  3.516458  0
N  N136  1  0.91119154  0.39222331  0.69770505  1  -1.284447  0  -0.338501  -0.245239  0  3.516181  0
N  N137  1  0.58881591  0.39221545  0.80228876  1  -1.284388  0  -0.338525  -0.245321  0  3.516342  0
