# generated using pymatgen
data_FeH8(C3N)4
_symmetry_space_group_name_H-M   'P 1'
_cell_length_a   7.05569518
_cell_length_b   13.46505041
_cell_length_c   13.46506681
_cell_angle_alpha   90.04868762
_cell_angle_beta   90.00000150
_cell_angle_gamma   90.00006613
_symmetry_Int_Tables_number   1
_chemical_formula_structural   FeH8(C3N)4
_chemical_formula_sum   'Fe2 H16 C24 N8'
_cell_volume   1279.25213173
_cell_formula_units_Z   2
loop_
 _symmetry_equiv_pos_site_id
 _symmetry_equiv_pos_as_xyz
  1  'x, y, z'
loop_
 _atom_site_type_symbol
 _atom_site_label
 _atom_site_symmetry_multiplicity
 _atom_site_fract_x
 _atom_site_fract_y
 _atom_site_fract_z
 _atom_site_occupancy
 _atom_site_hle17_ddec_charge
 _atom_site_hle17_ddec_spin_density
 _atom_site_hle17_ddec_sum_bond_order
 _atom_site_hle17_magmom
 _atom_site_hse06_10hf_ddec_charge
 _atom_site_hse06_10hf_ddec_spin_density
 _atom_site_hse06_10hf_ddec_sum_bond_order
 _atom_site_hse06_10hf_magmom
 _atom_site_hse06_ddec_charge
 _atom_site_hse06_ddec_spin_density
 _atom_site_hse06_ddec_sum_bond_order
 _atom_site_hse06_magmom
 _atom_site_pbe_cm5_charge
 _atom_site_pbe_ddec_charge
 _atom_site_pbe_ddec_spin_density
 _atom_site_pbe_ddec_sum_bond_order
 _atom_site_pbe_magmom
Fe  Fe0  1  0.25000088  0.00000237  0.99999959  1  0.757677  -3.801865  2.285233  -3.499  0.599675  -3.727568  2.812634  -3.46  0.682787  -3.801955  2.740884  -3.572  0.720083  0.53197  -3.652141  2.873058  -3.356
Fe  Fe1  1  0.75000406  0.00000242  0.00000001  1  0.756994  3.8017  2.287159  3.499  0.599112  3.727328  2.814418  3.46  0.682202  3.801761  2.742591  3.571  0.720342  0.531371  3.651866  2.874895  3.355
H  H2  1  0.69325399  0.99989908  0.23734608  1  0.089247  -1.6e-05  0.948962  0.0  0.103593  -1.9e-05  1.007764  0.0  0.105506  -2.9e-05  1.005351  0.0  0.117981  0.102092  -1.9e-05  1.009697  0.0
H  H3  1  0.69324848  0.00010142  0.76265434  1  0.08928  -1.6e-05  0.948898  0.0  0.103624  -1.9e-05  1.007713  0.0  0.105523  -2.9e-05  1.005317  0.0  0.117986  0.102131  -1.9e-05  1.009649  0.0
H  H4  1  0.30665299  0.00038237  0.23728976  1  0.08913  1.4e-05  0.948974  0.0  0.103178  1.9e-05  1.008178  0.0  0.105089  2.8e-05  1.005721  0.0  0.117892  0.101694  1.9e-05  1.010094  0.0
H  H5  1  0.80675066  0.76265398  0.00009754  1  0.089258  -1.5e-05  0.94895  0.0  0.103612  -1.9e-05  1.007743  0.0  0.105513  -2.9e-05  1.005343  0.0  0.117986  0.102116  -1.9e-05  1.009681  0.0
H  H6  1  0.19335256  0.76271385  0.99962109  1  0.089152  1.5e-05  0.949113  0.0  0.103202  1.9e-05  1.008314  0.0  0.105111  2.8e-05  1.005862  0.0  0.117927  0.101721  1.9e-05  1.010232  0.0
H  H7  1  0.19335190  0.23729307  0.00038155  1  0.089147  1.4e-05  0.949022  0.0  0.103205  1.9e-05  1.008211  0.0  0.105116  2.8e-05  1.005754  0.0  0.117915  0.101721  1.9e-05  1.010132  0.0
H  H8  1  0.80674858  0.23734880  0.99990066  1  0.089249  -1.6e-05  0.949008  0.0  0.103612  -1.9e-05  1.007792  0.0  0.105516  -2.9e-05  1.00539  0.0  0.117965  0.102112  -1.9e-05  1.009734  0.0
H  H9  1  0.30665140  0.99961347  0.76270916  1  0.089117  1.5e-05  0.94904  0.0  0.103182  1.9e-05  1.008219  0.0  0.105093  2.8e-05  1.005765  0.0  0.11792  0.101706  1.9e-05  1.010137  0.0
H  H10  1  0.69450121  0.99979683  0.40921227  1  0.080926  -1.6e-05  0.958319  0.0  0.093835  -2.8e-05  1.017175  0.0  0.09644  -2.5e-05  1.015807  0.0  0.096036  0.092043  -4.3e-05  1.018096  0.0
H  H11  1  0.69450137  0.00019475  0.59078815  1  0.080877  -1.6e-05  0.958385  0.0  0.093824  -2.8e-05  1.017203  0.0  0.096428  -2.5e-05  1.015836  0.0  0.09607  0.092033  -4.3e-05  1.018128  0.0
H  H12  1  0.30553883  0.99977371  0.40921225  1  0.080812  1.5e-05  0.95829  0.0  0.093767  2.8e-05  1.017117  0.0  0.096373  2.5e-05  1.015749  0.0  0.096021  0.091971  4.2e-05  1.018048  0.0
H  H13  1  0.80549614  0.59078982  0.00019904  1  0.080909  -1.5e-05  0.958402  0.0  0.09385  -2.8e-05  1.017234  0.0  0.096455  -2.5e-05  1.015866  0.0  0.096082  0.092059  -4.3e-05  1.01816  0.0
H  H14  1  0.19445784  0.59079190  0.00022057  1  0.08076  1.6e-05  0.95827  0.0  0.093728  2.8e-05  1.017097  0.0  0.096335  2.5e-05  1.015728  0.0  0.096013  0.091934  4.2e-05  1.018034  0.0
H  H15  1  0.19445902  0.40921577  0.99977984  1  0.080836  1.6e-05  0.958301  0.0  0.093777  2.8e-05  1.017134  0.0  0.096383  2.5e-05  1.015767  0.0  0.09601  0.091981  4.2e-05  1.018067  0.0
H  H16  1  0.80549449  0.40921519  0.99979990  1  0.080933  -1.6e-05  0.9583  0.0  0.093842  -2.8e-05  1.017144  0.0  0.096447  -2.5e-05  1.015777  0.0  0.096073  0.092058  -4.3e-05  1.018069  0.0
H  H17  1  0.30553616  0.00021322  0.59078890  1  0.080829  1.5e-05  0.958278  0.0  0.093775  2.8e-05  1.017113  0.0  0.096381  2.5e-05  1.015748  0.0  0.096056  0.091977  4.2e-05  1.018042  0.0
C  C18  1  0.84375227  0.99991800  0.22060128  1  0.004932  -0.007755  3.718711  -0.009  -0.039365  -0.003007  3.979064  -0.002  -0.03196  -0.001732  3.998725  -0.001  0.013188  -0.043871  -0.003559  3.964248  -0.003
C  C19  1  0.84375243  0.00008184  0.77939692  1  0.00477  -0.007754  3.71885  -0.009  -0.039554  -0.003007  3.979207  -0.002  -0.032141  -0.001732  3.998875  -0.001  0.013165  -0.044069  -0.003559  3.964402  -0.003
C  C20  1  0.15615187  0.00017174  0.22058719  1  0.005469  0.007773  3.718422  0.009  -0.038512  0.003026  3.978726  0.002  -0.031075  0.00175  3.998332  0.001  0.0134  -0.043042  0.003579  3.963933  0.003
C  C21  1  0.65625098  0.77939580  0.00008237  1  0.004824  -0.007754  3.718742  -0.009  -0.039495  -0.003005  3.979079  -0.002  -0.032084  -0.001731  3.998746  -0.001  0.013185  -0.044006  -0.003558  3.96427  -0.003
C  C22  1  0.34384236  0.77941574  0.99982648  1  0.005387  0.007775  3.718317  0.009  -0.038649  0.003029  3.978668  0.002  -0.031215  0.001751  3.998271  0.001  0.013343  -0.043184  0.003582  3.963887  0.003
C  C23  1  0.34384591  0.22058755  0.00017171  1  0.005467  0.007779  3.718437  0.009  -0.03856  0.003029  3.97875  0.002  -0.031126  0.001753  3.998352  0.001  0.013368  -0.043089  0.003584  3.963955  0.003
C  C24  1  0.65625453  0.22060765  0.99991880  1  0.004713  -0.00775  3.718722  -0.009  -0.039626  -0.003004  3.979065  -0.002  -0.032216  -0.001729  3.998727  -0.001  0.013111  -0.044133  -0.003558  3.964253  -0.003
C  C25  1  0.15615029  0.99982402  0.77941247  1  0.005442  0.007771  3.718362  0.009  -0.038585  0.003026  3.978677  0.002  -0.031151  0.00175  3.99828  0.001  0.013354  -0.04313  0.003578  3.963902  0.003
C  C26  1  0.99996650  0.99990554  0.28557980  1  -0.059838  6e-06  3.863139  0.0  -0.043623  9e-06  4.10455  0.0  -0.052085  7e-06  4.132087  0.0  -0.033227  -0.037679  1e-05  4.08528  0.0
C  C27  1  0.99996241  0.00008695  0.71442063  1  -0.059762  7e-06  3.862945  0.0  -0.04346  1e-05  4.104281  0.0  -0.051912  8e-06  4.131799  0.0  -0.033219  -0.03751  1.1e-05  4.085009  0.0
C  C28  1  0.50004234  0.71442236  0.00009263  1  -0.059664  8e-06  3.863175  0.0  -0.043413  1e-05  4.104487  0.0  -0.051866  9e-06  4.132008  0.0  -0.033229  -0.037469  1.2e-05  4.085207  0.0
C  C29  1  0.50003755  0.28558472  0.99990704  1  -0.059707  5e-06  3.862974  0.0  -0.043439  1.1e-05  4.104242  0.0  -0.05189  8e-06  4.131765  0.0  -0.033184  -0.037498  1.3e-05  4.084965  0.0
C  C30  1  0.00000409  0.99987038  0.39395354  1  0.063386  5e-06  3.843343  0.0  0.07885  1e-06  4.072365  0.0  0.079855  1e-06  4.098405  0.0  -0.011969  0.078145  1e-06  4.054749  0.0
C  C31  1  0.00000283  0.00011639  0.60604537  1  0.063469  -5e-06  3.843043  0.0  0.078839  1e-06  4.072148  0.0  0.079852  2e-06  4.098163  0.0  -0.011919  0.078132  1e-06  4.054532  0.0
C  C32  1  0.49999260  0.60604847  0.00012457  1  0.063221  -8e-06  3.843512  0.0  0.078771  2e-06  4.072432  0.0  0.079783  1e-06  4.09845  0.0  -0.011979  0.078068  2e-06  4.054799  0.0
C  C33  1  0.49999800  0.39395713  0.99987511  1  0.063315  9e-06  3.843448  0.0  0.078836  2e-06  4.07231  0.0  0.079839  2e-06  4.098344  0.0  -0.011981  0.078131  1e-06  4.054685  0.0
C  C34  1  0.82971680  0.99991677  0.44843678  1  -0.110811  9.9e-05  3.769796  0.0  -0.13053  3.3e-05  4.015361  0.0  -0.133729  4e-06  4.037778  0.0  -0.095146  -0.128152  -3e-05  3.999895  0.0
C  C35  1  0.82971696  0.00007118  0.55156290  1  -0.110793  0.000108  3.769843  0.0  -0.130509  3.3e-05  4.015415  0.0  -0.133713  4e-06  4.03783  0.0  -0.095189  -0.128133  -3e-05  3.999952  0.0
C  C36  1  0.17030906  0.99991065  0.44843826  1  -0.110678  -0.000106  3.769521  0.0  -0.13042  -3e-05  4.015076  0.0  -0.133622  -2e-06  4.0375  0.0  -0.095062  -0.128041  3.3e-05  3.999609  0.0
C  C37  1  0.67028050  0.55156670  0.00007766  1  -0.110686  0.000111  3.769795  0.0  -0.130493  3.3e-05  4.015352  0.0  -0.133696  5e-06  4.037766  0.0  -0.095167  -0.128116  -2.9e-05  3.999892  0.0
C  C38  1  0.32968614  0.55156587  0.00008211  1  -0.110488  -9.2e-05  3.769518  0.0  -0.130289  -2.9e-05  4.015076  0.0  -0.133493  -1e-06  4.037496  0.0  -0.095017  -0.127915  3.3e-05  3.999612  0.0
C  C39  1  0.32968033  0.44844186  0.99991831  1  -0.110794  -0.000109  3.769498  0.0  -0.130554  -3e-05  4.015057  0.0  -0.133756  -2e-06  4.03748  0.0  -0.095146  -0.128174  3.3e-05  3.999588  0.0
C  C40  1  0.67027611  0.44843898  0.99992203  1  -0.11087  9.4e-05  3.769981  0.0  -0.130581  3.3e-05  4.015502  0.0  -0.133782  4e-06  4.03792  0.0  -0.095214  -0.128212  -3e-05  4.00005  0.0
C  C41  1  0.17030923  0.00007398  0.55156140  1  -0.110776  -9.6e-05  3.769451  0.0  -0.130495  -3e-05  4.015047  0.0  -0.133699  -2e-06  4.037467  0.0  -0.095222  -0.128114  3.3e-05  3.999576  0.0
N  N42  1  0.90276717  0.00036393  0.12534675  1  -0.255057  0.027987  3.332805  0.036  -0.194647  0.020996  3.645862  0.016  -0.220424  0.016825  3.666852  0.009  -0.289199  -0.174908  0.024594  3.631409  0.021
N  N43  1  0.90276417  0.99963891  0.87465219  1  -0.25502  0.027986  3.33283  0.036  -0.194608  0.020996  3.645886  0.016  -0.220384  0.016826  3.666871  0.009  -0.289217  -0.174864  0.024593  3.631431  0.021
N  N44  1  0.09708469  0.00052041  0.12533567  1  -0.256158  -0.027973  3.332553  -0.036  -0.195796  -0.02097  3.645612  -0.016  -0.22159  -0.016805  3.666583  -0.009  -0.289965  -0.176055  -0.02456  3.631172  -0.021
N  N45  1  0.59723920  0.87465786  0.99963895  1  -0.25502  0.027985  3.332612  0.036  -0.194598  0.020992  3.645659  0.016  -0.220379  0.016821  3.666646  0.009  -0.289218  -0.174856  0.024589  3.631211  0.021
N  N46  1  0.40292099  0.87466665  0.99948151  1  -0.256135  -0.027972  3.332434  -0.036  -0.195764  -0.020969  3.645496  -0.016  -0.221553  -0.016803  3.666466  -0.009  -0.289939  -0.17603  -0.024559  3.631067  -0.021
N  N47  1  0.40292006  0.12534038  0.00051817  1  -0.256259  -0.027974  3.332807  -0.036  -0.195913  -0.020974  3.645904  -0.016  -0.221704  -0.016809  3.666875  -0.009  -0.28997  -0.176186  -0.024566  3.631476  -0.021
N  N48  1  0.59723826  0.12534705  0.00036296  1  -0.254878  0.027985  3.332605  0.036  -0.194447  0.020994  3.645636  0.016  -0.220228  0.016824  3.666626  0.009  -0.289145  -0.174706  0.024592  3.631179  0.021
N  N49  1  0.09708311  0.99948126  0.87466400  1  -0.256133  -0.027972  3.332396  -0.036  -0.195764  -0.02097  3.645461  -0.016  -0.221557  -0.016805  3.666429  -0.009  -0.28995  -0.176024  -0.024559  3.631026  -0.021
