# generated using pymatgen
data_NaH2C2O3
_symmetry_space_group_name_H-M   'P 1'
_cell_length_a   10.01513279
_cell_length_b   10.07273233
_cell_length_c   13.06880000
_cell_angle_alpha   90.00000000
_cell_angle_beta   90.00000000
_cell_angle_gamma   90.00000000
_symmetry_Int_Tables_number   1
_chemical_formula_structural   NaH2C2O3
_chemical_formula_sum   'Na16 H32 C32 O48'
_cell_volume   1318.37730141
_cell_formula_units_Z   16
loop_
 _symmetry_equiv_pos_site_id
 _symmetry_equiv_pos_as_xyz
  1  'x, y, z'
loop_
 _atom_site_type_symbol
 _atom_site_label
 _atom_site_symmetry_multiplicity
 _atom_site_fract_x
 _atom_site_fract_y
 _atom_site_fract_z
 _atom_site_occupancy
 _atom_site_hle17_bader_spin_density
 _atom_site_hle17_ddec_charge
 _atom_site_hle17_ddec_spin_density
 _atom_site_hle17_ddec_sum_bond_order
 _atom_site_hle17_magmom
 _atom_site_hse06_10hf_bader_spin_density
 _atom_site_hse06_10hf_ddec_charge
 _atom_site_hse06_10hf_ddec_spin_density
 _atom_site_hse06_10hf_ddec_sum_bond_order
 _atom_site_hse06_10hf_magmom
 _atom_site_hse06_bader_spin_density
 _atom_site_hse06_ddec_charge
 _atom_site_hse06_ddec_spin_density
 _atom_site_hse06_ddec_sum_bond_order
 _atom_site_hse06_magmom
 _atom_site_pbe_bader_charge
 _atom_site_pbe_bader_spin_density
 _atom_site_pbe_cm5_charge
 _atom_site_pbe_ddec_charge
 _atom_site_pbe_ddec_spin_density
 _atom_site_pbe_ddec_sum_bond_order
 _atom_site_pbe_magmom
Na  Na0  1  0.53124108  0.02575468  0.37332502  1  0  0.892043  0  0.406935  0  0  0.842977  0  0.562681  0  0  0.854954  0  0.53947  0  0.876449  0  0.734069  0.834149  0  0.579281  0
Na  Na1  1  0.46875964  0.47424669  0.87332502  1  0  0.892056  0  0.406923  0  0  0.842966  0  0.562672  0  0  0.854949  0  0.539465  0  0.876455  0  0.734071  0.834147  0  0.579273  0
Na  Na2  1  0.96876000  0.52575407  0.62667498  1  0  0.892039  0  0.406944  0  0  0.842975  0  0.562686  0  0  0.854952  0  0.539473  0  0.876454  0  0.734074  0.834151  0  0.579277  0
Na  Na3  1  0.03123973  0.97424608  0.12667498  1  0  0.892038  0  0.406942  0  0  0.842967  0  0.562688  0  0  0.854946  0  0.539477  0  0.876454  0  0.734068  0.834143  0  0.579286  0
Na  Na4  1  0.46875964  0.97424608  0.62667498  1  0  0.89204  0  0.406937  0  0  0.842978  0  0.562676  0  0  0.854954  0  0.539465  0  0.876455  0  0.734069  0.834152  0  0.579271  0
Na  Na5  1  0.53124108  0.52575407  0.12667498  1  0  0.89205  0  0.40693  0  0  0.842972  0  0.56268  0  0  0.854953  0  0.539471  0  0.876455  0  0.734073  0.83415  0  0.579279  0
Na  Na6  1  0.03123973  0.47424570  0.37332502  1  0  0.892038  0  0.406939  0  0  0.842975  0  0.562679  0  0  0.854953  0  0.539467  0  0.876456  0  0.734065  0.834148  0  0.579276  0
Na  Na7  1  0.96876000  0.02575369  0.87332502  1  0  0.892053  0  0.40693  0  0  0.842969  0  0.56268  0  0  0.854951  0  0.539472  0  0.876456  0  0.734069  0.834149  0  0.579278  0
Na  Na8  1  0.04122362  0.94894709  0.62822983  1  0  0.896747  0  0.399453  0  0  0.847709  0  0.559151  0  0  0.859269  0  0.536656  0  0.878585  0  0.713215  0.839287  0  0.575061  0
Na  Na9  1  0.95877710  0.55105306  0.12822983  1  0  0.896728  0  0.399461  0  0  0.84772  0  0.559129  0  0  0.859282  0  0.536636  0  0.878579  0  0.713218  0.839301  0  0.57504  0
Na  Na10  1  0.45877674  0.44894770  0.37177017  1  0  0.896735  0  0.399451  0  0  0.847716  0  0.559132  0  0  0.859277  0  0.53664  0  0.878586  0  0.713217  0.839297  0  0.575042  0
Na  Na11  1  0.54122398  0.05105367  0.87177017  1  0  0.896748  0  0.39944  0  0  0.84772  0  0.559125  0  0  0.859281  0  0.536633  0  0.878589  0  0.713217  0.839301  0  0.575036  0
Na  Na12  1  0.95877610  0.05105367  0.37177017  1  0  0.896743  0  0.399449  0  0  0.847716  0  0.559137  0  0  0.859276  0  0.536645  0  0.878587  0  0.713218  0.839295  0  0.575049  0
Na  Na13  1  0.04122362  0.44894671  0.87177017  1  0  0.896742  0  0.399447  0  0  0.847722  0  0.559124  0  0  0.859284  0  0.536631  0  0.878588  0  0.713218  0.839304  0  0.575034  0
Na  Na14  1  0.54122298  0.55105406  0.62822983  1  0  0.896736  0  0.399447  0  0  0.847727  0  0.559118  0  0  0.859288  0  0.536626  0  0.878585  0  0.713223  0.839307  0  0.57503  0
Na  Na15  1  0.45877674  0.94894709  0.12822983  1  0  0.89673  0  0.399456  0  0  0.847713  0  0.559137  0  0  0.859275  0  0.536644  0  0.878587  0  0.713214  0.839294  0  0.575048  0
H  H16  1  0.71186675  0.30109705  0.68682588  1  0  0.085919  0  0.928543  0  0  0.093812  0  0.990415  0  0  0.096688  0  0.988055  0  0.117682  0  0.127615  0.091713  0  0.992314  0
H  H17  1  0.28813297  0.19890333  0.18682588  1  0  0.085933  0  0.928534  0  0  0.093828  0  0.990399  0  0  0.096704  0  0.988038  0  0.117713  0  0.127624  0.091729  0  0.992298  0
H  H18  1  0.78813234  0.80109644  0.31317412  1  0  0.085928  0  0.928538  0  0  0.093819  0  0.990408  0  0  0.096693  0  0.988049  0  0.117708  0  0.127622  0.09172  0  0.992306  0
H  H19  1  0.21186739  0.69890172  0.81317412  1  0  0.085938  0  0.928528  0  0  0.093826  0  0.99041  0  0  0.096702  0  0.988047  0  0.117693  0  0.12762  0.091726  0  0.99231  0
H  H20  1  0.28813297  0.69890371  0.31317412  1  0  0.085934  0  0.928555  0  0  0.093828  0  0.99042  0  0  0.096703  0  0.98806  0  0.117709  0  0.127621  0.091727  0  0.992321  0
H  H21  1  0.71186775  0.80109842  0.81317412  1  0  0.085903  0  0.928512  0  0  0.093798  0  0.990392  0  0  0.096673  0  0.988032  0  0.117689  0  0.127618  0.091698  0  0.99229  0
H  H22  1  0.21186739  0.19890234  0.68682588  1  0  0.085939  0  0.928516  0  0  0.093828  0  0.990392  0  0  0.096705  0  0.988028  0  0.117727  0  0.127627  0.091729  0  0.99229  0
H  H23  1  0.78813333  0.30109804  0.18682664  1  0  0.085929  0  0.928492  0  0  0.093822  0  0.990373  0  0  0.096698  0  0.988011  0  0.117715  0  0.127632  0.091723  0  0.992273  0
H  H24  1  0.79885711  0.19644719  0.52905163  1  0  0.07872  0  0.929159  0  0  0.085383  0  0.993858  0  0  0.088231  0  0.991504  0  0.117349  0  0.125628  0.083176  0  0.995987  0
H  H25  1  0.20114262  0.30355319  0.02905163  1  0  0.078788  0  0.929072  0  0  0.085392  0  0.993838  0  0  0.08824  0  0.991484  0  0.117341  0  0.125641  0.083177  0  0.995959  0
H  H26  1  0.70114297  0.69644757  0.47094837  1  0  0.078705  0  0.929137  0  0  0.085375  0  0.993841  0  0  0.08822  0  0.991484  0  0.117342  0  0.125622  0.08317  0  0.995972  0
H  H27  1  0.29885774  0.80355257  0.97094837  1  0  0.078751  0  0.929099  0  0  0.085381  0  0.993831  0  0  0.088229  0  0.991477  0  0.117323  0  0.125635  0.083166  0  0.995953  0
H  H28  1  0.20114262  0.80355357  0.47094837  1  0  0.078788  0  0.929085  0  0  0.08539  0  0.993848  0  0  0.088238  0  0.991494  0  0.117339  0  0.125638  0.083175  0  0.99597  0
H  H29  1  0.79885711  0.69644757  0.97094837  1  0  0.078777  0  0.929057  0  0  0.085381  0  0.993826  0  0  0.088229  0  0.991471  0  0.117375  0  0.125627  0.083173  0  0.995954  0
H  H30  1  0.29885675  0.30355319  0.52905163  1  0  0.078797  0  0.929077  0  0  0.0854  0  0.993843  0  0  0.088247  0  0.991489  0  0.117339  0  0.125639  0.083191  0  0.99597  0
H  H31  1  0.70114297  0.19644719  0.02905240  1  0  0.078717  0  0.92918  0  0  0.085375  0  0.993882  0  0  0.088223  0  0.991528  0  0.117344  0  0.125631  0.083162  0  0.996005  0
H  H32  1  0.49549118  0.24753065  0.69856911  1  0  0.39089  0  0.920618  0  0  0.365919  0  0.983288  0  0  0.376479  0  0.967921  0  0.631394  0  0.303037  0.358476  0  0.994112  0
H  H33  1  0.50450954  0.25247072  0.19856911  1  0  0.390911  0  0.920607  0  0  0.365944  0  0.983255  0  0  0.376504  0  0.967886  0  0.631399  0  0.303051  0.358501  0  0.994079  0
H  H34  1  0.00450918  0.74753004  0.30143089  1  0  0.390911  0  0.920592  0  0  0.365943  0  0.983251  0  0  0.376502  0  0.967885  0  0.631399  0  0.303054  0.3585  0  0.994076  0
H  H35  1  0.99549054  0.75246812  0.80143012  1  0  0.390914  0  0.920582  0  0  0.365945  0  0.983249  0  0  0.376506  0  0.967881  0  0.631395  0  0.303051  0.358502  0  0.994074  0
H  H36  1  0.50450954  0.75247011  0.30143089  1  0  0.390916  0  0.920583  0  0  0.365946  0  0.983248  0  0  0.376505  0  0.96788  0  0.631399  0  0.303057  0.358502  0  0.994073  0
H  H37  1  0.49549018  0.74753103  0.80143089  1  0  0.390914  0  0.920564  0  0  0.365957  0  0.983228  0  0  0.376517  0  0.967859  0  0.631398  0  0.303069  0.358514  0  0.994052  0
H  H38  1  0.99549054  0.25246874  0.69856911  1  0  0.390914  0  0.920579  0  0  0.365945  0  0.983246  0  0  0.376505  0  0.967878  0  0.631397  0  0.303056  0.358502  0  0.99407  0
H  H39  1  0.00451017  0.24753164  0.19856911  1  0  0.390818  0  0.920619  0  0  0.36585  0  0.983366  0  0  0.37641  0  0.967997  0  0.631394  0  0.303023  0.358406  0  0.994191  0
H  H40  1  0.73643357  0.98582288  0.51669472  1  0  0.393972  0  0.91751  0  0  0.369117  0  0.978444  0  0  0.379935  0  0.962614  0  0.661993  0  0.304786  0.361623  0  0.989388  0
H  H41  1  0.26356715  0.51417727  0.01669472  1  0  0.393984  0  0.917487  0  0  0.369125  0  0.978433  0  0  0.379943  0  0.962603  0  0.661995  0  0.304789  0.361631  0  0.989377  0
H  H42  1  0.76356651  0.48582250  0.48330528  1  0  0.393975  0  0.917548  0  0  0.369116  0  0.978458  0  0  0.379933  0  0.96263  0  0.661994  0  0.304773  0.361622  0  0.989402  0
H  H43  1  0.23643421  0.01417788  0.98330528  1  0  0.393963  0  0.917556  0  0  0.369105  0  0.978471  0  0  0.379924  0  0.962641  0  0.661988  0  0.304766  0.361611  0  0.989416  0
H  H44  1  0.26356615  0.01417788  0.48330528  1  0  0.393965  0  0.917538  0  0  0.369112  0  0.978456  0  0  0.37993  0  0.962626  0  0.661994  0  0.304771  0.361617  0  0.989402  0
H  H45  1  0.73643457  0.48582250  0.98330528  1  0  0.393971  0  0.917549  0  0  0.369108  0  0.978469  0  0  0.379927  0  0.962637  0  0.661988  0  0.304765  0.361614  0  0.989413  0
H  H46  1  0.23643321  0.51417727  0.51669472  1  0  0.393966  0  0.91752  0  0  0.369111  0  0.978453  0  0  0.379926  0  0.962628  0  0.661994  0  0.304787  0.361617  0  0.989397  0
H  H47  1  0.76356551  0.98582189  0.01669472  1  0  0.393968  0  0.91753  0  0  0.369112  0  0.978456  0  0  0.379931  0  0.962624  0  0.661987  0  0.304772  0.361618  0  0.9894  0
C  C48  1  0.78652477  0.10711294  0.72425012  1  0  0.656383  0  3.883905  0  0  0.609564  0  4.188546  0  0  0.641692  0  4.179591  0  1.578617  0  0.199188  0.587731  0  4.194057  0
C  C49  1  0.21347595  0.39288645  0.22424936  1  0  0.6562  0  3.883927  0  0  0.609386  0  4.188564  0  0  0.641519  0  4.179603  0  1.578512  0  0.199109  0.587553  0  4.194078  0
C  C50  1  0.71347531  0.60711432  0.27575141  1  0  0.656322  0  3.883756  0  0  0.609462  0  4.188466  0  0  0.641596  0  4.179503  0  1.578593  0  0.19914  0.58763  0  4.193976  0
C  C51  1  0.28652441  0.89288583  0.77575064  1  0  0.656315  0  3.883865  0  0  0.609466  0  4.188559  0  0  0.641593  0  4.179608  0  1.57859  0  0.199133  0.587633  0  4.194072  0
C  C52  1  0.21347595  0.89288683  0.27575064  1  0  0.65621  0  3.883946  0  0  0.609405  0  4.188567  0  0  0.641539  0  4.179603  0  1.578599  0  0.199083  0.587573  0  4.19408  0
C  C53  1  0.78652377  0.60711432  0.77574911  1  0  0.656172  0  3.884061  0  0  0.609366  0  4.188691  0  0  0.641488  0  4.179748  0  1.578625  0  0.199148  0.587533  0  4.194202  0
C  C54  1  0.28652341  0.39288545  0.72424936  1  0  0.656275  0  3.88378  0  0  0.609422  0  4.188491  0  0  0.641546  0  4.179542  0  1.578611  0  0.19913  0.587589  0  4.194003  0
C  C55  1  0.71347531  0.10711394  0.22424936  1  0  0.656362  0  3.883817  0  0  0.609523  0  4.188497  0  0  0.641652  0  4.179542  0  1.578588  0  0.199171  0.58769  0  4.19401  0
C  C56  1  0.68525302  0.19710640  0.66946009  1  0  0.062502  0  3.621743  0  0  0.040042  0  3.871783  0  0  0.040953  0  3.878126  0  0.419904  0  -0.003676  0.039292  0  3.867569  0
C  C57  1  0.31474670  0.30289497  0.16946085  1  0  0.062516  0  3.621842  0  0  0.040058  0  3.871866  0  0  0.040966  0  3.878209  0  0.419896  0  -0.003672  0.039297  0  3.867645  0
C  C58  1  0.81474706  0.69710579  0.33053991  1  0  0.062504  0  3.621748  0  0  0.040067  0  3.871787  0  0  0.040971  0  3.878126  0  0.419886  0  -0.003659  0.03932  0  3.867576  0
C  C59  1  0.18525166  0.80289635  0.83053991  1  0  0.062503  0  3.621863  0  0  0.040053  0  3.871895  0  0  0.040962  0  3.878244  0  0.419905  0  -0.003674  0.039293  0  3.867675  0
C  C60  1  0.31474670  0.80289436  0.33053915  1  0  0.062486  0  3.621829  0  0  0.040027  0  3.871849  0  0  0.040936  0  3.878191  0  0.419893  0  -0.00368  0.039266  0  3.867629  0
C  C61  1  0.68525202  0.69710380  0.83053991  1  0  0.062649  0  3.62156  0  0  0.040173  0  3.871613  0  0  0.041085  0  3.877959  0  0.419873  0  -0.003666  0.039423  0  3.867397  0
C  C62  1  0.18525166  0.30289696  0.66946009  1  0  0.062546  0  3.621834  0  0  0.040105  0  3.871853  0  0  0.041015  0  3.878199  0  0.419861  0  -0.003655  0.039354  0  3.867638  0
C  C63  1  0.81474806  0.19710342  0.16946085  1  0  0.062545  0  3.621712  0  0  0.040081  0  3.871773  0  0  0.040991  0  3.878116  0  0.419913  0  -0.003691  0.039323  0  3.867553  0
C  C64  1  0.69502224  0.17635334  0.55245241  1  0  0.063333  0  3.623909  0  0  0.039626  0  3.877158  0  0  0.040733  0  3.883852  0  0.420207  0  -0.005503  0.038676  0  3.872981  0
C  C65  1  0.30497649  0.32364605  0.05245241  1  0  0.063361  0  3.623814  0  0  0.039679  0  3.877065  0  0  0.04079  0  3.883758  0  0.420136  0  -0.005497  0.038779  0  3.872809  0
C  C66  1  0.80497685  0.67635372  0.44754759  1  0  0.06341  0  3.623739  0  0  0.039673  0  3.877026  0  0  0.0408  0  3.883691  0  0.420144  0  -0.005502  0.038707  0  3.872874  0
C  C67  1  0.19502387  0.82364543  0.94754759  1  0  0.063368  0  3.623951  0  0  0.039683  0  3.877167  0  0  0.040793  0  3.883863  0  0.42014  0  -0.005478  0.03878  0  3.872914  0
C  C68  1  0.30497649  0.82364643  0.44754759  1  0  0.063345  0  3.623868  0  0  0.039672  0  3.877102  0  0  0.040781  0  3.883797  0  0.420132  0  -0.005499  0.03877  0  3.872848  0
C  C69  1  0.69502423  0.67635372  0.94754759  1  0  0.063338  0  3.623772  0  0  0.039653  0  3.877009  0  0  0.040763  0  3.883703  0  0.420087  0  -0.005497  0.038708  0  3.872824  0
C  C70  1  0.19502387  0.32364605  0.55245241  1  0  0.063267  0  3.623842  0  0  0.039595  0  3.877072  0  0  0.040705  0  3.883763  0  0.420132  0  -0.005515  0.038653  0  3.872882  0
C  C71  1  0.80497685  0.17635334  0.05245241  1  0  0.063305  0  3.623887  0  0  0.039599  0  3.877141  0  0  0.040709  0  3.883834  0  0.420143  0  -0.005502  0.038688  0  3.8729  0
C  C72  1  0.60467296  0.27651484  0.49612818  1  0  0.656508  0  3.878918  0  0  0.608739  0  4.186167  0  0  0.640826  0  4.177162  0  1.577272  0  0.197629  0.586954  0  4.191751  0
C  C73  1  0.39532676  0.22348653  0.99612818  1  0  0.656418  0  3.878979  0  0  0.608676  0  4.186184  0  0  0.640761  0  4.177182  0  1.577265  0  0.197612  0.58688  0  4.191764  0
C  C74  1  0.89532712  0.77651522  0.50387182  1  0  0.656499  0  3.878911  0  0  0.608738  0  4.18616  0  0  0.64082  0  4.177155  0  1.577276  0  0.197639  0.586958  0  4.191744  0
C  C75  1  0.10467460  0.72348592  0.00387105  1  0  0.656487  0  3.878999  0  0  0.608752  0  4.186178  0  0  0.640835  0  4.177176  0  1.577234  0  0.19765  0.586955  0  4.19176  0
C  C76  1  0.39532576  0.72348592  0.50387182  1  0  0.656469  0  3.879011  0  0  0.608729  0  4.186193  0  0  0.640816  0  4.177188  0  1.577262  0  0.197628  0.586934  0  4.191773  0
C  C77  1  0.60467396  0.77651423  0.00387182  1  0  0.656489  0  3.878955  0  0  0.608757  0  4.186134  0  0  0.640842  0  4.17713  0  1.577266  0  0.197653  0.586971  0  4.191718  0
C  C78  1  0.10467360  0.22348355  0.49612895  1  0  0.656492  0  3.878931  0  0  0.608739  0  4.186149  0  0  0.640824  0  4.177145  0  1.577267  0  0.197661  0.586952  0  4.191731  0
C  C79  1  0.89532612  0.27651484  0.99612818  1  0  0.656544  0  3.878862  0  0  0.608787  0  4.186089  0  0  0.640871  0  4.177086  0  1.57727  0  0.197673  0.586992  0  4.191671  0
O  O80  1  0.90976427  0.11924570  0.69868924  1  0  -0.739216  0  2.006941  0  0  -0.689593  0  2.251977  0  0  -0.713299  0  2.23803  0  -1.242845  0  -0.420319  -0.673099  0  2.261027  0
O  O81  1  0.09023545  0.38075468  0.19868848  1  0  -0.739116  0  2.006922  0  0  -0.689513  0  2.251974  0  0  -0.71322  0  2.238022  0  -1.242833  0  -0.420294  -0.67302  0  2.261024  0
O  O82  1  0.59023581  0.61924509  0.30131152  1  0  -0.739196  0  2.006854  0  0  -0.689555  0  2.251927  0  0  -0.713263  0  2.237977  0  -1.242842  0  -0.420309  -0.673063  0  2.260976  0
O  O83  1  0.40976391  0.88075407  0.80131076  1  0  -0.739201  0  2.006954  0  0  -0.689577  0  2.251995  0  0  -0.713281  0  2.238046  0  -1.242832  0  -0.420312  -0.673083  0  2.261044  0
O  O84  1  0.09023545  0.88075407  0.30131076  1  0  -0.739172  0  2.006893  0  0  -0.689551  0  2.251931  0  0  -0.713258  0  2.237979  0  -1.242836  0  -0.420275  -0.673058  0  2.260981  0
O  O85  1  0.90976327  0.61924509  0.80131076  1  0  -0.739175  0  2.007065  0  0  -0.689555  0  2.252078  0  0  -0.713259  0  2.238134  0  -1.242823  0  -0.42031  -0.673062  0  2.261127  0
O  O86  1  0.40976391  0.38075468  0.69868848  1  0  -0.739187  0  2.006861  0  0  -0.689547  0  2.251917  0  0  -0.713251  0  2.237971  0  -1.24282  0  -0.420299  -0.673055  0  2.260967  0
O  O87  1  0.59023581  0.11924570  0.19868924  1  0  -0.739225  0  2.006919  0  0  -0.689593  0  2.251958  0  0  -0.713297  0  2.238008  0  -1.242836  0  -0.420322  -0.673099  0  2.261007  0
O  O88  1  0.74658720  0.02651713  0.79123638  1  0  -0.690809  0  1.947593  0  0  -0.649634  0  2.188835  0  0  -0.67029  0  2.175217  0  -1.215237  0  -0.418799  -0.635387  0  2.197872  0
O  O89  1  0.25341351  0.47348424  0.29123714  1  0  -0.69076  0  1.947501  0  0  -0.649582  0  2.188736  0  0  -0.670239  0  2.175117  0  -1.215167  0  -0.418779  -0.635334  0  2.197771  0
O  O90  1  0.75341387  0.52651652  0.20876286  1  0  -0.690787  0  1.947464  0  0  -0.649607  0  2.18872  0  0  -0.670266  0  2.175099  0  -1.215235  0  -0.418783  -0.63536  0  2.197757  0
O  O91  1  0.24658685  0.97348363  0.70876362  1  0  -0.690787  0  1.947489  0  0  -0.649603  0  2.188744  0  0  -0.670258  0  2.175127  0  -1.215245  0  -0.418772  -0.635353  0  2.197779  0
O  O92  1  0.25341351  0.97348363  0.20876362  1  0  -0.690722  0  1.947583  0  0  -0.649564  0  2.188803  0  0  -0.670222  0  2.175183  0  -1.215248  0  -0.418753  -0.635316  0  2.197838  0
O  O93  1  0.74658621  0.52652049  0.70876132  1  0  -0.690726  0  1.947661  0  0  -0.649551  0  2.188902  0  0  -0.670204  0  2.175287  0  -1.215237  0  -0.418785  -0.635302  0  2.197937  0
O  O94  1  0.24658685  0.47348325  0.79123714  1  0  -0.69079  0  1.947451  0  0  -0.649609  0  2.188713  0  0  -0.670264  0  2.175098  0  -1.215228  0  -0.418799  -0.635363  0  2.197751  0
O  O95  1  0.75341288  0.02651614  0.29123714  1  0  -0.690811  0  1.947472  0  0  -0.649632  0  2.188717  0  0  -0.670288  0  2.1751  0  -1.21525  0  -0.418791  -0.635383  0  2.197754  0
O  O96  1  0.55397868  0.16661219  0.70516880  1  0  -0.658648  0  2.127552  0  0  -0.613724  0  2.355597  0  0  -0.627602  0  2.337422  0  -1.178687  0  -0.497907  -0.60377  0  2.368028  0
O  O97  1  0.44602105  0.33338819  0.20516880  1  0  -0.658639  0  2.127599  0  0  -0.613724  0  2.355637  0  0  -0.627604  0  2.337463  0  -1.178692  0  -0.497893  -0.603772  0  2.368075  0
O  O98  1  0.94602041  0.66661158  0.29483120  1  0  -0.65866  0  2.127542  0  0  -0.613746  0  2.355591  0  0  -0.627625  0  2.337417  0  -1.17869  0  -0.497925  -0.603793  0  2.368024  0
O  O99  1  0.05398031  0.83338758  0.79483120  1  0  -0.658661  0  2.127599  0  0  -0.613737  0  2.355658  0  0  -0.627616  0  2.337483  0  -1.178691  0  -0.497905  -0.603786  0  2.368096  0
O  O100  1  0.44602105  0.83338857  0.29483120  1  0  -0.658644  0  2.127563  0  0  -0.613726  0  2.355625  0  0  -0.627604  0  2.337449  0  -1.178692  0  -0.497909  -0.603773  0  2.368062  0
O  O101  1  0.55398067  0.66661158  0.79483197  1  0  -0.658709  0  2.127465  0  0  -0.613802  0  2.355552  0  0  -0.627683  0  2.337377  0  -1.178692  0  -0.497953  -0.603851  0  2.367988  0
O  O102  1  0.05398031  0.33338819  0.70516803  1  0  -0.658667  0  2.127546  0  0  -0.613753  0  2.35561  0  0  -0.627631  0  2.337432  0  -1.178699  0  -0.497925  -0.603799  0  2.368044  0
O  O103  1  0.94602041  0.16661120  0.20516880  1  0  -0.658589  0  2.127503  0  0  -0.613676  0  2.355616  0  0  -0.627554  0  2.33744  0  -1.178702  0  -0.497905  -0.603722  0  2.36805  0
O  O104  1  0.65606619  0.04380738  0.52776919  1  0  -0.656444  0  2.140814  0  0  -0.611568  0  2.36809  0  0  -0.626262  0  2.350841  0  -1.20011  0  -0.505995  -0.601172  0  2.379975  0
O  O105  1  0.34393453  0.45619300  0.02776919  1  0  -0.656497  0  2.140717  0  0  -0.611579  0  2.368018  0  0  -0.62628  0  2.350769  0  -1.200046  0  -0.505996  -0.601202  0  2.379889  0
O  O106  1  0.84393489  0.54380776  0.47223157  1  0  -0.656477  0  2.140793  0  0  -0.611592  0  2.368059  0  0  -0.626291  0  2.350801  0  -1.200054  0  -0.505985  -0.601192  0  2.37995  0
O  O107  1  0.15606583  0.95619239  0.97223081  1  0  -0.656447  0  2.140825  0  0  -0.611565  0  2.368071  0  0  -0.626263  0  2.350823  0  -1.200038  0  -0.505976  -0.601186  0  2.379945  0
O  O108  1  0.34393453  0.95619239  0.47223081  1  0  -0.656463  0  2.140793  0  0  -0.611574  0  2.368047  0  0  -0.62627  0  2.350798  0  -1.200039  0  -0.505982  -0.601192  0  2.379917  0
O  O109  1  0.65606619  0.54380776  0.97223081  1  0  -0.656479  0  2.140799  0  0  -0.611582  0  2.368038  0  0  -0.626281  0  2.350792  0  -1.200034  0  -0.505983  -0.601191  0  2.379926  0
O  O110  1  0.15606583  0.45619201  0.52776843  1  0  -0.656441  0  2.140798  0  0  -0.61155  0  2.368067  0  0  -0.626244  0  2.350817  0  -1.200039  0  -0.505993  -0.601157  0  2.379948  0
O  O111  1  0.84393389  0.04380738  0.02776919  1  0  -0.656437  0  2.14081  0  0  -0.611546  0  2.368083  0  0  -0.626244  0  2.350836  0  -1.200039  0  -0.505973  -0.601163  0  2.379957  0
O  O112  1  0.63218932  0.39999574  0.50651016  1  0  -0.735235  0  2.009446  0  0  -0.685809  0  2.254985  0  0  -0.709036  0  2.240582  0  -1.22697  0  -0.417562  -0.669588  0  2.264246  0
O  O113  1  0.36781040  0.10000365  0.00651016  1  0  -0.735239  0  2.009485  0  0  -0.685822  0  2.254975  0  0  -0.70905  0  2.240571  0  -1.22695  0  -0.417578  -0.669603  0  2.264245  0
O  O114  1  0.86781076  0.89999513  0.49348984  1  0  -0.735234  0  2.009501  0  0  -0.685807  0  2.255019  0  0  -0.709035  0  2.240617  0  -1.226942  0  -0.417557  -0.669586  0  2.264278  0
O  O115  1  0.13218996  0.60000502  0.99348984  1  0  -0.735231  0  2.009496  0  0  -0.685819  0  2.255001  0  0  -0.709045  0  2.240598  0  -1.226921  0  -0.417558  -0.669594  0  2.264259  0
O  O116  1  0.36781040  0.60000502  0.49348984  1  0  -0.73523  0  2.009524  0  0  -0.685824  0  2.255022  0  0  -0.70905  0  2.240619  0  -1.226928  0  -0.417561  -0.669601  0  2.264281  0
O  O117  1  0.63218932  0.89999513  0.99348984  1  0  -0.735252  0  2.00952  0  0  -0.685834  0  2.255012  0  0  -0.70906  0  2.240606  0  -1.226933  0  -0.417564  -0.66961  0  2.264271  0
O  O118  1  0.13218796  0.10000464  0.50651246  1  0  -0.73522  0  2.009498  0  0  -0.685794  0  2.255027  0  0  -0.709021  0  2.240622  0  -1.227006  0  -0.417561  -0.669572  0  2.264289  0
O  O119  1  0.86781076  0.39999574  0.00651016  1  0  -0.735227  0  2.009466  0  0  -0.685812  0  2.254984  0  0  -0.709038  0  2.24058  0  -1.226974  0  -0.417559  -0.669592  0  2.264253  0
O  O120  1  0.50759587  0.23457985  0.44377372  1  0  -0.696664  0  1.92133  0  0  -0.652572  0  2.155931  0  0  -0.673282  0  2.142585  0  -1.215609  0  -0.435407  -0.638078  0  2.164899  0
O  O121  1  0.49240386  0.26542053  0.94377296  1  0  -0.696616  0  1.921289  0  0  -0.652513  0  2.155869  0  0  -0.673224  0  2.142527  0  -1.215614  0  -0.435385  -0.638022  0  2.164841  0
O  O122  1  0.99240422  0.73458023  0.55622704  1  0  -0.696683  0  1.921325  0  0  -0.652573  0  2.155917  0  0  -0.673284  0  2.142572  0  -1.215623  0  -0.435418  -0.638079  0  2.164881  0
O  O123  1  0.00759650  0.76542092  0.05622704  1  0  -0.696701  0  1.921278  0  0  -0.652607  0  2.155849  0  0  -0.673316  0  2.142504  0  -1.215594  0  -0.435462  -0.638114  0  2.164821  0
O  O124  1  0.49240386  0.76541992  0.55622704  1  0  -0.69666  0  1.921325  0  0  -0.652572  0  2.155899  0  0  -0.673284  0  2.142553  0  -1.215608  0  -0.435422  -0.638081  0  2.16487  0
O  O125  1  0.50759686  0.73457923  0.05622704  1  0  -0.696671  0  1.921296  0  0  -0.652581  0  2.155875  0  0  -0.673292  0  2.142531  0  -1.215595  0  -0.435435  -0.638088  0  2.164844  0
O  O126  1  0.00759750  0.26541855  0.44377372  1  0  -0.696661  0  1.921274  0  0  -0.65257  0  2.155868  0  0  -0.673279  0  2.142522  0  -1.215578  0  -0.435441  -0.638076  0  2.164836  0
O  O127  1  0.99240322  0.23457985  0.94377296  1  0  -0.696705  0  1.92129  0  0  -0.652596  0  2.155885  0  0  -0.673308  0  2.142543  0  -1.215602  0  -0.435452  -0.638105  0  2.164859  0
