# generated using pymatgen
data_NiH11C13NO6
_symmetry_space_group_name_H-M   'P 1'
_cell_length_a   6.98272701
_cell_length_b   9.51953621
_cell_length_c   10.40849593
_cell_angle_alpha   111.77281995
_cell_angle_beta   100.81136375
_cell_angle_gamma   96.54695906
_symmetry_Int_Tables_number   1
_chemical_formula_structural   NiH11C13NO6
_chemical_formula_sum   'Ni2 H22 C26 N2 O12'
_cell_volume   618.19969478
_cell_formula_units_Z   2
loop_
 _symmetry_equiv_pos_site_id
 _symmetry_equiv_pos_as_xyz
  1  'x, y, z'
loop_
 _atom_site_type_symbol
 _atom_site_label
 _atom_site_symmetry_multiplicity
 _atom_site_fract_x
 _atom_site_fract_y
 _atom_site_fract_z
 _atom_site_occupancy
 _atom_site_pbe_cm5_charge
 _atom_site_pbe_ddec_charge
 _atom_site_pbe_ddec_spin_density
 _atom_site_pbe_ddec_sum_bond_order
 _atom_site_pbe_magmom
Ni  Ni0  1  0.48983804  0.01885349  0.22101385  1  0.60522  0.83552  -0.136454  2.330573  -0.083
Ni  Ni1  1  0.51029750  0.98104500  0.77893373  1  0.604896  0.8352  0.136278  2.330859  0.083
H  H2  1  0.03416132  0.35895109  0.28223499  1  0.104624  0.112535  -4.9e-05  1.020209  0.0
H  H3  1  0.96566206  0.64095205  0.71766680  1  0.104652  0.112487  4.9e-05  1.020561  0.0
H  H4  1  0.76653224  0.67013841  0.02618404  1  0.105293  0.110393  0.000261  1.026688  0.0
H  H5  1  0.23330400  0.33008488  0.97404385  1  0.105339  0.110515  -0.000261  1.02645  0.0
H  H6  1  0.58214640  0.40310304  0.96767679  1  0.103419  0.104722  7.6e-05  1.04368  0.0
H  H7  1  0.41762750  0.59709390  0.03252831  1  0.103436  0.104913  -7.7e-05  1.043452  0.0
H  H8  1  0.19485547  0.81285577  0.51810203  1  0.12229  0.106565  -0.001448  0.993745  -0.001
H  H9  1  0.80538809  0.18733130  0.48187744  1  0.122151  0.106562  0.001452  0.993409  0.001
H  H10  1  0.42656090  0.45677516  0.23015286  1  0.110643  0.121087  -0.000161  0.991436  0.0
H  H11  1  0.57283704  0.54266953  0.76987771  1  0.110813  0.121358  0.000161  0.991906  0.0
H  H12  1  0.76232437  0.57413967  0.40296921  1  0.103583  0.108325  -0.000576  1.029033  -0.001
H  H13  1  0.23741360  0.42551759  0.59666347  1  0.103431  0.107848  0.000579  1.028648  0.001
H  H14  1  0.79405397  0.80842301  0.62752455  1  0.123022  0.101734  -0.001244  1.000097  -0.001
H  H15  1  0.20615737  0.19155612  0.37197401  1  0.123197  0.101762  0.00125  1.000284  0.001
H  H16  1  0.13871507  0.02855308  0.12257753  1  0.290969  0.382295  -0.000397  0.95866  0.0
H  H17  1  0.86138358  0.97141376  0.87720389  1  0.290731  0.381692  0.0004  0.959594  0.0
H  H18  1  0.28471871  0.09405267  0.04003159  1  0.301522  0.397812  -0.000234  0.929081  0.0
H  H19  1  0.71569813  0.90596959  0.95993489  1  0.301643  0.398086  0.000242  0.928552  0.0
H  H20  1  0.82165620  0.91565912  0.24648405  1  0.29002  0.380004  -0.000557  0.966472  0.0
H  H21  1  0.17863024  0.08449772  0.75379631  1  0.290151  0.380491  0.000562  0.965828  0.0
H  H22  1  0.66081518  0.82769995  0.29516448  1  0.309428  0.384441  -0.000456  0.915251  0.0
H  H23  1  0.33976856  0.17259100  0.70542089  1  0.30916  0.384221  0.000458  0.915249  0.0
C  C24  1  0.66239857  0.21839495  0.09927961  1  0.212727  0.573454  -0.006575  4.166236  -0.006
C  C25  1  0.33750861  0.78158417  0.90071066  1  0.213086  0.573539  0.006673  4.165297  0.006
C  C26  1  0.97703713  0.42711150  0.22531457  1  -0.079853  -0.140911  -0.001825  3.926758  -0.001
C  C27  1  0.02281589  0.57289441  0.77468060  1  -0.079712  -0.140608  0.001845  3.926999  0.001
C  C28  1  0.08764884  0.57243332  0.25387420  1  5.9e-05  0.049984  -0.000457  3.975543  0.0
C  C29  1  0.91222393  0.42759447  0.74619627  1  6.9e-05  0.049564  0.000455  3.975465  0.0
C  C30  1  0.00787462  0.66216291  0.18325113  1  -0.01237  -0.079886  0.000222  3.930507  0.001
C  C31  1  0.99204752  0.33795255  0.81687078  1  -0.012389  -0.079022  -0.000214  3.930416  -0.001
C  C32  1  0.82411175  0.60090449  0.08178094  1  -0.087502  -0.106717  0.000723  3.998354  0.001
C  C33  1  0.17576201  0.39925508  0.91838033  1  -0.087697  -0.107271  -0.000723  3.998488  -0.001
C  C34  1  0.72072194  0.45402623  0.05002100  1  -0.086337  -0.098646  -0.000862  3.989424  -0.001
C  C35  1  0.27909742  0.54612661  0.95014341  1  -0.086239  -0.098795  0.000877  3.989264  0.001
C  C36  1  0.79298500  0.36757679  0.12445436  1  -0.014534  -0.019312  0.001675  3.958628  0.002
C  C37  1  0.20684977  0.63248237  0.87558814  1  -0.014566  -0.019042  -0.001689  3.958127  -0.002
C  C38  1  0.11562347  0.81667178  0.20020356  1  0.21726  0.575653  0.000185  4.171013  0.0
C  C39  1  0.88441930  0.18341895  0.79988918  1  0.217069  0.575137  -0.000187  4.171778  0.0
C  C40  1  0.31573530  0.75553552  0.48789112  1  0.055629  0.055939  -0.0007  3.881071  0.0
C  C41  1  0.68437446  0.24450525  0.51204068  1  0.055533  0.055936  0.000708  3.879917  0.0
C  C42  1  0.28514669  0.62902926  0.35764192  1  0.001105  0.03991  -0.003014  3.998241  -0.003
C  C43  1  0.71474045  0.37089676  0.64233932  1  0.001539  0.039972  0.003028  3.998158  0.003
C  C44  1  0.44648060  0.55881307  0.32847418  1  -0.066075  -0.079722  0.001433  3.91324  0.001
C  C45  1  0.55319429  0.44084327  0.67145742  1  -0.06684  -0.080663  -0.001444  3.914232  -0.001
C  C46  1  0.63269250  0.62345718  0.42474066  1  -0.088565  -0.133981  -0.003164  4.008916  -0.003
C  C47  1  0.36712724  0.37625294  0.57499931  1  -0.087905  -0.132444  0.003182  4.007415  0.003
C  C48  1  0.65164197  0.75288156  0.54968855  1  0.047751  0.085381  -0.001533  3.927285  -0.001
C  C49  1  0.34845317  0.24702403  0.44996217  1  0.047676  0.085006  0.001521  3.927438  0.001
N  N50  1  0.49394738  0.81492734  0.58201205  1  -0.319341  -0.202935  -0.051345  3.582572  -0.051
N  N51  1  0.50624248  0.18507036  0.41780032  1  -0.31981  -0.202965  0.051565  3.582966  0.052
O  O52  1  0.70449204  0.16349249  0.19368966  1  -0.302228  -0.519285  0.009718  2.302649  0.01
O  O53  1  0.29547395  0.83642630  0.80623983  1  -0.302343  -0.519237  -0.009744  2.301668  -0.01
O  O54  1  0.51359233  0.16209924  0.99057592  1  -0.316906  -0.589172  -0.014891  2.362123  -0.012
O  O55  1  0.48637367  0.83788197  0.00942752  1  -0.317245  -0.58957  0.014952  2.36136  0.012
O  O56  1  0.30478536  0.84602305  0.23741612  1  -0.294819  -0.530213  0.023252  2.387361  0.025
O  O57  1  0.69525815  0.15390353  0.76256357  1  -0.294724  -0.530174  -0.023403  2.388179  -0.025
O  O58  1  0.00872589  0.90611475  0.16987228  1  -0.30745  -0.546718  0.000174  2.227642  0.0
O  O59  1  0.99140914  0.09405538  0.83028526  1  -0.307303  -0.546285  -0.00017  2.227587  0.0
O  O60  1  0.72351712  0.93035828  0.30774435  1  -0.558592  -0.720206  -0.057779  2.141223  -0.059
O  O61  1  0.27683891  0.06989077  0.69258489  1  -0.558465  -0.720286  0.057749  2.140804  0.059
O  O62  1  0.25666235  0.10580386  0.13238106  1  -0.569725  -0.758156  -0.065138  2.17439  -0.067
O  O63  1  0.74342848  0.89419190  0.86750232  1  -0.569601  -0.757819  0.065066  2.174778  0.066
