# generated using pymatgen
data_Er2CoH28(C8O9)2
_symmetry_space_group_name_H-M   'P 1'
_cell_length_a   8.74737862
_cell_length_b   8.91375647
_cell_length_c   10.36660973
_cell_angle_alpha   84.14547894
_cell_angle_beta   70.57739979
_cell_angle_gamma   80.68566082
_symmetry_Int_Tables_number   1
_chemical_formula_structural   Er2CoH28(C8O9)2
_chemical_formula_sum   'Er2 Co1 H28 C16 O18'
_cell_volume   751.24627644
_cell_formula_units_Z   1
loop_
 _symmetry_equiv_pos_site_id
 _symmetry_equiv_pos_as_xyz
  1  'x, y, z'
loop_
 _atom_site_type_symbol
 _atom_site_label
 _atom_site_symmetry_multiplicity
 _atom_site_fract_x
 _atom_site_fract_y
 _atom_site_fract_z
 _atom_site_occupancy
 _atom_site_hle17_ddec_charge
 _atom_site_hle17_ddec_spin_density
 _atom_site_hle17_ddec_sum_bond_order
 _atom_site_hle17_magmom
 _atom_site_hse06_10hf_bader_charge
 _atom_site_hse06_10hf_bader_spin_density
 _atom_site_hse06_10hf_ddec_charge
 _atom_site_hse06_10hf_ddec_spin_density
 _atom_site_hse06_10hf_ddec_sum_bond_order
 _atom_site_hse06_10hf_magmom
 _atom_site_hse06_ddec_charge
 _atom_site_hse06_ddec_spin_density
 _atom_site_hse06_ddec_sum_bond_order
 _atom_site_hse06_magmom
 _atom_site_pbe_cm5_charge
 _atom_site_pbe_ddec_charge
 _atom_site_pbe_ddec_spin_density
 _atom_site_pbe_ddec_sum_bond_order
 _atom_site_pbe_magmom
Er  Er0  1  0.92357777  0.07804813  0.68683229  1  2.207988  -0.001279  1.631326  -0.001  2.18632  0.000118  2.054334  -0.000663  2.113488  0.0  2.106823  -0.000925  2.072546  0.0  1.499953  2.014788  -0.000279  2.145686  0.001
Er  Er1  1  0.07644712  0.92196696  0.31315515  1  2.208006  -0.001281  1.631211  -0.001  2.18623  0.00012  2.05419  -0.000661  2.113605  0.0  2.106679  -0.000919  2.072671  0.0  1.499963  2.014587  -0.00028  2.145888  0.001
Co  Co2  1  0.00000711  0.99999382  0.99999552  1  1.14905  2.83404  1.929771  2.599  1.392642  2.672998  1.132184  2.840242  2.318762  2.659  1.204724  2.880982  2.247464  2.734  0.673722  1.071926  2.797325  2.373147  2.581
H  H3  1  0.85177709  0.35285436  0.08147348  1  0.150151  -0.000232  0.932021  0.0  0.081319  5e-06  0.167365  -0.000198  0.989911  0.0  0.170086  -0.00019  0.988754  0.0  0.105019  0.165446  -0.000188  0.990779  0.0
H  H4  1  0.14822439  0.64711045  0.91853355  1  0.149988  -0.000232  0.931992  0.0  0.081404  6e-06  0.167244  -0.000198  0.989866  0.0  0.169965  -0.00019  0.988709  0.0  0.10494  0.16532  -0.000188  0.99074  0.0
H  H5  1  0.66957632  0.43704746  0.04155253  1  0.138586  7.9e-05  0.931553  0.0  0.094043  0.000246  0.158904  9.8e-05  0.986945  0.0  0.161273  6.4e-05  0.985898  0.0  0.103531  0.157283  0.00014  0.987674  0.0
H  H6  1  0.33041972  0.56291283  0.95845930  1  0.138737  7.9e-05  0.931484  0.0  0.094145  0.000246  0.158987  9.8e-05  0.986944  0.0  0.161366  6.4e-05  0.985883  0.0  0.103565  0.157365  0.00014  0.987677  0.0
H  H7  1  0.86122253  0.49987607  0.95066777  1  0.141865  0.000115  0.931972  0.0  0.05483  0.00049  0.164311  0.000206  0.987321  0.0  0.165962  0.000136  0.987642  0.0  0.107916  0.163069  0.000292  0.98718  0.0
H  H8  1  0.13876504  0.50011467  0.04936085  1  0.141785  0.000115  0.931994  0.0  0.055493  0.000491  0.164202  0.000206  0.987394  0.0  0.16585  0.000136  0.98772  0.0  0.107875  0.16296  0.000292  0.987248  0.0
H  H9  1  0.72888759  0.74480764  0.08334865  1  0.14537  -0.000137  0.929276  0.0  0.041565  -0.0001  0.164342  -0.000139  0.984713  0.0  0.167107  -0.000131  0.983374  0.0  0.101298  0.162289  -0.000147  0.985815  0.0
H  H10  1  0.27111927  0.25521983  0.91664564  1  0.145257  -0.000139  0.929294  0.0  0.04149  -0.0001  0.164263  -0.000139  0.984702  0.0  0.167032  -0.000131  0.983364  0.0  0.101239  0.162208  -0.000146  0.985806  0.0
H  H11  1  0.59095530  0.72375458  0.99208405  1  0.142375  1.9e-05  0.93104  0.0  0.064243  0.000246  0.162382  9.5e-05  0.98956  0.0  0.164612  5.1e-05  0.988911  0.0  0.104382  0.160623  0.000163  0.990226  0.0
H  H12  1  0.40904698  0.27625091  0.00791015  1  0.142362  1.9e-05  0.931192  0.0  0.064139  0.000246  0.162369  9.5e-05  0.989708  0.0  0.164599  5.1e-05  0.989063  0.0  0.104371  0.160613  0.000163  0.990371  0.0
H  H13  1  0.55135762  0.88283854  0.09084510  1  0.169099  0.000221  0.952414  0.0  0.128164  0.000641  0.185483  0.00027  1.012071  0.0  0.189304  0.000174  1.010156  0.0  0.108714  0.182746  0.000388  1.013405  0.001
H  H14  1  0.44864398  0.11717239  0.90914378  1  0.169023  0.000221  0.952239  0.0  0.128599  0.000641  0.185403  0.00027  1.011942  0.0  0.189234  0.000174  1.010031  0.0  0.108701  0.182663  0.000389  1.013281  0.001
H  H15  1  0.50237137  0.87105073  0.56397575  1  0.12849  0.000287  0.947987  0.0  0.045307  0.000782  0.146518  0.000298  1.008395  0.0  0.149148  0.000209  1.007224  0.0  0.09463  0.14459  0.000393  1.009363  0.0
H  H16  1  0.49764038  0.12886061  0.43603419  1  0.128689  0.000287  0.947988  0.0  0.044926  0.000782  0.146629  0.000297  1.008494  0.0  0.149259  0.000209  1.007327  0.0  0.094699  0.144707  0.000393  1.009462  0.0
H  H17  1  0.44959433  0.71742478  0.68623844  1  0.139573  -0.00038  0.926428  0.0  0.068345  6.7e-05  0.161513  -2.7e-05  0.980125  0.0  0.163804  7e-06  0.979662  0.0  0.105134  0.159593  -0.000132  0.980808  0.0
H  H18  1  0.55037252  0.28251838  0.31379429  1  0.139668  -0.000382  0.926566  0.0  0.068778  6.7e-05  0.161679  -2.6e-05  0.980162  0.0  0.163972  7e-06  0.979702  0.0  0.105207  0.159753  -0.000132  0.980851  0.0
H  H19  1  0.53046357  0.86900860  0.72836675  1  0.159839  -0.000269  0.967896  0.0  0.11261  6.7e-05  0.175414  -1.8e-05  1.029574  0.0  0.179161  -2.1e-05  1.02792  0.0  0.102493  0.172564  -2.8e-05  1.030943  0.0
H  H20  1  0.46953619  0.13092215  0.27164867  1  0.159909  -0.000271  0.968002  0.0  0.123491  6.6e-05  0.175563  -1.8e-05  1.029543  0.0  0.179312  -2.1e-05  1.027889  0.0  0.102539  0.172714  -2.8e-05  1.03091  0.0
H  H21  1  0.19631353  0.32285783  0.24755617  1  0.130777  4.1e-05  0.972265  0.0  0.063762  0.000131  0.148718  5.4e-05  1.034413  0.0  0.150366  2.9e-05  1.034744  0.0  0.097161  0.147474  9e-05  1.034268  0.0
H  H22  1  0.80362634  0.67721196  0.75243517  1  0.13089  4e-05  0.972278  0.0  0.055301  0.000131  0.148779  5.4e-05  1.034444  0.0  0.150428  2.9e-05  1.034774  0.0  0.097168  0.147528  9e-05  1.03431  0.0
H  H23  1  0.25275362  0.42193805  0.36370999  1  0.148925  6e-06  0.921183  0.0  0.080959  4.6e-05  0.169188  2e-05  0.97563  0.0  0.171957  1.3e-05  0.974145  0.0  0.108191  0.167247  2.6e-05  0.976726  0.0
H  H24  1  0.74721345  0.57813574  0.63627412  1  0.148945  6e-06  0.921326  0.0  0.081256  4.6e-05  0.16916  2e-05  0.97579  0.0  0.171922  1.3e-05  0.974303  0.0  0.108195  0.167225  2.6e-05  0.97688  0.0
H  H25  1  0.05566991  0.46773134  0.35123675  1  0.168824  -9e-06  0.935095  0.0  0.13843  6e-06  0.18711  -4e-06  0.991798  0.0  0.190726  -7e-06  0.989864  0.0  0.112332  0.184519  1e-06  0.993262  0.0
H  H26  1  0.94427418  0.53231067  0.64879071  1  0.168912  -9e-06  0.934979  0.0  0.137958  5e-06  0.187207  -4e-06  0.991665  0.0  0.190822  -7e-06  0.989727  0.0  0.112364  0.184615  1e-06  0.993129  0.0
H  H27  1  0.74445427  0.12247335  0.48979987  1  0.434552  -2.1e-05  0.871419  0.0  0.667095  -2.3e-05  0.401167  -8e-06  0.93921  0.0  0.412833  0.0  0.922291  0.0  0.297476  0.393084  -4e-06  0.950925  0.0
H  H28  1  0.25557628  0.87752054  0.51019547  1  0.434593  -2.1e-05  0.871327  0.0  0.667656  -2.3e-05  0.4012  -9e-06  0.939131  0.0  0.412868  1e-06  0.922217  0.0  0.297477  0.393117  -4e-06  0.950845  0.0
H  H29  1  0.61678555  0.17252962  0.63581045  1  0.4415  -4e-06  0.807131  0.0  0.627693  1.4e-05  0.429081  7e-06  0.851559  0.0  0.436417  2e-06  0.841169  0.0  0.336378  0.423942  2.5e-05  0.857195  0.0
H  H30  1  0.38323240  0.82743979  0.36418613  1  0.441681  -5e-06  0.807169  0.0  0.627847  1.4e-05  0.429245  7e-06  0.85141  0.0  0.436585  3e-06  0.841009  0.0  0.336444  0.4241  2.5e-05  0.857255  0.0
C  C31  1  0.27909201  0.91951845  0.73596923  1  0.793094  -0.008025  3.765952  -0.005  1.618885  -0.000158  0.759097  -0.0011  4.054103  0.0  0.795702  -0.000432  4.043093  0.0  0.234465  0.732883  -0.00294  4.061649  -0.001
C  C32  1  0.72091897  0.08045553  0.26403144  1  0.793055  -0.008021  3.765636  -0.005  1.619631  -0.000159  0.758909  -0.0011  4.054031  0.0  0.795497  -0.000433  4.043057  0.0  0.234357  0.732705  -0.002939  4.061548  -0.001
C  C33  1  0.80140106  0.39988578  0.00000103  1  -0.448141  -0.000781  3.645159  0.0  -0.098737  -0.000209  -0.524594  -0.000594  3.876682  0.0  -0.531499  -0.000602  3.879364  0.0  -0.236204  -0.519746  -0.00052  3.875035  0.0
C  C34  1  0.19860490  0.60008777  0.00001046  1  -0.447968  -0.000776  3.645259  0.0  -0.099686  -0.000207  -0.524473  -0.000592  3.876695  0.0  -0.531385  -0.000602  3.879367  0.0  -0.236116  -0.519616  -0.000519  3.875052  0.0
C  C35  1  0.65058376  0.80448864  0.02583447  1  -0.46099  -6.6e-05  3.634333  0.0  -0.063263  0.000311  -0.538479  4.2e-05  3.870166  0.0  -0.54613  -0.000127  3.870975  0.0  -0.243765  -0.53293  0.000238  3.869866  0.0
C  C36  1  0.34941223  0.19554550  0.97416268  1  -0.460725  -6.3e-05  3.634189  0.0  -0.063638  0.000312  -0.538217  4.2e-05  3.870048  0.0  -0.545885  -0.000128  3.870868  0.0  -0.243651  -0.532668  0.000238  3.869756  0.0
C  C37  1  0.83660070  0.28562355  0.89373193  1  0.776293  0.001081  3.795313  0.002  1.558454  0.006785  0.740493  0.003947  4.089923  0.006  0.775998  0.002575  4.080475  0.004  0.211825  0.715074  0.005597  4.095911  0.007
C  C38  1  0.16341815  0.71437073  0.10625661  1  0.776109  0.00108  3.795819  0.002  1.558893  0.006788  0.740587  0.003948  4.089984  0.006  0.776094  0.002577  4.080536  0.004  0.211893  0.715158  0.005599  4.095984  0.007
C  C39  1  0.74642850  0.89441955  0.90489539  1  0.770038  0.001735  3.806563  0.003  1.546172  0.006814  0.730829  0.00409  4.106762  0.006  0.766769  0.00286  4.09615  0.005  0.210689  0.705421  0.005665  4.113564  0.008
C  C40  1  0.25356792  0.10560138  0.09509068  1  0.770031  0.001732  3.80626  0.003  1.545891  0.006813  0.730721  0.00409  4.106611  0.006  0.76666  0.00286  4.096003  0.005  0.210648  0.705316  0.005665  4.113401  0.008
C  C41  1  0.45165828  0.84121602  0.67366826  1  -0.472181  0.002992  3.644857  0.005  -0.124105  0.003442  -0.547211  0.001806  3.874063  0.003  -0.555549  0.001309  3.875625  0.002  -0.247271  -0.541104  0.002282  3.873468  0.003
C  C42  1  0.54833989  0.15871697  0.32634728  1  -0.472676  0.002991  3.645142  0.005  -0.135967  0.003442  -0.547722  0.001806  3.874373  0.003  -0.556034  0.001309  3.875879  0.002  -0.247486  -0.541622  0.002282  3.873778  0.003
C  C43  1  0.15418095  0.37251869  0.34741656  1  -0.456409  3.3e-05  3.626865  0.0  -0.133716  0.000135  -0.531336  6.1e-05  3.853693  0.0  -0.538982  3.6e-05  3.856124  0.0  -0.2385  -0.52588  9.2e-05  3.851841  0.0
C  C44  1  0.84576227  0.62754162  0.65258862  1  -0.456702  3.5e-05  3.62669  0.0  -0.124891  0.000134  -0.531578  6.1e-05  3.853668  0.0  -0.539215  3.6e-05  3.856077  0.0  -0.238588  -0.526122  9.2e-05  3.851824  0.0
C  C45  1  0.09009585  0.25925789  0.46160002  1  0.800946  2.4e-05  3.785303  0.0  1.575835  8.3e-05  0.766639  4.8e-05  4.068686  0.0  0.801179  3e-05  4.0584  0.0  0.221103  0.743282  6.8e-05  4.074514  0.0
C  C46  1  0.90990580  0.74077865  0.53839544  1  0.801379  2.6e-05  3.785105  0.0  1.575852  8.3e-05  0.767018  4.7e-05  4.068501  0.0  0.801582  3e-05  4.058188  0.0  0.221376  0.743667  6.8e-05  4.074306  0.0
O  O47  1  0.19253821  0.96251067  0.65594173  1  -0.760642  -0.000755  2.049749  0.001  -1.242188  0.001179  -0.69953  0.000166  2.288809  0.001  -0.726247  6.7e-05  2.276893  0.001  -0.386309  -0.681143  -8.7e-05  2.29689  0.001
O  O48  1  0.80749287  0.03748869  0.34404799  1  -0.760661  -0.000753  2.049439  0.001  -1.242123  0.001178  -0.699493  0.000166  2.288578  0.001  -0.726209  6.7e-05  2.276674  0.001  -0.386314  -0.681108  -8.7e-05  2.296661  0.001
O  O49  1  0.05608444  0.29212022  0.58495580  1  -0.68975  0.000167  1.935458  0.0  -1.201229  0.000338  -0.643955  0.000155  2.15994  0.0  -0.668848  9.5e-05  2.151509  0.0  -0.373729  -0.626752  0.000194  2.165418  0.0
O  O50  1  0.94391340  0.70791738  0.41504048  1  -0.690036  0.000167  1.935493  0.0  -1.201183  0.000338  -0.644147  0.000155  2.159964  0.0  -0.669053  9.6e-05  2.15153  0.0  -0.373884  -0.62694  0.000194  2.165433  0.0
O  O51  1  0.90228094  0.89448871  0.87986819  1  -0.769768  0.021195  2.119375  0.037  -1.230617  0.034019  -0.731279  0.017151  2.396565  0.026  -0.765197  0.012702  2.384522  0.019  -0.38374  -0.704967  0.022041  2.404064  0.032
O  O52  1  0.09771909  0.10550968  0.12012357  1  -0.769801  0.021192  2.119552  0.037  -1.230654  0.034025  -0.731251  0.017149  2.396786  0.026  -0.765164  0.0127  2.384739  0.019  -0.383738  -0.704934  0.022039  2.404287  0.032
O  O53  1  0.96849596  0.18613671  0.87154668  1  -0.773121  0.025055  2.117971  0.043  -1.22604  0.039676  -0.733901  0.020383  2.392193  0.03  -0.768746  0.015535  2.379534  0.022  -0.392953  -0.705732  0.026086  2.398478  0.038
O  O54  1  0.03152133  0.81386075  0.12843799  1  -0.773154  0.025064  2.118037  0.043  -1.226134  0.039697  -0.734049  0.020388  2.392182  0.03  -0.768897  0.015538  2.379521  0.022  -0.393053  -0.70587  0.026094  2.398479  0.038
O  O55  1  0.68000851  0.97092501  0.82277304  1  -0.699825  0.006598  1.994204  0.012  -1.217981  0.011973  -0.649504  0.005628  2.229204  0.01  -0.676164  0.004029  2.221515  0.008  -0.36164  -0.630522  0.007648  2.234137  0.013
O  O56  1  0.31999256  0.02910114  0.17722188  1  -0.699785  0.006599  1.993858  0.012  -1.217562  0.011973  -0.649487  0.005628  2.229054  0.01  -0.676145  0.004029  2.221359  0.008  -0.361649  -0.630505  0.007649  2.233985  0.013
O  O57  1  0.74608470  0.28587419  0.82106761  1  -0.668142  0.00827  1.902139  0.015  -1.182404  0.014621  -0.624492  0.007038  2.127348  0.013  -0.650644  0.004977  2.119987  0.009  -0.357297  -0.60554  0.009491  2.132086  0.016
O  O58  1  0.25393792  0.71413479  0.17891436  1  -0.668039  0.008273  1.902473  0.015  -1.18258  0.014627  -0.624413  0.00704  2.127496  0.013  -0.650564  0.004978  2.120138  0.009  -0.357228  -0.605442  0.009494  2.132233  0.016
O  O59  1  0.06240720  0.12792635  0.43789350  1  -0.845417  -6e-06  2.102562  0.0  -1.251275  1.7e-05  -0.782706  -2e-06  2.359442  0.0  -0.810988  -1.2e-05  2.350277  0.0  -0.449978  -0.76229  8.3e-05  2.364898  0.0
O  O60  1  0.93762811  0.87209627  0.56209914  1  -0.845463  -8e-06  2.102776  0.0  -1.251366  1.7e-05  -0.782679  -2e-06  2.359542  0.0  -0.810965  -1.2e-05  2.350355  0.0  -0.45002  -0.762271  8.3e-05  2.364987  0.0
O  O61  1  0.72853715  0.17545378  0.57585790  1  -0.891689  3e-05  1.852372  0.0  -1.271572  6e-05  -0.846856  5.1e-05  2.033575  0.0  -0.864534  2.9e-05  2.004181  0.0  -0.630142  -0.834241  8e-05  2.052133  0.0
O  O62  1  0.27148193  0.82454429  0.42413689  1  -0.891924  3e-05  1.852345  0.0  -1.272245  6e-05  -0.847077  5.1e-05  2.033387  0.0  -0.864762  2.8e-05  2.003984  0.0  -0.630213  -0.834455  8e-05  2.052153  0.0
O  O63  1  0.22969958  0.93556801  0.86353966  1  -0.626766  0.026991  2.050898  0.055  -1.207276  0.041663  -0.585122  0.021015  2.300491  0.037  -0.618058  0.017023  2.287054  0.03  -0.29799  -0.561  0.024571  2.31043  0.043
O  O64  1  0.77030707  0.06440350  0.13646045  1  -0.626579  0.026992  2.050771  0.055  -1.207224  0.04166  -0.584875  0.021015  2.300406  0.037  -0.617811  0.017022  2.286983  0.03  -0.297971  -0.560763  0.024572  2.310339  0.043
