# generated using pymatgen
data_LaH16C24N2O7
_symmetry_space_group_name_H-M   'P 1'
_cell_length_a   10.31587201
_cell_length_b   10.71554279
_cell_length_c   11.33951515
_cell_angle_alpha   109.13943413
_cell_angle_beta   93.49068793
_cell_angle_gamma   110.42697081
_symmetry_Int_Tables_number   1
_chemical_formula_structural   LaH16C24N2O7
_chemical_formula_sum   'La2 H32 C48 N4 O14'
_cell_volume   1087.74397245
_cell_formula_units_Z   2
loop_
 _symmetry_equiv_pos_site_id
 _symmetry_equiv_pos_as_xyz
  1  'x, y, z'
loop_
 _atom_site_type_symbol
 _atom_site_label
 _atom_site_symmetry_multiplicity
 _atom_site_fract_x
 _atom_site_fract_y
 _atom_site_fract_z
 _atom_site_occupancy
 _atom_site_hle17_bader_spin_density
 _atom_site_hle17_ddec_charge
 _atom_site_hle17_ddec_spin_density
 _atom_site_hle17_ddec_sum_bond_order
 _atom_site_hle17_magmom
 _atom_site_hse06_10hf_bader_spin_density
 _atom_site_hse06_10hf_ddec_charge
 _atom_site_hse06_10hf_ddec_spin_density
 _atom_site_hse06_10hf_ddec_sum_bond_order
 _atom_site_hse06_10hf_magmom
 _atom_site_hse06_bader_spin_density
 _atom_site_hse06_ddec_charge
 _atom_site_hse06_ddec_spin_density
 _atom_site_hse06_ddec_sum_bond_order
 _atom_site_hse06_magmom
 _atom_site_pbe_bader_spin_density
 _atom_site_pbe_cm5_charge
 _atom_site_pbe_ddec_charge
 _atom_site_pbe_ddec_spin_density
 _atom_site_pbe_ddec_sum_bond_order
 _atom_site_pbe_magmom
La  La0  1  0.59098006  0.49176637  0.33631431  1  0  2.039946  0  1.850962  0  0  1.891812  0  2.392605  0  0  1.994059  0  2.295135  0  0  1.403376  1.816047  0  2.460242  0
La  La1  1  0.40902201  0.50823225  0.66368578  1  0  2.039886  0  1.850986  0  0  1.891734  0  2.392664  0  0  1.993977  0  2.295201  0  0  1.403362  1.815972  0  2.460302  0
H  H2  1  0.04211442  0.15079233  0.11937784  1  0  0.09332  0  0.97404  0  0  0.101227  0  1.040745  0  0  0.10375  0  1.041061  0  0  0.097935  0.099169  0  1.041065  0
H  H3  1  0.95788305  0.84920957  0.88061779  1  0  0.093311  0  0.973947  0  0  0.101221  0  1.040671  0  0  0.103745  0  1.040982  0  0  0.09791  0.099162  0  1.040999  0
H  H4  1  0.82814154  0.92467828  0.06188335  1  0  0.097174  0  0.952094  0  0  0.106615  0  1.016173  0  0  0.110219  0  1.013462  0  0  0.103684  0.104055  0  1.018072  0
H  H5  1  0.17185208  0.07532367  0.93811300  1  0  0.097037  0  0.952119  0  0  0.106476  0  1.016192  0  0  0.110078  0  1.013485  0  0  0.103629  0.103917  0  1.018089  0
H  H6  1  0.96855588  0.86644638  0.39679863  1  0  0.09743  0  0.973014  0  0  0.105308  0  1.038745  0  0  0.108154  0  1.037626  0  0  0.104802  0.103088  0  1.039785  0
H  H7  1  0.03144310  0.13355442  0.60319671  1  0  0.09743  0  0.973082  0  0  0.105326  0  1.038795  0  0  0.108172  0  1.037679  0  0  0.104806  0.103107  0  1.039835  0
H  H8  1  0.17939045  0.09690448  0.45917712  1  0  0.101061  0  0.966504  0  0  0.107171  0  1.035872  0  0  0.110358  0  1.03457  0  0  0.106452  0.10487  0  1.036861  0
H  H9  1  0.82060765  0.90309416  0.54081486  1  0  0.101106  0  0.966395  0  0  0.107177  0  1.035807  0  0  0.110365  0  1.034504  0  0  0.106436  0.104877  0  1.036803  0
H  H10  1  0.39112587  0.16770753  0.61292404  1  0  0.104423  0  0.986214  0  0  0.110541  0  1.052672  0  0  0.11406  0  1.050948  0  0  0.108763  0.107832  0  1.054286  0
H  H11  1  0.60887520  0.83228355  0.38707542  1  0  0.104354  0  0.986349  0  0  0.110552  0  1.052719  0  0  0.114069  0  1.050997  0  0  0.108768  0.107848  0  1.054332  0
H  H12  1  0.66142160  0.06507687  0.35637682  1  0  0.100236  0  0.949088  0  0  0.109952  0  1.008931  0  0  0.113996  0  1.006054  0  0  0.105517  0.106905  0  1.011352  0
H  H13  1  0.33858173  0.93491743  0.64362551  1  0  0.100299  0  0.948971  0  0  0.110003  0  1.008833  0  0  0.114048  0  1.005952  0  0  0.105559  0.106955  0  1.011257  0
H  H14  1  0.40412256  0.19602431  0.06314538  1  0  0.078388  0  0.948602  0  0  0.08344  0  1.019864  0  0  0.086758  0  1.015509  0  0  0.120785  0.080952  0  1.02305  0
H  H15  1  0.59588156  0.80398183  0.93685980  1  0  0.078469  0  0.948492  0  0  0.083514  0  1.019769  0  0  0.086826  0  1.015409  0  0  0.12084  0.081023  0  1.022959  0
H  H16  1  0.41484185  0.02588194  0.85452182  1  0  0.106108  0  0.944862  0  0  0.11803  0  1.001265  0  0  0.12082  0  1.001025  0  0  0.109788  0.115762  0  1.00207  0
H  H17  1  0.58516061  0.97412745  0.14548166  1  0  0.106009  0  0.944812  0  0  0.117976  0  1.00118  0  0  0.120768  0  1.000938  0  0  0.109779  0.1157  0  1.001988  0
H  H18  1  0.65109477  0.05603975  0.79431073  1  0  0.103113  0  0.932067  0  0  0.115506  0  0.989052  0  0  0.117844  0  0.988364  0  0  0.111267  0.113951  0  0.989282  0
H  H19  1  0.34890613  0.94396320  0.20569243  1  0  0.103091  0  0.932085  0  0  0.11549  0  0.989071  0  0  0.117828  0  0.988383  0  0  0.111231  0.113928  0  0.989307  0
H  H20  1  0.91275246  0.18667768  0.85450945  1  0  0.090935  0  0.99144  0  0  0.101337  0  1.055121  0  0  0.102513  0  1.057484  0  0  0.098706  0.100437  0  1.053673  0
H  H21  1  0.08724992  0.81332416  0.14549167  1  0  0.090913  0  0.991426  0  0  0.101295  0  1.055137  0  0  0.102469  0  1.057499  0  0  0.098695  0.100395  0  1.053693  0
H  H22  1  0.12606899  0.36445538  0.01709243  1  0  0.104822  0  0.953492  0  0  0.114351  0  1.016028  0  0  0.117275  0  1.015  0  0  0.105779  0.112263  0  1.016663  0
H  H23  1  0.87393215  0.63555079  0.98290733  1  0  0.104763  0  0.953575  0  0  0.114308  0  1.016095  0  0  0.117222  0  1.015075  0  0  0.105787  0.112221  0  1.016722  0
H  H24  1  0.23339435  0.54423033  0.23920397  1  0  0.115047  0  0.936693  0  0  0.125238  0  0.996554  0  0  0.128645  0  0.993944  0  0  0.115066  0.122745  0  0.998437  0
H  H25  1  0.76660985  0.45577365  0.76079789  1  0  0.115016  0  0.936777  0  0  0.125254  0  0.996575  0  0  0.128661  0  0.993965  0  0  0.115065  0.12276  0  0.998456  0
H  H26  1  0.19424960  0.68218731  0.45233639  1  0  0.102727  0  0.98257  0  0  0.113543  0  1.04126  0  0  0.115959  0  1.041404  0  0  0.107005  0.111716  0  1.04143  0
H  H27  1  0.80575390  0.31781237  0.54766587  1  0  0.102714  0  0.982526  0  0  0.113492  0  1.041269  0  0  0.115908  0  1.041413  0  0  0.106972  0.111664  0  1.041437  0
H  H28  1  0.94856791  0.65003504  0.48161214  1  0  0.08468  0  0.956586  0  0  0.090967  0  1.021282  0  0  0.094216  0  1.018611  0  0  0.119739  0.088722  0  1.023151  0
H  H29  1  0.05143756  0.34996462  0.51839284  1  0  0.084579  0  0.956576  0  0  0.090871  0  1.021283  0  0  0.094121  0  1.018611  0  0  0.119686  0.08863  0  1.023151  0
H  H30  1  0.52363564  0.57977903  0.12141576  1  0  0.41062  0  0.901787  0  0  0.378097  0  0.969289  0  0  0.390107  0  0.951938  0  0  0.289213  0.369308  0  0.981964  0
H  H31  1  0.47636053  0.42022182  0.87858566  1  0  0.41059  0  0.901819  0  0  0.378065  0  0.969325  0  0  0.390075  0  0.951974  0  0  0.289192  0.36927  0  0.982007  0
H  H32  1  0.39147447  0.43266691  0.07385737  1  0  0.437152  0  0.856304  0  0  0.409219  0  0.915563  0  0  0.420005  0  0.899697  0  0  0.301929  0.401454  0  0.92699  0
H  H33  1  0.60852412  0.56733500  0.92614801  1  0  0.437132  0  0.856327  0  0  0.409204  0  0.91558  0  0  0.419988  0  0.899716  0  0  0.301902  0.401432  0  0.927017  0
C  C34  1  0.24800876  0.28078823  0.34053089  1  0  0.693498  0  3.877041  0  0  0.645208  0  4.176227  0  0  0.682105  0  4.165971  0  0  0.231444  0.619785  0  4.182651  0
C  C35  1  0.75198505  0.71921157  0.65946922  1  0  0.693493  0  3.87696  0  0  0.645181  0  4.176124  0  0  0.682082  0  4.165865  0  0  0.231445  0.619752  0  4.182544  0
C  C36  1  0.12358113  0.13894415  0.29385724  1  0  -0.03685  0  3.725991  0  0  -0.017483  0  3.959778  0  0  -0.020265  0  3.976987  0  0  -0.006871  -0.015448  0  3.948001  0
C  C37  1  0.87641507  0.86105453  0.70613732  1  0  -0.036867  0  3.726077  0  0  -0.017402  0  3.959739  0  0  -0.020186  0  3.976949  0  0  -0.006788  -0.015354  0  3.947955  0
C  C38  1  0.02581201  0.08903736  0.18071943  1  0  -0.089496  0  3.730933  0  0  -0.108925  0  3.97664  0  0  -0.11107  0  3.996654  0  0  -0.089177  -0.107623  0  3.963435  0
C  C39  1  0.97418378  0.91096024  0.81927567  1  0  -0.089469  0  3.730803  0  0  -0.108943  0  3.976481  0  0  -0.111088  0  3.996495  0  0  -0.089171  -0.107648  0  3.963282  0
C  C40  1  0.90561151  0.96287340  0.14878459  1  0  -0.074054  0  3.740804  0  0  -0.097966  0  3.992895  0  0  -0.0975  0  4.012064  0  0  -0.084367  -0.098125  0  3.979925  0
C  C41  1  0.09438221  0.03712638  0.85120933  1  0  -0.0738  0  3.740615  0  0  -0.097713  0  3.992674  0  0  -0.097245  0  4.011843  0  0  -0.084277  -0.09787  0  3.979708  0
C  C42  1  0.88342409  0.88347807  0.22779268  1  0  -0.076652  0  3.759737  0  0  -0.05556  0  3.993597  0  0  -0.062647  0  4.014539  0  0  -0.022267  -0.050876  0  3.979423  0
C  C43  1  0.11657006  0.11652279  0.77220247  1  0  -0.076919  0  3.759721  0  0  -0.055785  0  3.993576  0  0  -0.062872  0  4.014517  0  0  -0.022339  -0.051107  0  3.979401  0
C  C44  1  0.75389057  0.74967616  0.19873563  1  0  0.669415  0  3.883892  0  0  0.620401  0  4.177951  0  0  0.655776  0  4.169384  0  0  0.22128  0.596511  0  4.182453  0
C  C45  1  0.24610499  0.25032577  0.80126168  1  0  0.669433  0  3.88392  0  0  0.62041  0  4.177964  0  0  0.655783  0  4.1694  0  0  0.221318  0.596524  0  4.182448  0
C  C46  1  0.98500175  0.93069058  0.33782700  1  0  -0.070676  0  3.746505  0  0  -0.091379  0  3.990885  0  0  -0.090561  0  4.009664  0  0  -0.084731  -0.091918  0  3.978337  0
C  C47  1  0.01499391  0.06930918  0.66216788  1  0  -0.07054  0  3.746489  0  0  -0.09128  0  3.990852  0  0  -0.090463  0  4.009634  0  0  -0.084657  -0.09182  0  3.978308  0
C  C48  1  0.10299530  0.05790742  0.37145137  1  0  -0.097225  0  3.746538  0  0  -0.117151  0  3.99475  0  0  -0.119755  0  4.014333  0  0  -0.087139  -0.11536  0  3.981327  0
C  C49  1  0.89700337  0.94209014  0.62854207  1  0  -0.097282  0  3.746679  0  0  -0.117209  0  3.994893  0  0  -0.119815  0  4.014478  0  0  -0.087181  -0.115427  0  3.981479  0
C  C50  1  0.55697703  0.26374197  0.45769334  1  0  0.662475  0  3.911787  0  0  0.618088  0  4.202485  0  0  0.65384  0  4.195498  0  0  0.217048  0.593801  0  4.205946  0
C  C51  1  0.44302170  0.73624807  0.54230657  1  0  0.662432  0  3.911836  0  0  0.61808  0  4.202477  0  0  0.653832  0  4.195489  0  0  0.216988  0.593802  0  4.205954  0
C  C52  1  0.52867257  0.12887920  0.48192325  1  0  -0.061967  0  3.756475  0  0  -0.040083  0  3.987146  0  0  -0.046248  0  4.008  0  0  -0.01236  -0.036236  0  3.973428  0
C  C53  1  0.47133143  0.87111185  0.51807808  1  0  -0.061968  0  3.756394  0  0  -0.040109  0  3.987075  0  0  -0.046275  0  4.007926  0  0  -0.012444  -0.036274  0  3.973373  0
C  C54  1  0.43835157  0.09384033  0.56386748  1  0  -0.070614  0  3.723908  0  0  -0.092423  0  3.971262  0  0  -0.093565  0  3.991481  0  0  -0.079629  -0.091634  0  3.957883  0
C  C55  1  0.56165051  0.90615075  0.43613466  1  0  -0.070549  0  3.723922  0  0  -0.092411  0  3.971273  0  0  -0.09356  0  3.991504  0  0  -0.079623  -0.091627  0  3.957907  0
C  C56  1  0.59058195  0.03491314  0.41878360  1  0  -0.074378  0  3.741757  0  0  -0.097093  0  3.991803  0  0  -0.098033  0  4.011209  0  0  -0.081559  -0.096283  0  3.978851  0
C  C57  1  0.40942204  0.96507791  0.58121774  1  0  -0.074439  0  3.741755  0  0  -0.09712  0  3.991733  0  0  -0.098064  0  4.011148  0  0  -0.081578  -0.096303  0  3.978781  0
C  C58  1  0.50523633  0.20426837  0.03526727  1  0  0.155057  0  3.711506  0  0  0.123245  0  3.976232  0  0  0.132317  0  3.993111  0  0  0.06343  0.117114  0  3.96444  0
C  C59  1  0.49476773  0.79573777  0.96473350  1  0  0.154915  0  3.711378  0  0  0.123106  0  3.976114  0  0  0.132187  0  3.992989  0  0  0.063326  0.116972  0  3.964322  0
C  C60  1  0.51169466  0.10975410  0.91781944  1  0  -0.110906  0  3.737922  0  0  -0.127463  0  3.995691  0  0  -0.134444  0  4.017466  0  0  -0.081442  -0.122823  0  3.980906  0
C  C61  1  0.48830647  0.89025207  0.08217945  1  0  -0.110698  0  3.737737  0  0  -0.127289  0  3.995506  0  0  -0.134272  0  4.017281  0  0  -0.081434  -0.122634  0  3.980698  0
C  C62  1  0.64165491  0.12586230  0.88531272  1  0  -0.043657  0  3.68059  0  0  -0.065275  0  3.922838  0  0  -0.062893  0  3.940981  0  0  -0.060274  -0.066284  0  3.909983  0
C  C63  1  0.35834485  0.87414281  0.11468665  1  0  -0.043718  0  3.680561  0  0  -0.06534  0  3.922821  0  0  -0.062961  0  3.940969  0  0  -0.06024  -0.066345  0  3.909952  0
C  C64  1  0.76503365  0.23297816  0.97261485  1  0  0.024054  0  3.794662  0  0  0.042153  0  4.019621  0  0  0.039419  0  4.043711  0  0  -0.001434  0.043659  0  4.003839  0
C  C65  1  0.23496540  0.76702264  0.02738491  1  0  0.023975  0  3.794825  0  0  0.042076  0  4.019794  0  0  0.03934  0  4.043887  0  0  -0.001477  0.043577  0  4.004004  0
C  C66  1  0.90335843  0.25306235  0.94696933  1  0  -0.104206  0  3.762535  0  0  -0.126048  0  4.01379  0  0  -0.129397  0  4.038465  0  0  -0.087663  -0.123992  0  3.997392  0
C  C67  1  0.09664397  0.74693950  0.05303267  1  0  -0.104128  0  3.762495  0  0  -0.125965  0  4.013777  0  0  -0.129309  0  4.038446  0  0  -0.087648  -0.123916  0  3.997387  0
C  C68  1  0.02076293  0.35121242  0.03654510  1  0  -0.102782  0  3.749075  0  0  -0.125617  0  4.007259  0  0  -0.12874  0  4.029679  0  0  -0.085554  -0.123305  0  3.991799  0
C  C69  1  0.97923755  0.64878946  0.96345771  1  0  -0.10277  0  3.749075  0  0  -0.125586  0  4.007284  0  0  -0.128699  0  4.029694  0  0  -0.085559  -0.123258  0  3.991824  0
C  C70  1  0.00863288  0.43649971  0.15906140  1  0  0.021899  0  3.793932  0  0  0.037362  0  4.027181  0  0  0.034711  0  4.052229  0  0  -0.002086  0.039284  0  4.00994  0
C  C71  1  0.99136909  0.56350107  0.84094024  1  0  0.021998  0  3.793848  0  0  0.037367  0  4.027207  0  0  0.034715  0  4.05225  0  0  -0.002071  0.039284  0  4.009976  0
C  C72  1  0.12759856  0.53286889  0.25669823  1  0  -0.039889  0  3.660053  0  0  -0.063034  0  3.905136  0  0  -0.061043  0  3.922803  0  0  -0.058698  -0.063956  0  3.892664  0
C  C73  1  0.87240287  0.46713297  0.74330373  1  0  -0.0399  0  3.660129  0  0  -0.063048  0  3.90521  0  0  -0.061057  0  3.922877  0  0  -0.058686  -0.063967  0  3.892736  0
C  C74  1  0.10676068  0.60914714  0.37317662  1  0  -0.110393  0  3.725889  0  0  -0.123735  0  3.975414  0  0  -0.129973  0  3.996386  0  0  -0.080549  -0.119383  0  3.96129  0
C  C75  1  0.89324227  0.39085362  0.62682594  1  0  -0.11036  0  3.72584  0  0  -0.123688  0  3.97538  0  0  -0.129926  0  3.99635  0  0  -0.080502  -0.119331  0  3.961253  0
C  C76  1  0.96869445  0.59090442  0.39099870  1  0  0.141232  0  3.706151  0  0  0.113382  0  3.964839  0  0  0.121067  0  3.981573  0  0  0.059911  0.108361  0  3.953617  0
C  C77  1  0.03130854  0.40909636  0.60900651  1  0  0.141337  0  3.705989  0  0  0.113502  0  3.964656  0  0  0.121188  0  3.981388  0  0  0.059959  0.108472  0  3.953448  0
C  C78  1  0.87249253  0.42335172  0.18636162  1  0  0.135365  0  3.73856  0  0  0.13093  0  3.977547  0  0  0.135288  0  3.999685  0  0  0.123347  0.128142  0  3.962607  0
C  C79  1  0.12751087  0.57665013  0.81364219  1  0  0.135342  0  3.738557  0  0  0.130957  0  3.977527  0  0  0.135317  0  3.999666  0  0  0.123373  0.128166  0  3.962595  0
C  C80  1  0.74857312  0.32068175  0.09090556  1  0  0.144337  0  3.735176  0  0  0.140836  0  3.972155  0  0  0.146022  0  3.993606  0  0  0.124568  0.136562  0  3.958447  0
C  C81  1  0.25143165  0.67932115  0.90909775  1  0  0.144319  0  3.735188  0  0  0.140806  0  3.972169  0  0  0.145989  0  3.993622  0  0  0.124559  0.136549  0  3.958442  0
N  N82  1  0.61909783  0.30771062  0.11864508  1  0  -0.392334  0  3.195385  0  0  -0.34395  0  3.462295  0  0  -0.364912  0  3.482784  0  0  -0.362004  -0.32888  0  3.448129  0
N  N83  1  0.38090651  0.69229120  0.88135788  1  0  -0.392254  0  3.195237  0  0  -0.343865  0  3.462145  0  0  -0.364828  0  3.482636  0  0  -0.361944  -0.328806  0  3.447985  0
N  N84  1  0.85445945  0.50134946  0.30092386  1  0  -0.375418  0  3.193466  0  0  -0.327716  0  3.458969  0  0  -0.347629  0  3.479985  0  0  -0.352273  -0.313893  0  3.444309  0
N  N85  1  0.14554504  0.49865021  0.69908019  1  0  -0.375428  0  3.193385  0  0  -0.327738  0  3.458881  0  0  -0.347655  0  3.479903  0  0  -0.35231  -0.313918  0  3.444245  0
O  O86  1  0.33793398  0.30495909  0.27063601  1  0  -0.667342  0  1.946873  0  0  -0.617451  0  2.191744  0  0  -0.64999  0  2.181974  0  0  -0.362058  -0.594703  0  2.19806  0
O  O87  1  0.66206589  0.69504604  0.72937131  1  0  -0.667371  0  1.946806  0  0  -0.617489  0  2.191703  0  0  -0.650034  0  2.181935  0  0  -0.362097  -0.59474  0  2.198019  0
O  O88  1  0.44998647  0.51451656  0.15174370  1  0  -0.876885  0  1.829704  0  0  -0.82981  0  2.013085  0  0  -0.85437  0  1.979424  0  0  -0.628607  -0.811661  0  2.037064  0
O  O89  1  0.55001565  0.48548206  0.84825904  1  0  -0.87684  0  1.829721  0  0  -0.829771  0  2.013112  0  0  -0.85433  0  1.979456  0  0  -0.628569  -0.811617  0  2.037098  0
O  O90  1  0.67362879  0.69071007  0.08949049  1  0  -0.654139  0  2.003879  0  0  -0.595533  0  2.22734  0  0  -0.620836  0  2.216472  0  0  -0.309596  -0.577313  0  2.234088  0
O  O91  1  0.32636744  0.30928861  0.91050583  1  0  -0.654072  0  2.003916  0  0  -0.59546  0  2.227373  0  0  -0.620765  0  2.216512  0  0  -0.309559  -0.577242  0  2.234118  0
O  O92  1  0.72960527  0.70344104  0.28922714  1  0  -0.700074  0  2.041832  0  0  -0.647948  0  2.30317  0  0  -0.681361  0  2.294326  0  0  -0.390849  -0.623831  0  2.308119  0
O  O93  1  0.27039339  0.29655653  0.71076630  1  0  -0.700089  0  2.041731  0  0  -0.647957  0  2.303076  0  0  -0.681368  0  2.294231  0  0  -0.390941  -0.623837  0  2.308008  0
O  O94  1  0.62205220  0.28065148  0.36897940  1  0  -0.653217  0  1.981409  0  0  -0.615812  0  2.22696  0  0  -0.645657  0  2.219696  0  0  -0.364849  -0.594126  0  2.231203  0
O  O95  1  0.37794641  0.71934071  0.63102118  1  0  -0.653201  0  1.981444  0  0  -0.615803  0  2.226974  0  0  -0.645632  0  2.219679  0  0  -0.364852  -0.594122  0  2.231236  0
O  O96  1  0.25419702  0.36620975  0.45161692  1  0  -0.692152  0  2.042098  0  0  -0.644758  0  2.304742  0  0  -0.6792  0  2.296376  0  0  -0.376677  -0.620154  0  2.309433  0
O  O97  1  0.74579016  0.63378798  0.54838312  1  0  -0.692164  0  2.042108  0  0  -0.644766  0  2.304758  0  0  -0.6792  0  2.296383  0  0  -0.376719  -0.620156  0  2.309435  0
O  O98  1  0.51360093  0.35707979  0.52537608  1  0  -0.739172  0  2.085696  0  0  -0.681729  0  2.349219  0  0  -0.719172  0  2.341515  0  0  -0.398055  -0.654666  0  2.3533  0
O  O99  1  0.48639348  0.64290922  0.47462156  1  0  -0.739158  0  2.085737  0  0  -0.681728  0  2.34925  0  0  -0.719169  0  2.341542  0  0  -0.397986  -0.654665  0  2.35334  0
