# generated using pymatgen
data_GdH6C9NO7
_symmetry_space_group_name_H-M   'P 1'
_cell_length_a   7.54399544
_cell_length_b   8.48761487
_cell_length_c   17.09522640
_cell_angle_alpha   89.99941177
_cell_angle_beta   90.00045205
_cell_angle_gamma   105.04290489
_symmetry_Int_Tables_number   1
_chemical_formula_structural   GdH6C9NO7
_chemical_formula_sum   'Gd4 H24 C36 N4 O28'
_cell_volume   1057.10577629
_cell_formula_units_Z   4
loop_
 _symmetry_equiv_pos_site_id
 _symmetry_equiv_pos_as_xyz
  1  'x, y, z'
loop_
 _atom_site_type_symbol
 _atom_site_label
 _atom_site_symmetry_multiplicity
 _atom_site_fract_x
 _atom_site_fract_y
 _atom_site_fract_z
 _atom_site_occupancy
 _atom_site_hle17_bader_spin_density
 _atom_site_hle17_ddec_charge
 _atom_site_hle17_ddec_spin_density
 _atom_site_hle17_ddec_sum_bond_order
 _atom_site_hle17_magmom
 _atom_site_hse06_10hf_bader_spin_density
 _atom_site_hse06_10hf_ddec_charge
 _atom_site_hse06_10hf_ddec_spin_density
 _atom_site_hse06_10hf_ddec_sum_bond_order
 _atom_site_hse06_10hf_magmom
 _atom_site_hse06_bader_spin_density
 _atom_site_hse06_ddec_charge
 _atom_site_hse06_ddec_spin_density
 _atom_site_hse06_ddec_sum_bond_order
 _atom_site_hse06_magmom
 _atom_site_pbe_bader_spin_density
 _atom_site_pbe_cm5_charge
 _atom_site_pbe_ddec_charge
 _atom_site_pbe_ddec_spin_density
 _atom_site_pbe_ddec_sum_bond_order
 _atom_site_pbe_magmom
Gd  Gd0  1  0.71819000  0.42835312  0.28446261  1  0  2.207132  0  1.807832  0  0  2.120372  0  2.166351  0  0  2.176131  0  2.107191  0  0  1.496651  2.076851  0  2.213868  0
Gd  Gd1  1  0.28180978  0.07164347  0.78446316  1  0  2.207162  0  1.807833  0  0  2.12039  0  2.166398  0  0  2.176196  0  2.10716  0  0  1.49666  2.07689  0  2.213873  0
Gd  Gd2  1  0.28180827  0.57164591  0.71553796  1  0  2.207111  0  1.807819  0  0  2.120354  0  2.166334  0  0  2.176122  0  2.107157  0  0  1.496621  2.076836  0  2.213845  0
Gd  Gd3  1  0.71818947  0.92835435  0.21553683  1  0  2.207176  0  1.807849  0  0  2.120406  0  2.166418  0  0  2.176213  0  2.107179  0  0  1.496653  2.076893  0  2.213922  0
H  H4  1  0.92381522  0.79488695  0.97461083  1  0  0.120663  0  0.918386  0  0  0.130898  0  0.977299  0  0  0.135143  0  0.972854  0  0  0.121781  0.127725  0  0.980638  0
H  H5  1  0.07618394  0.70511601  0.47461329  1  0  0.12065  0  0.918425  0  0  0.130881  0  0.977342  0  0  0.135123  0  0.972901  0  0  0.121768  0.127707  0  0.980684  0
H  H6  1  0.07619109  0.20511699  0.02538974  1  0  0.120611  0  0.918413  0  0  0.13085  0  0.977328  0  0  0.135094  0  0.972884  0  0  0.121722  0.127675  0  0.980671  0
H  H7  1  0.92381433  0.29488302  0.52538729  1  0  0.120619  0  0.918486  0  0  0.13085  0  0.977394  0  0  0.135092  0  0.972953  0  0  0.121746  0.127676  0  0.980735  0
H  H8  1  0.81946197  0.39159569  0.81300750  1  0  0.099769  0  0.928902  0  0  0.106067  0  0.994122  0  0  0.109227  0  0.991178  0  0  0.13101  0.103699  0  0.99633  0
H  H9  1  0.18054161  0.10840772  0.31300613  1  0  0.099819  0  0.928902  0  0  0.106117  0  0.994119  0  0  0.109277  0  0.991173  0  0  0.131021  0.10375  0  0.996324  0
H  H10  1  0.18053868  0.60840700  0.18699190  1  0  0.099826  0  0.928868  0  0  0.10611  0  0.994095  0  0  0.109265  0  0.991156  0  0  0.131027  0.103748  0  0.996283  0
H  H11  1  0.81946162  0.89159011  0.68699210  1  0  0.099802  0  0.92881  0  0  0.10609  0  0.994037  0  0  0.10925  0  0.99109  0  0  0.131017  0.103729  0  0.996221  0
H  H12  1  0.62984940  0.30656397  0.04082282  1  0  0.093631  0  0.920318  0  0  0.104212  0  0.980196  0  0  0.107026  0  0.977473  0  0  0.126896  0.102096  0  0.982242  0
H  H13  1  0.37014568  0.19344060  0.54082364  1  0  0.093703  0  0.920199  0  0  0.10425  0  0.980113  0  0  0.107065  0  0.977389  0  0  0.126907  0.102132  0  0.982167  0
H  H14  1  0.37015258  0.69343873  0.95917658  1  0  0.093568  0  0.920331  0  0  0.104168  0  0.980192  0  0  0.106983  0  0.977467  0  0  0.12688  0.102054  0  0.982235  0
H  H15  1  0.62985267  0.80656331  0.45917459  1  0  0.093702  0  0.920199  0  0  0.104226  0  0.980137  0  0  0.107041  0  0.977415  0  0  0.126911  0.102105  0  0.982198  0
H  H16  1  0.23047246  0.97793227  0.16810156  1  0  0.11318  0  0.914284  0  0  0.124757  0  0.973742  0  0  0.12705  0  0.972563  0  0  0.123212  0.123137  0  0.974739  0
H  H17  1  0.76952584  0.52205908  0.66810347  1  0  0.113204  0  0.91429  0  0  0.124775  0  0.973737  0  0  0.127071  0  0.972559  0  0  0.123213  0.123152  0  0.974736  0
H  H18  1  0.76952847  0.02206677  0.83189901  1  0  0.113172  0  0.914311  0  0  0.124743  0  0.973777  0  0  0.12704  0  0.972595  0  0  0.123213  0.123123  0  0.974775  0
H  H19  1  0.23047270  0.47793630  0.33189593  1  0  0.113188  0  0.914313  0  0  0.124761  0  0.973755  0  0  0.127055  0  0.972577  0  0  0.123205  0.123138  0  0.974752  0
H  H20  1  0.32404693  0.10211227  0.08635716  1  0  0.088011  0  0.910304  0  0  0.100849  0  0.968866  0  0  0.102313  0  0.96743  0  0  0.112115  0.099788  0  0.970095  0
H  H21  1  0.67594963  0.39788541  0.58635859  1  0  0.087989  0  0.910426  0  0  0.100801  0  0.968983  0  0  0.102265  0  0.967554  0  0  0.112103  0.099739  0  0.970207  0
H  H22  1  0.67595135  0.89788677  0.91364283  1  0  0.087986  0  0.910334  0  0  0.100826  0  0.968889  0  0  0.102289  0  0.967456  0  0  0.112105  0.099765  0  0.970118  0
H  H23  1  0.32404864  0.60211363  0.41364140  1  0  0.087994  0  0.910418  0  0  0.100778  0  0.969008  0  0  0.102238  0  0.967581  0  0  0.112097  0.099717  0  0.97023  0
H  H24  1  0.39934680  0.83285252  0.10120694  1  0  0.339748  0  0.971498  0  0  0.303063  0  1.06099  0  0  0.315184  0  1.049022  0  0  0.289268  0.2946  0  1.06921  0
H  H25  1  0.60065038  0.66714368  0.60120811  1  0  0.339709  0  0.971566  0  0  0.30303  0  1.061062  0  0  0.315137  0  1.049138  0  0  0.289274  0.294573  0  1.069275  0
H  H26  1  0.60065448  0.16714775  0.89879246  1  0  0.339747  0  0.971464  0  0  0.303029  0  1.061029  0  0  0.315145  0  1.049077  0  0  0.289265  0.294573  0  1.069241  0
H  H27  1  0.39935187  0.33285536  0.39879070  1  0  0.33973  0  0.971513  0  0  0.303031  0  1.06105  0  0  0.315144  0  1.049108  0  0  0.289264  0.294576  0  1.069263  0
C  C28  1  0.77491872  0.55811001  0.01836938  1  0  -0.123851  0  3.75124  0  0  -0.097703  0  3.99287  0  0  -0.111028  0  4.017014  0  0  -0.009838  -0.089512  0  3.97707  0
C  C29  1  0.22506926  0.94189617  0.51837194  1  0  -0.123873  0  3.751471  0  0  -0.097556  0  3.992889  0  0  -0.110878  0  4.01703  0  0  -0.009782  -0.089341  0  3.977052  0
C  C30  1  0.22508654  0.44189026  0.98163119  1  0  -0.12388  0  3.75123  0  0  -0.097875  0  3.993026  0  0  -0.111199  0  4.017164  0  0  -0.009796  -0.089677  0  3.977219  0
C  C31  1  0.77492344  0.05810651  0.48162863  1  0  -0.12383  0  3.751342  0  0  -0.097631  0  3.992921  0  0  -0.110953  0  4.017062  0  0  -0.009822  -0.08943  0  3.977108  0
C  C32  1  0.75710629  0.61261493  0.10080626  1  0  0.733358  0  3.862784  0  0  0.684789  0  4.159257  0  0  0.721007  0  4.148737  0  0  0.24046  0.660179  0  4.165615  0
C  C33  1  0.24287602  0.88738488  0.60080740  1  0  0.733373  0  3.862709  0  0  0.684731  0  4.159249  0  0  0.720951  0  4.14872  0  0  0.240431  0.660115  0  4.165608  0
C  C34  1  0.24289924  0.38738168  0.89919373  1  0  0.733534  0  3.862828  0  0  0.68505  0  4.159225  0  0  0.721268  0  4.148688  0  0  0.240483  0.660438  0  4.165589  0
C  C35  1  0.75711570  0.11261901  0.39919375  1  0  0.733363  0  3.862824  0  0  0.684753  0  4.159348  0  0  0.72097  0  4.148822  0  0  0.240414  0.660143  0  4.165703  0
C  C36  1  0.86579943  0.66632926  0.96093239  1  0  -0.014335  0  3.660456  0  0  -0.057993  0  3.910436  0  0  -0.050938  0  3.925962  0  0  -0.049578  -0.06219  0  3.900039  0
C  C37  1  0.13419320  0.83367027  0.46093322  1  0  -0.014322  0  3.660488  0  0  -0.058025  0  3.91046  0  0  -0.050971  0  3.925984  0  0  -0.049588  -0.062228  0  3.900058  0
C  C38  1  0.13420521  0.33367345  0.03906760  1  0  -0.014314  0  3.66052  0  0  -0.057905  0  3.91057  0  0  -0.050849  0  3.926092  0  0  -0.049588  -0.062105  0  3.900172  0
C  C39  1  0.86579915  0.16633119  0.53906736  1  0  -0.014304  0  3.660452  0  0  -0.057946  0  3.910436  0  0  -0.050891  0  3.925958  0  0  -0.049538  -0.062146  0  3.900039  0
C  C40  1  0.88566632  0.60731932  0.88615556  1  0  -0.101831  0  3.721663  0  0  -0.0738  0  3.956768  0  0  -0.086107  0  3.977894  0  0  -0.001079  -0.066294  0  3.943059  0
C  C41  1  0.11433535  0.89268401  0.38615485  1  0  -0.101798  0  3.721766  0  0  -0.07386  0  3.95689  0  0  -0.08617  0  3.978007  0  0  -0.001066  -0.066355  0  3.943188  0
C  C42  1  0.11433832  0.39268339  0.11384502  1  0  -0.1018  0  3.721561  0  0  -0.073893  0  3.956835  0  0  -0.086202  0  3.977958  0  0  -0.001064  -0.066388  0  3.94313  0
C  C43  1  0.88566726  0.10731626  0.61384456  1  0  -0.101902  0  3.721686  0  0  -0.073955  0  3.956906  0  0  -0.086263  0  3.978018  0  0  -0.001112  -0.066451  0  3.943205  0
C  C44  1  0.80729432  0.44225163  0.87074862  1  0  0.157251  0  3.606714  0  0  0.111553  0  3.859973  0  0  0.122347  0  3.87287  0  0  0.074935  0.10465  0  3.851378  0
C  C45  1  0.19270699  0.05774953  0.37074813  1  0  0.157201  0  3.606596  0  0  0.111529  0  3.859852  0  0  0.122323  0  3.87275  0  0  0.074939  0.104626  0  3.851262  0
C  C46  1  0.19271031  0.55775108  0.12925020  1  0  0.15708  0  3.606709  0  0  0.111465  0  3.85995  0  0  0.122256  0  3.872857  0  0  0.074893  0.10455  0  3.851355  0
C  C47  1  0.80729429  0.94225073  0.62925010  1  0  0.157248  0  3.606559  0  0  0.111621  0  3.859785  0  0  0.122417  0  3.872679  0  0  0.074931  0.104717  0  3.851197  0
C  C48  1  0.99120233  0.71587250  0.82356197  1  0  0.732814  0  3.859557  0  0  0.67976  0  4.163321  0  0  0.716734  0  4.151013  0  0  0.239002  0.654604  0  4.17092  0
C  C49  1  0.00880076  0.78412585  0.32356203  1  0  0.732636  0  3.859861  0  0  0.67977  0  4.163353  0  0  0.716758  0  4.151025  0  0  0.238967  0.654613  0  4.170952  0
C  C50  1  0.00880027  0.28412776  0.17643860  1  0  0.73297  0  3.859444  0  0  0.679902  0  4.163284  0  0  0.716883  0  4.150965  0  0  0.239052  0.654745  0  4.170886  0
C  C51  1  0.99119857  0.21587685  0.67643972  1  0  0.732942  0  3.859355  0  0  0.679849  0  4.163227  0  0  0.716842  0  4.150884  0  0  0.239166  0.654692  0  4.170826  0
C  C52  1  0.70197597  0.39484912  0.99772260  1  0  0.132392  0  3.665203  0  0  0.086024  0  3.922949  0  0  0.095231  0  3.938978  0  0  0.062721  0.080263  0  3.912105  0
C  C53  1  0.29801642  0.10515463  0.49772457  1  0  0.13245  0  3.665218  0  0  0.086067  0  3.922927  0  0  0.095274  0  3.938954  0  0  0.06276  0.080297  0  3.91208  0
C  C54  1  0.29802964  0.60515238  0.00227681  1  0  0.132541  0  3.665036  0  0  0.086189  0  3.922834  0  0  0.095397  0  3.938863  0  0  0.06274  0.080413  0  3.911982  0
C  C55  1  0.70198026  0.89484806  0.50227541  1  0  0.132445  0  3.665191  0  0  0.086103  0  3.922933  0  0  0.095311  0  3.93896  0  0  0.062758  0.080334  0  3.912087  0
C  C56  1  0.35983323  0.04612503  0.14028236  1  0  -0.007242  0  3.633185  0  0  -0.058097  0  3.89385  0  0  -0.05566  0  3.895479  0  0  -0.065232  -0.060144  0  3.893045  0
C  C57  1  0.64016332  0.45386924  0.64028338  1  0  -0.007214  0  3.633374  0  0  -0.057987  0  3.893928  0  0  -0.055565  0  3.895569  0  0  -0.06516  -0.060023  0  3.893104  0
C  C58  1  0.64016673  0.95387522  0.85971821  1  0  -0.007174  0  3.633174  0  0  -0.058031  0  3.893823  0  0  -0.055595  0  3.895449  0  0  -0.065207  -0.06008  0  3.893021  0
C  C59  1  0.35983460  0.54612857  0.35971603  1  0  -0.00722  0  3.633342  0  0  -0.057991  0  3.893889  0  0  -0.055562  0  3.89552  0  0  -0.065154  -0.060022  0  3.893071  0
C  C60  1  0.45652613  0.17912972  0.19594568  1  0  0.685305  0  3.850174  0  0  0.63759  0  4.163058  0  0  0.670446  0  4.154658  0  0  0.210527  0.61527  0  4.167718  0
C  C61  1  0.54346784  0.32086599  0.69594411  1  0  0.68525  0  3.850354  0  0  0.637519  0  4.163253  0  0  0.670384  0  4.154856  0  0  0.210474  0.615198  0  4.167906  0
C  C62  1  0.54347542  0.82086688  0.80405372  1  0  0.685213  0  3.850291  0  0  0.637516  0  4.163142  0  0  0.670374  0  4.154743  0  0  0.210494  0.615195  0  4.167803  0
C  C63  1  0.45652945  0.67913426  0.30405470  1  0  0.685402  0  3.850177  0  0  0.63773  0  4.162963  0  0  0.670595  0  4.154561  0  0  0.210566  0.615394  0  4.167646  0
N  N64  1  0.71504625  0.33907784  0.92511770  1  0  -0.290459  0  3.191391  0  0  -0.225662  0  3.444568  0  0  -0.241521  0  3.459337  0  0  -0.299526  -0.215218  0  3.434473  0
N  N65  1  0.28495283  0.16092600  0.42511818  1  0  -0.290534  0  3.191168  0  0  -0.225766  0  3.444364  0  0  -0.241625  0  3.459137  0  0  -0.299581  -0.215321  0  3.434275  0
N  N66  1  0.28495609  0.66092609  0.07488054  1  0  -0.29049  0  3.191281  0  0  -0.225703  0  3.444402  0  0  -0.241567  0  3.459172  0  0  -0.299535  -0.215224  0  3.434281  0
N  N67  1  0.71504712  0.83907425  0.57488006  1  0  -0.290565  0  3.191197  0  0  -0.225794  0  3.444337  0  0  -0.24165  0  3.459114  0  0  -0.29957  -0.215342  0  3.434241  0
O  O68  1  0.75117992  0.50633740  0.15351071  1  0  -0.730256  0  2.086901  0  0  -0.689746  0  2.346024  0  0  -0.717297  0  2.336731  0  0  -0.38889  -0.669909  0  2.351802  0
O  O69  1  0.24880014  0.99366512  0.65351425  1  0  -0.730292  0  2.08698  0  0  -0.689754  0  2.346102  0  0  -0.717326  0  2.336834  0  0  -0.388905  -0.669917  0  2.351882  0
O  O70  1  0.24882358  0.49365677  0.84648987  1  0  -0.730361  0  2.086948  0  0  -0.689868  0  2.346058  0  0  -0.717436  0  2.336793  0  0  -0.388897  -0.670034  0  2.35184  0
O  O71  1  0.75119061  0.00633998  0.34648573  1  0  -0.730329  0  2.086874  0  0  -0.689787  0  2.345994  0  0  -0.717372  0  2.336751  0  0  -0.388908  -0.669949  0  2.351771  0
O  O72  1  0.05028491  0.86694373  0.83997038  1  0  -0.71686  0  1.988931  0  0  -0.677263  0  2.243562  0  0  -0.703596  0  2.229893  0  0  -0.395631  -0.658385  0  2.252624  0
O  O73  1  0.94971581  0.63305919  0.33996629  1  0  -0.716821  0  1.989168  0  0  -0.677287  0  2.243715  0  0  -0.703618  0  2.230037  0  0  -0.395647  -0.658405  0  2.252778  0
O  O74  1  0.94971707  0.13305897  0.16003195  1  0  -0.716918  0  1.988981  0  0  -0.677304  0  2.243635  0  0  -0.703642  0  2.22996  0  0  -0.395624  -0.658423  0  2.252698  0
O  O75  1  0.05028441  0.36693741  0.66003662  1  0  -0.71686  0  1.989101  0  0  -0.677242  0  2.243772  0  0  -0.703571  0  2.230087  0  0  -0.395698  -0.658362  0  2.252837  0
O  O76  1  0.01871166  0.65113549  0.75921792  1  0  -0.72789  0  2.027348  0  0  -0.690922  0  2.288171  0  0  -0.716411  0  2.275342  0  0  -0.383674  -0.672541  0  2.296415  0
O  O77  1  0.98129042  0.84887253  0.25921518  1  0  -0.727794  0  2.027233  0  0  -0.690859  0  2.287926  0  0  -0.716367  0  2.275102  0  0  -0.383644  -0.672477  0  2.296167  0
O  O78  1  0.98128837  0.34886964  0.24078207  1  0  -0.727942  0  2.027337  0  0  -0.690947  0  2.288163  0  0  -0.716436  0  2.27533  0  0  -0.383707  -0.672565  0  2.296408  0
O  O79  1  0.01870512  0.15112162  0.74078773  1  0  -0.727932  0  2.027031  0  0  -0.690918  0  2.287819  0  0  -0.716449  0  2.275037  0  0  -0.383742  -0.672537  0  2.296058  0
O  O80  1  0.39839577  0.30048457  0.21255634  1  0  -0.625181  0  1.938484  0  0  -0.589446  0  2.172871  0  0  -0.614272  0  2.167824  0  0  -0.318802  -0.571884  0  2.175699  0
O  O81  1  0.60159455  0.19949743  0.71255267  1  0  -0.625181  0  1.938294  0  0  -0.589492  0  2.172737  0  0  -0.61432  0  2.167685  0  0  -0.318809  -0.57193  0  2.17556  0
O  O82  1  0.60160223  0.69951812  0.78744306  1  0  -0.625079  0  1.938674  0  0  -0.589352  0  2.173055  0  0  -0.614171  0  2.167997  0  0  -0.318747  -0.571794  0  2.175887  0
O  O83  1  0.39840329  0.80049551  0.28744439  1  0  -0.625157  0  1.938302  0  0  -0.589525  0  2.172789  0  0  -0.614329  0  2.167687  0  0  -0.318848  -0.57196  0  2.175627  0
O  O84  1  0.75066489  0.75937711  0.11083499  1  0  -0.711793  0  1.987343  0  0  -0.672711  0  2.233494  0  0  -0.698648  0  2.220646  0  0  -0.389433  -0.654012  0  2.241863  0
O  O85  1  0.24932196  0.74062864  0.61083690  1  0  -0.711787  0  1.987208  0  0  -0.672691  0  2.233377  0  0  -0.698626  0  2.220537  0  0  -0.389418  -0.653994  0  2.24175  0
O  O86  1  0.24933896  0.24061829  0.88916675  1  0  -0.711855  0  1.987464  0  0  -0.672774  0  2.233543  0  0  -0.698722  0  2.220722  0  0  -0.389417  -0.654075  0  2.241908  0
O  O87  1  0.75066844  0.25937525  0.38916308  1  0  -0.711754  0  1.987411  0  0  -0.672654  0  2.233559  0  0  -0.698585  0  2.220725  0  0  -0.389406  -0.653954  0  2.241927  0
O  O88  1  0.60776643  0.16162201  0.22640712  1  0  -0.827545  0  2.214943  0  0  -0.780632  0  2.477752  0  0  -0.808375  0  2.466955  0  0  -0.466221  -0.760264  0  2.484357  0
O  O89  1  0.39223757  0.33837441  0.72640904  1  0  -0.827447  0  2.214988  0  0  -0.780545  0  2.477829  0  0  -0.808269  0  2.466995  0  0  -0.466172  -0.760179  0  2.484431  0
O  O90  1  0.39223184  0.83837702  0.77359345  1  0  -0.827535  0  2.21485  0  0  -0.780639  0  2.477673  0  0  -0.808377  0  2.466855  0  0  -0.466254  -0.760271  0  2.484278  0
O  O91  1  0.60776336  0.66162463  0.27359154  1  0  -0.827601  0  2.214957  0  0  -0.780699  0  2.477756  0  0  -0.808436  0  2.466935  0  0  -0.466224  -0.760325  0  2.484369  0
O  O92  1  0.47817775  0.94345671  0.12376222  1  0  -0.626048  0  2.203357  0  0  -0.575967  0  2.453966  0  0  -0.594008  0  2.440615  0  0  -0.460667  -0.562534  0  2.462907  0
O  O93  1  0.52182105  0.55653909  0.62376309  1  0  -0.626068  0  2.203317  0  0  -0.576018  0  2.453916  0  0  -0.594044  0  2.440576  0  0  -0.460712  -0.562587  0  2.462845  0
O  O94  1  0.52182256  0.05654476  0.87623835  1  0  -0.626066  0  2.203317  0  0  -0.575971  0  2.453956  0  0  -0.594006  0  2.440608  0  0  -0.460687  -0.562539  0  2.462891  0
O  O95  1  0.47818023  0.44346118  0.37623748  1  0  -0.626081  0  2.203269  0  0  -0.576015  0  2.45387  0  0  -0.594042  0  2.440525  0  0  -0.460715  -0.562583  0  2.462798  0
