# generated using pymatgen
data_Zn4H32C40N12O13
_symmetry_space_group_name_H-M   'P 1'
_cell_length_a   23.81107772
_cell_length_b   23.81252814
_cell_length_c   23.81167549
_cell_angle_alpha   67.09042768
_cell_angle_beta   72.22636165
_cell_angle_gamma   107.78287572
_symmetry_Int_Tables_number   1
_chemical_formula_structural   Zn4H32C40N12O13
_chemical_formula_sum   'Zn8 H64 C80 N24 O26'
_cell_volume   10365.43213050
_cell_formula_units_Z   2
loop_
 _symmetry_equiv_pos_site_id
 _symmetry_equiv_pos_as_xyz
  1  'x, y, z'
loop_
 _atom_site_type_symbol
 _atom_site_label
 _atom_site_symmetry_multiplicity
 _atom_site_fract_x
 _atom_site_fract_y
 _atom_site_fract_z
 _atom_site_occupancy
 _atom_site_pbe_bader_charge
 _atom_site_pbe_bader_spin_density
 _atom_site_pbe_cm5_charge
 _atom_site_pbe_ddec_charge
 _atom_site_pbe_ddec_spin_density
 _atom_site_pbe_ddec_sum_bond_order
 _atom_site_pbe_magmom
Zn  Zn0  1  0.05729328  0.95757523  0.48601342  1  1.316657  0  0.67119  0.956048  0  2.395623  0
Zn  Zn1  1  0.05728378  0.09970533  0.45672798  1  1.314953  0  0.671069  0.955744  0  2.395074  0
Zn  Zn2  1  0.94270923  0.98599444  0.45756971  1  1.316442  0  0.671148  0.956114  0  2.394393  0
Zn  Zn3  1  0.94271874  0.95672903  0.59970843  1  1.315159  0  0.671156  0.955981  0  2.39485  0
Zn  Zn4  1  0.94357094  0.54331464  0.01400116  1  1.31638  0  0.670997  0.955863  0  2.394532  0
Zn  Zn5  1  0.05643275  0.51400313  0.04330210  1  1.316327  0  0.670992  0.955934  0  2.394847  0
Zn  Zn6  1  0.94357217  0.40031486  0.04241763  1  1.315589  0  0.670977  0.955783  0  2.394817  0
Zn  Zn7  1  0.05642889  0.54244456  0.90029088  1  1.316005  0  0.671084  0.955945  0  2.39502  0
H  H8  1  0.93410954  0.66384357  0.10015461  1  0.078568  0  0.102104  0.123312  0  1.010168  0
H  H9  1  0.06595589  0.60012775  0.16383454  1  0.078353  0  0.102254  0.123368  0  1.010029  0
H  H10  1  0.91545757  0.87725488  0.35974135  1  0.082294  0  0.101533  0.122293  0  1.01149  0
H  H11  1  0.08447532  0.85960591  0.37743240  1  0.079461  0  0.101829  0.122739  0  1.011678  0
H  H12  1  0.06594060  0.46582700  0.77024237  1  0.092023  0  0.102273  0.123455  0  1.010068  0
H  H13  1  0.93408294  0.27030043  0.96577884  1  0.093389  0  0.102246  0.123383  0  1.009885  0
H  H14  1  0.08450003  0.22486592  0.53814993  1  0.065858  0  0.101821  0.122536  0  1.011617  0
H  H15  1  0.91548365  0.03817882  0.72483377  1  0.065519  0  0.101605  0.122409  0  1.011671  0
H  H16  1  0.73699844  0.46190334  0.12262228  1  0.066879  0  0.101876  0.122827  0  1.011732  0
H  H17  1  0.73700563  0.27522553  0.14027767  1  0.07511  0  0.101593  0.122278  0  1.01155  0
H  H18  1  0.26390953  0.22972612  0.33619609  1  0.080898  0  0.102258  0.123539  0  1.009725  0
H  H19  1  0.26399034  0.03423717  0.39978166  1  0.091172  0  0.102167  0.123328  0  1.009962  0
H  H20  1  0.26300940  0.62264140  0.96187245  1  0.067184  0  0.101869  0.122684  0  1.011606  0
H  H21  1  0.26297859  0.64029915  0.77519618  1  0.073254  0  0.101654  0.122449  0  1.011376  0
H  H22  1  0.73606522  0.83618759  0.72973476  1  0.081125  0  0.102285  0.123514  0  1.01003  0
H  H23  1  0.73601938  0.89985507  0.53421525  1  0.091804  0  0.102201  0.123275  0  1.010029  0
H  H24  1  0.91896819  0.84411917  0.74975730  1  0.479978  0  0.289447  0.300687  0  1.005139  0
H  H25  1  0.91021564  0.80318691  0.83165583  1  0.419433  0  0.2914  0.277573  0  0.976678  0
H  H26  1  0.09383120  0.66872150  0.75024881  1  0.472779  0  0.289542  0.300858  0  1.004756  0
H  H27  1  0.13481473  0.74187472  0.66834745  1  0.417695  0  0.291475  0.277574  0  0.976874  0
H  H28  1  0.90614836  0.65590832  0.92513021  1  0.47535  0  0.289535  0.300906  0  1.004666  0
H  H29  1  0.86516573  0.69683631  0.89297535  1  0.418625  0  0.291388  0.277557  0  0.97704  0
H  H30  1  0.08103950  0.83132046  0.57486577  1  0.479729  0  0.28954  0.300754  0  1.005075  0
H  H31  1  0.08979374  0.75817041  0.60701514  1  0.421643  0  0.291266  0.277343  0  0.97682  0
H  H32  1  0.91898073  0.07486756  0.33125884  1  0.479633  0  0.289445  0.300729  0  1.004783  0
H  H33  1  0.91019969  0.10702748  0.25812500  1  0.421034  0  0.291441  0.277612  0  0.976636  0
H  H34  1  0.09384858  0.42512948  0.15591676  1  0.475487  0  0.289538  0.300818  0  1.004768  0
H  H35  1  0.13482459  0.39297931  0.19684461  1  0.419203  0  0.291423  0.277548  0  0.977069  0
H  H36  1  0.90616660  0.25025969  0.16867875  1  0.472598  0  0.289461  0.300751  0  1.005107  0
H  H37  1  0.86517349  0.16835110  0.24183390  1  0.416939  0  0.291196  0.277279  0  0.977116  0
H  H38  1  0.08104449  0.24975053  0.34410279  1  0.480021  0  0.289435  0.300664  0  1.00515  0
H  H39  1  0.08978877  0.33164775  0.30319247  1  0.419304  0  0.291435  0.277676  0  0.97663  0
H  H40  1  0.05794470  0.67160107  0.27456720  1  0.441927  0  0.294833  0.286206  0  0.978951  0
H  H41  1  0.08862936  0.62642131  0.24644072  1  0.419643  0  0.308787  0.303324  0  0.935672  0
H  H42  1  0.94200330  0.77442374  0.17179062  1  0.431056  0  0.29461  0.28587  0  0.979106  0
H  H43  1  0.91138476  0.74635800  0.12654723  1  0.422661  0  0.308892  0.303708  0  0.935517  0
H  H44  1  0.10512587  0.78437808  0.27027868  1  0.422246  0  0.294563  0.285918  0  0.980025  0
H  H45  1  0.13641397  0.81313210  0.31479164  1  0.438815  0  0.30869  0.302496  0  0.936393  0
H  H46  1  0.89472578  0.76999019  0.28462797  1  0.448468  0  0.294937  0.286682  0  0.979702  0
H  H47  1  0.86352320  0.81464327  0.31321373  1  0.436423  0  0.30877  0.302859  0  0.935358  0
H  H48  1  0.94204123  0.16757660  0.88629405  1  0.437225  0  0.294803  0.28619  0  0.978989  0
H  H49  1  0.91140227  0.16504297  0.96213253  1  0.442561  0  0.308699  0.303251  0  0.936167  0
H  H50  1  0.05800179  0.38632500  0.66753314  1  0.4373  0  0.294914  0.286205  0  0.978927  0
H  H51  1  0.08862065  0.46216865  0.66499668  1  0.414542  0  0.308683  0.303138  0  0.936082  0
H  H52  1  0.89479925  0.12469638  0.82068780  1  0.448248  0  0.294867  0.286579  0  0.97983  0
H  H53  1  0.86354384  0.04887640  0.82324830  1  0.417341  0  0.308767  0.302954  0  0.935431  0
H  H54  1  0.10521866  0.32072078  0.62466932  1  0.448284  0  0.294875  0.286511  0  0.980026  0
H  H55  1  0.13644657  0.32328073  0.54885456  1  0.417038  0  0.308737  0.302804  0  0.935576  0
H  H56  1  0.55463910  0.17937499  0.21532877  1  0.446744  0  0.29482  0.28637  0  0.979709  0
H  H57  1  0.62787871  0.17677358  0.18675051  1  0.433124  0  0.308838  0.302852  0  0.935717  0
H  H58  1  0.55461080  0.37537730  0.22974630  1  0.421596  0  0.294488  0.285962  0  0.979808  0
H  H59  1  0.62786860  0.45117373  0.18525907  1  0.436697  0  0.308686  0.302454  0  0.93621  0
H  H60  1  0.44620944  0.11378641  0.32816024  1  0.420659  0  0.294766  0.286015  0  0.978784  0
H  H61  1  0.37290486  0.03792977  0.37339672  1  0.45037  0  0.308807  0.303295  0  0.936102  0
H  H62  1  0.44612521  0.33249327  0.22543124  1  0.429295  0  0.294704  0.286148  0  0.978952  0
H  H63  1  0.37282288  0.33502564  0.25356049  1  0.432915  0  0.30879  0.303214  0  0.935956  0
H  H64  1  0.44533371  0.71534713  0.67936427  1  0.418383  0  0.294799  0.28637  0  0.979649  0
H  H65  1  0.37207758  0.68676768  0.67676462  1  0.432224  0  0.308803  0.302791  0  0.936058  0
H  H66  1  0.44540438  0.72976366  0.87535316  1  0.421446  0  0.294713  0.286109  0  0.980184  0
H  H67  1  0.37215449  0.68527593  0.95114839  1  0.437163  0  0.308731  0.302543  0  0.936021  0
H  H68  1  0.55379563  0.82819990  0.61375303  1  0.446245  0  0.294904  0.286049  0  0.979174  0
H  H69  1  0.62710151  0.87345612  0.53789082  1  0.449353  0  0.308732  0.303252  0  0.935861  0
H  H70  1  0.55386707  0.72544293  0.83246172  1  0.430465  0  0.294636  0.286287  0  0.978704  0
H  H71  1  0.62718211  0.75358034  0.83499266  1  0.432973  0  0.30881  0.303266  0  0.936169  0
C  C72  1  0.18277755  0.09139560  0.40861135  1  1.540611  0  0.226975  0.607875  0  4.144021  0
C  C73  1  0.00003573  0.13923926  0.36074086  1  1.491704  0  0.223775  0.624993  0  4.109216  0
C  C74  1  0.99998359  0.90904546  0.40914415  1  1.52245  0  0.226716  0.610295  0  4.1456  0
C  C75  1  0.81722271  0.90862147  0.59137480  1  1.542  0  0.227297  0.608265  0  4.143944  0
C  C76  1  0.00002500  0.86081147  0.63923270  1  1.49293  0  0.223842  0.62539  0  4.109071  0
C  C77  1  0.99999020  0.09093040  0.59089425  1  1.551943  0  0.226382  0.610042  0  4.145911  0
C  C78  1  0.00002153  0.59140767  0.09139638  1  1.53962  0  0.227159  0.608062  0  4.143628  0
C  C79  1  0.99998691  0.36076393  0.13923441  1  1.492108  0  0.224176  0.625726  0  4.108755  0
C  C80  1  0.81817892  0.40914266  0.09087876  1  1.540905  0  0.226329  0.609658  0  4.146859  0
C  C81  1  0.99999920  0.40864189  0.90860062  1  1.566474  0  0.227154  0.608331  0  4.143518  0
C  C82  1  0.00000238  0.63924583  0.86075710  1  1.492384  0  0.224467  0.625927  0  4.109404  0
C  C83  1  0.18182446  0.59090308  0.90911325  1  1.541721  0  0.22661  0.610383  0  4.14582  0
C  C84  1  0.00000780  0.80464342  0.69537276  1  0.020784  0  -0.040819  -0.250215  0  3.944463  0
C  C85  1  0.99999329  0.69538934  0.80461734  1  0.044608  0  -0.04107  -0.250994  0  3.944648  0
C  C86  1  0.95712386  0.77772687  0.76683597  1  0.433629  0  0.077064  0.172825  0  4.049487  0
C  C87  1  0.04454260  0.72397337  0.73315653  1  0.421283  0  0.077022  0.173027  0  4.049469  0
C  C88  1  0.95543905  0.72229484  0.82058196  1  0.369425  0  0.076867  0.173142  0  4.049693  0
C  C89  1  0.04287132  0.77604927  0.67940830  1  0.390353  0  0.077072  0.172879  0  4.049633  0
C  C90  1  0.00000727  0.19537629  0.30461047  1  0.017721  0  -0.040795  -0.250159  0  3.944194  0
C  C91  1  0.99999376  0.30462046  0.19538020  1  0.044415  0  -0.040927  -0.25046  0  3.944421  0
C  C92  1  0.95713319  0.17941269  0.27600992  1  0.394061  0  0.076906  0.172805  0  4.049498  0
C  C93  1  0.04456340  0.32059426  0.22229007  1  0.369939  0  0.077038  0.172968  0  4.048856  0
C  C94  1  0.95545662  0.23316657  0.22394705  1  0.420937  0  0.076966  0.172987  0  4.049533  0
C  C95  1  0.04288030  0.26683312  0.27771537  1  0.434026  0  0.076856  0.172536  0  4.04938  0
C  C96  1  0.00004140  0.62900498  0.12899755  1  -0.000108  0  -0.023479  0.001573  0  4.054276  0
C  C97  1  0.96261503  0.66434098  0.12823183  1  -0.016255  0  -0.117231  -0.261147  0  3.987716  0
C  C98  1  0.96266192  0.70023783  0.16273416  1  0.409279  0  0.09713  0.277473  0  4.097913  0
C  C99  1  0.99998190  0.69933229  0.19950175  1  0.148722  0  -0.027422  -0.085224  0  4.065988  0
C  C100  1  0.03735019  0.66261714  0.20033531  1  0.40218  0  0.096861  0.276562  0  4.099593  0
C  C101  1  0.03743796  0.62819230  0.16436325  1  -0.016311  0  -0.117073  -0.260433  0  3.988351  0
C  C102  1  0.99992915  0.73463325  0.23494555  1  -0.337626  0  -0.053384  -0.102763  0  4.189991  0
C  C103  1  0.99989447  0.76550070  0.26594281  1  -0.190406  0  -0.053636  -0.104201  0  4.192428  0
C  C104  1  0.99988757  0.80087483  0.30130407  1  0.187195  0  -0.027401  -0.086016  0  4.069406  0
C  C105  1  0.95096958  0.82329941  0.31471543  1  0.346471  0  0.097667  0.279007  0  4.095886  0
C  C106  1  0.95197463  0.85909350  0.34932698  1  0.006178  0  -0.118242  -0.260997  0  3.988196  0
C  C107  1  0.99996480  0.87141867  0.37159243  1  0.055853  0  -0.023251  -0.000826  0  4.057564  0
C  C108  1  0.04792177  0.84911294  0.35932639  1  0.016186  0  -0.118832  -0.262221  0  3.990513  0
C  C109  1  0.04886691  0.81439919  0.32363188  1  0.344965  0  0.097785  0.278805  0  4.096722  0
C  C110  1  0.00001493  0.37104617  0.87100826  1  -0.023282  0  -0.023245  0.001505  0  4.054226  0
C  C111  1  0.03742757  0.40925068  0.79824085  1  -0.037307  0  -0.117356  -0.260899  0  3.987368  0
C  C112  1  0.03735864  0.37471019  0.76238107  1  0.433226  0  0.097007  0.276944  0  4.098707  0
C  C113  1  0.00001244  0.30063127  0.80058068  1  0.188011  0  -0.027471  -0.085174  0  4.065489  0
C  C114  1  0.96267039  0.26242675  0.87466667  1  0.430651  0  0.097118  0.277208  0  4.098237  0
C  C115  1  0.96260483  0.29829148  0.90919517  1  -0.037888  0  -0.117519  -0.261143  0  3.988185  0
C  C116  1  0.99999636  0.26524112  0.76522083  1  -0.333499  0  -0.053738  -0.103085  0  4.189193  0
C  C117  1  0.99999603  0.23431073  0.73428200  1  -0.187065  0  -0.05305  -0.10316  0  4.190127  0
C  C118  1  0.99999521  0.19893877  0.69891341  1  0.016261  0  -0.02734  -0.086859  0  4.068646  0
C  C119  1  0.04893719  0.23441694  0.62759336  1  0.433095  0  0.097608  0.279263  0  4.095353  0
C  C120  1  0.04795620  0.19878227  0.59281242  1  0.067968  0  -0.118654  -0.261563  0  3.989612  0
C  C121  1  0.99999215  0.12852641  0.62848164  1  -0.036488  0  -0.023331  -0.001361  0  4.058616  0
C  C122  1  0.95202819  0.09283955  0.69874753  1  0.069185  0  -0.118481  -0.261368  0  3.988721  0
C  C123  1  0.95105393  0.12761775  0.73438697  1  0.436752  0  0.097673  0.279068  0  4.095498  0
C  C124  1  0.74300083  0.37157052  0.12842042  1  -0.106276  0  -0.023139  -0.000511  0  4.058252  0
C  C125  1  0.70841804  0.40725568  0.14069944  1  0.077561  0  -0.11898  -0.26241  0  3.990512  0
C  C126  1  0.63800325  0.37249003  0.17639710  1  0.400747  0  0.097641  0.278521  0  4.097378  0
C  C127  1  0.60216376  0.30119096  0.19870911  1  0.119559  0  -0.027265  -0.086205  0  4.069087  0
C  C128  1  0.63801261  0.26569186  0.18529768  1  0.339226  0  0.097637  0.279133  0  4.095419  0
C  C129  1  0.70842118  0.30131862  0.15070284  1  0.123313  0  -0.118369  -0.261166  0  3.988804  0
C  C130  1  0.53142495  0.26582129  0.23406142  1  -0.129032  0  -0.053515  -0.103888  0  4.192292  0
C  C131  1  0.46955754  0.23485731  0.26505747  1  -0.384299  0  -0.053592  -0.103039  0  4.190561  0
C  C132  1  0.39881447  0.19945393  0.30047973  1  0.161401  0  -0.027376  -0.085309  0  4.065542  0
C  C133  1  0.36291593  0.23764552  0.29966461  1  0.328179  0  0.097159  0.277283  0  4.098222  0
C  C134  1  0.29252509  0.20175804  0.33563726  1  0.103428  0  -0.117347  -0.261268  0  3.988226  0
C  C135  1  0.25797222  0.12900428  0.37096968  1  -0.057464  0  -0.023262  0.001926  0  4.054108  0
C  C136  1  0.29255231  0.09081685  0.37171367  1  -0.048613  0  -0.117396  -0.261147  0  3.98753  0
C  C137  1  0.36294737  0.12537070  0.33721842  1  0.410085  0  0.097197  0.277605  0  4.097741  0
C  C138  1  0.25699988  0.62844693  0.87154696  1  -0.107423  0  -0.023371  -0.001143  0  4.058602  0
C  C139  1  0.29159276  0.64071921  0.90722620  1  0.079318  0  -0.11875  -0.261713  0  3.990396  0
C  C140  1  0.36200646  0.67640677  0.87246651  1  0.400467  0  0.097553  0.278402  0  4.097059  0
C  C141  1  0.39782963  0.69871515  0.80116685  1  0.120497  0  -0.027399  -0.086212  0  4.069464  0
C  C142  1  0.36197029  0.68530057  0.76567917  1  0.338447  0  0.097691  0.279023  0  4.096361  0
C  C143  1  0.29156090  0.65071509  0.80129526  1  0.124395  0  -0.118341  -0.261234  0  3.988551  0
C  C144  1  0.46856951  0.73406547  0.76578527  1  -0.125149  0  -0.053393  -0.103846  0  4.192178  0
C  C145  1  0.53043717  0.76507097  0.73481780  1  -0.387996  0  -0.053673  -0.103153  0  4.190288  0
C  C146  1  0.60118278  0.80050564  0.69942448  1  0.164429  0  -0.027301  -0.084803  0  4.06544  0
C  C147  1  0.63707680  0.79967983  0.73761482  1  0.325243  0  0.097216  0.277163  0  4.098617  0
C  C148  1  0.70747417  0.83564453  0.70174428  1  0.104503  0  -0.117579  -0.261402  0  3.988512  0
C  C149  1  0.74202155  0.87099263  0.62898351  1  -0.058612  0  -0.023218  0.001661  0  4.054218  0
C  C150  1  0.70744247  0.87177354  0.59079527  1  -0.049137  0  -0.117217  -0.260662  0  3.987979  0
C  C151  1  0.63704721  0.83727126  0.62533921  1  0.408886  0  0.096967  0.276939  0  4.098382  0
N  N152  1  0.91267111  0.80078335  0.78923640  1  -1.22551  0  -0.616597  -0.624753  0  3.332988  0
N  N153  1  0.08999410  0.70191567  0.71076012  1  -1.216534  0  -0.616894  -0.625031  0  3.332788  0
N  N154  1  0.90998941  0.69923740  0.88809551  1  -1.216842  0  -0.616639  -0.625031  0  3.332888  0
N  N155  1  0.08733036  0.79811663  0.61189704  1  -1.224226  0  -0.616535  -0.624521  0  3.332974  0
N  N156  1  0.91267017  0.11189723  0.29807564  1  -1.224176  0  -0.616623  -0.624863  0  3.332395  0
N  N157  1  0.08999862  0.38810254  0.19925365  1  -1.218006  0  -0.616705  -0.62479  0  3.332934  0
N  N158  1  0.90999961  0.21077075  0.20188060  1  -1.21549  0  -0.616413  -0.624589  0  3.332683  0
N  N159  1  0.08733401  0.28923587  0.30077971  1  -1.225351  0  -0.616607  -0.624778  0  3.332561  0
N  N160  1  0.07481998  0.66399732  0.23486498  1  -1.20433  0  -0.599192  -0.62011  0  3.311882  0
N  N161  1  0.92516873  0.73473890  0.16414117  1  -1.198221  0  -0.598938  -0.620274  0  3.311463  0
N  N162  1  0.09488931  0.79050051  0.31156286  1  -1.214671  0  -0.59906  -0.619345  0  3.311034  0
N  N163  1  0.90501082  0.81128736  0.29072743  1  -1.237824  0  -0.59976  -0.621069  0  3.310569  0
N  N164  1  0.92519365  0.19043128  0.91075422  1  -1.252967  0  -0.598907  -0.620031  0  3.312073  0
N  N165  1  0.07484383  0.41079239  0.69038949  1  -1.225528  0  -0.599071  -0.619962  0  3.311768  0
N  N166  1  0.90505323  0.09367360  0.80430933  1  -1.22003  0  -0.599521  -0.620764  0  3.310502  0
N  N167  1  0.09494504  0.30434390  0.59364842  1  -1.219473  0  -0.599457  -0.620577  0  3.310461  0
N  N168  1  0.60203206  0.19575717  0.20924894  1  -1.238541  0  -0.599655  -0.620668  0  3.310819  0
N  N169  1  0.60202268  0.40642393  0.18847245  1  -1.218539  0  -0.598856  -0.619062  0  3.311195  0
N  N170  1  0.39887165  0.08929913  0.33581264  1  -1.211152  0  -0.599112  -0.620122  0  3.311409  0
N  N171  1  0.39881661  0.30963835  0.26514532  1  -1.199092  0  -0.599131  -0.620145  0  3.311512  0
N  N172  1  0.39794167  0.70925483  0.69574443  1  -1.209452  0  -0.599587  -0.62051  0  3.311179  0
N  N173  1  0.39799920  0.68848973  0.90639681  1  -1.218771  0  -0.599071  -0.61934  0  3.311182  0
N  N174  1  0.60112014  0.83585527  0.58926817  1  -1.235546  0  -0.599177  -0.619961  0  3.311898  0
N  N175  1  0.60118245  0.76515724  0.80961035  1  -1.199694  0  -0.59902  -0.620254  0  3.311456  0
O  O176  1  0.00000194  0.99999758  0.50000099  1  -1.233695  0  -0.574712  -1.021895  0  2.566497  0
O  O177  1  0.15342931  0.02559819  0.43488088  1  -1.164454  0  -0.318668  -0.549462  0  2.338965  0
O  O178  1  0.04025676  0.15565419  0.38444496  1  -1.181276  0  -0.315425  -0.550477  0  2.376122  0
O  O179  1  0.95934830  0.93395600  0.41351048  1  -1.172896  0  -0.32002  -0.552155  0  2.338198  0
O  O180  1  0.15343665  0.12784149  0.41171009  1  -1.160458  0  -0.318595  -0.549338  0  2.339215  0
O  O181  1  0.04061354  0.91344136  0.43404961  1  -1.173982  0  -0.320047  -0.552138  0  2.339237  0
O  O182  1  0.95982670  0.07531583  0.38453993  1  -1.182577  0  -0.315684  -0.550778  0  2.376207  0
O  O183  1  0.84655414  0.93491122  0.52557755  1  -1.16515  0  -0.318881  -0.549642  0  2.338952  0
O  O184  1  0.95979022  0.88449596  0.65564260  1  -1.182007  0  -0.315682  -0.550853  0  2.375886  0
O  O185  1  0.84656944  0.91168169  0.62782536  1  -1.16112  0  -0.318687  -0.549473  0  2.339093  0
O  O186  1  0.04027166  0.88465035  0.57531560  1  -1.183208  0  -0.315625  -0.550842  0  2.377001  0
O  O187  1  0.04063206  0.12718933  0.52535088  1  -1.1875  0  -0.319967  -0.551925  0  2.33824  0
O  O188  1  0.95936698  0.02540597  0.62713121  1  -1.187377  0  -0.319764  -0.551828  0  2.33933  0
O  O189  1  0.00000299  0.50002807  0.00000102  1  -1.233698  0  -0.574476  -1.021643  0  2.565953  0
O  O190  1  0.96051398  0.58836882  0.06510185  1  -1.164541  0  -0.318622  -0.549382  0  2.338899  0
O  O191  1  0.04010202  0.42469019  0.11553793  1  -1.181578  0  -0.315752  -0.551088  0  2.376173  0
O  O192  1  0.84746878  0.37288232  0.08650062  1  -1.1742  0  -0.319739  -0.551719  0  2.338224  0
O  O193  1  0.03952597  0.56510689  0.08835197  1  -1.164007  0  -0.318649  -0.549441  0  2.338862  0
O  O194  1  0.84747235  0.47466212  0.06600827  1  -1.173142  0  -0.31987  -0.551869  0  2.339874  0
O  O195  1  0.95988262  0.34436164  0.11541178  1  -1.183547  0  -0.315667  -0.550864  0  2.376254  0
O  O196  1  0.96045452  0.37218459  0.97439642  1  -1.177467  0  -0.318725  -0.549574  0  2.338433  0
O  O197  1  0.04010298  0.61542738  0.84435517  1  -1.182935  0  -0.315753  -0.550889  0  2.376928  0
O  O198  1  0.03951491  0.47442922  0.87216399  1  -1.179587  0  -0.318709  -0.549528  0  2.33932  0
O  O199  1  0.95990379  0.61555783  0.92467786  1  -1.182247  0  -0.315748  -0.550965  0  2.376525  0
O  O200  1  0.15253313  0.56598684  0.97465884  1  -1.172937  0  -0.320063  -0.552233  0  2.338351  0
O  O201  1  0.15253203  0.58654478  0.87286238  1  -1.175378  0  -0.319896  -0.55205  0  2.338996  0
