# generated using pymatgen
data_CdH8C12S2N2O3
_symmetry_space_group_name_H-M   'P 1'
_cell_length_a   6.50179973
_cell_length_b   9.16312214
_cell_length_c   10.62332886
_cell_angle_alpha   76.37545183
_cell_angle_beta   82.44306484
_cell_angle_gamma   83.07236842
_symmetry_Int_Tables_number   1
_chemical_formula_structural   CdH8C12S2N2O3
_chemical_formula_sum   'Cd2 H16 C24 S4 N4 O6'
_cell_volume   607.10677365
_cell_formula_units_Z   2
loop_
 _symmetry_equiv_pos_site_id
 _symmetry_equiv_pos_as_xyz
  1  'x, y, z'
loop_
 _atom_site_type_symbol
 _atom_site_label
 _atom_site_symmetry_multiplicity
 _atom_site_fract_x
 _atom_site_fract_y
 _atom_site_fract_z
 _atom_site_occupancy
 _atom_site_hle17_bader_spin_density
 _atom_site_hle17_ddec_charge
 _atom_site_hle17_ddec_spin_density
 _atom_site_hle17_ddec_sum_bond_order
 _atom_site_hle17_magmom
 _atom_site_hse06_10hf_bader_spin_density
 _atom_site_hse06_10hf_ddec_charge
 _atom_site_hse06_10hf_ddec_spin_density
 _atom_site_hse06_10hf_ddec_sum_bond_order
 _atom_site_hse06_10hf_magmom
 _atom_site_hse06_bader_spin_density
 _atom_site_hse06_ddec_charge
 _atom_site_hse06_ddec_spin_density
 _atom_site_hse06_ddec_sum_bond_order
 _atom_site_hse06_magmom
 _atom_site_pbe_bader_spin_density
 _atom_site_pbe_cm5_charge
 _atom_site_pbe_ddec_charge
 _atom_site_pbe_ddec_spin_density
 _atom_site_pbe_ddec_sum_bond_order
 _atom_site_pbe_magmom
Cd  Cd0  1  0.69759585  0.35687670  0.68951799  1  0  1.058745  0  1.770362  0  0  0.876157  0  2.225725  0  0  0.925358  0  2.179875  0  0  0.729729  0.839606  0  2.259258  0
Cd  Cd1  1  0.30240290  0.64312527  0.31048288  1  0  1.058753  0  1.770346  0  0  0.876145  0  2.225705  0  0  0.925347  0  2.179854  0  0  0.729724  0.839595  0  2.25924  0
H  H2  1  0.70578682  0.18401058  0.45461078  1  0  0.081217  0  0.95881  0  0  0.085633  0  1.03165  0  0  0.088053  0  1.029206  0  0  0.109068  0.084106  0  1.033134  0
H  H3  1  0.29420254  0.81599253  0.54538679  1  0  0.081134  0  0.958881  0  0  0.085564  0  1.031704  0  0  0.08797  0  1.029293  0  0  0.10905  0.084043  0  1.033191  0
H  H4  1  0.74839053  0.91704290  0.41976496  1  0  0.116648  0  0.94907  0  0  0.12958  0  1.002949  0  0  0.132378  0  1.002844  0  0  0.108475  0.126915  0  1.004513  0
H  H5  1  0.25160987  0.08295794  0.58023883  1  0  0.116692  0  0.948991  0  0  0.129621  0  1.002863  0  0  0.13242  0  1.002757  0  0  0.108504  0.126955  0  1.004428  0
H  H6  1  0.81174535  0.70401361  0.60597060  1  0  0.112423  0  0.959246  0  0  0.118785  0  1.027597  0  0  0.121757  0  1.024943  0  0  0.106089  0.116394  0  1.029837  0
H  H7  1  0.18825786  0.29598949  0.39403347  1  0  0.11245  0  0.959093  0  0  0.118792  0  1.027501  0  0  0.121762  0  1.024847  0  0  0.106086  0.116398  0  1.029743  0
H  H8  1  0.85023156  0.61380753  0.84595855  1  0  0.110915  0  0.960809  0  0  0.12332  0  1.016973  0  0  0.125884  0  1.016504  0  0  0.102172  0.121276  0  1.01803  0
H  H9  1  0.14976571  0.38619444  0.15403771  1  0  0.110946  0  0.960772  0  0  0.123348  0  1.016949  0  0  0.125911  0  1.016482  0  0  0.102173  0.121303  0  1.018005  0
H  H10  1  0.82236248  0.67133751  0.06534105  1  0  0.104106  0  0.981575  0  0  0.110572  0  1.050125  0  0  0.113434  0  1.048964  0  0  0.095871  0.108726  0  1.050524  0
H  H11  1  0.17764125  0.32866220  0.93465802  1  0  0.104129  0  0.981723  0  0  0.110594  0  1.050259  0  0  0.113454  0  1.049096  0  0  0.095911  0.108747  0  1.050656  0
H  H12  1  0.75902328  0.86154214  0.20423437  1  0  0.113022  0  0.951474  0  0  0.122479  0  1.014954  0  0  0.125856  0  1.011818  0  0  0.108536  0.120028  0  1.017414  0
H  H13  1  0.24097682  0.13844968  0.79576468  1  0  0.112968  0  0.951514  0  0  0.122433  0  1.014988  0  0  0.125811  0  1.01185  0  0  0.108537  0.119982  0  1.017449  0
H  H14  1  0.70014332  0.13644165  0.21610497  1  0  0.105139  0  0.954016  0  0  0.115346  0  1.015668  0  0  0.117748  0  1.016175  0  0  0.102297  0.11231  0  1.017951  0
H  H15  1  0.29985681  0.86354904  0.78390184  1  0  0.105172  0  0.953995  0  0  0.115357  0  1.015667  0  0  0.117758  0  1.016174  0  0  0.102301  0.112323  0  1.01795  0
H  H16  1  0.68091973  0.33253088  0.01122036  1  0  0.075219  0  0.933233  0  0  0.084685  0  0.99766  0  0  0.086646  0  0.995801  0  0  0.110156  0.083195  0  0.998982  0
H  H17  1  0.31907481  0.66746658  0.98879020  1  0  0.075425  0  0.933167  0  0  0.084812  0  0.997634  0  0  0.086773  0  0.995777  0  0  0.11022  0.08332  0  0.99896  0
C  C18  1  0.73158885  0.08622167  0.53434173  1  0  0.15478  0  3.689495  0  0  0.121812  0  3.94456  0  0  0.130916  0  3.961531  0  0  0.057181  0.116934  0  3.932785  0
C  C19  1  0.26841584  0.91378255  0.46565729  1  0  0.154884  0  3.689297  0  0  0.121895  0  3.94435  0  0  0.130998  0  3.961317  0  0  0.057185  0.117009  0  3.932585  0
C  C20  1  0.75602057  0.93836042  0.51541806  1  0  -0.12064  0  3.72497  0  0  -0.135311  0  3.979289  0  0  -0.14277  0  4.000788  0  0  -0.085196  -0.129765  0  3.965764  0
C  C21  1  0.24398190  0.06164944  0.48457716  1  0  -0.120829  0  3.724951  0  0  -0.135467  0  3.979298  0  0  -0.142925  0  4.000794  0  0  -0.085276  -0.12992  0  3.965774  0
C  C22  1  0.78972547  0.81898000  0.61970901  1  0  -0.024742  0  3.652144  0  0  -0.050329  0  3.90303  0  0  -0.047269  0  3.920092  0  0  -0.059895  -0.053566  0  3.891793  0
C  C23  1  0.21027477  0.18102310  0.38028586  1  0  -0.024623  0  3.651881  0  0  -0.050224  0  3.902852  0  0  -0.047177  0  3.919949  0  0  -0.059865  -0.05346  0  3.891609  0
C  C24  1  0.79424634  0.84743424  0.74440403  1  0  0.021739  0  3.783892  0  0  0.03897  0  4.01437  0  0  0.036159  0  4.039535  0  0  -0.001827  0.041808  0  3.997488  0
C  C25  1  0.20575191  0.15257224  0.25559125  1  0  0.021674  0  3.783596  0  0  0.038872  0  4.014211  0  0  0.036059  0  4.039376  0  0  -0.00187  0.041713  0  3.997324  0
C  C26  1  0.81949806  0.72955707  0.85829462  1  0  -0.094617  0  3.713944  0  0  -0.114433  0  3.961658  0  0  -0.118767  0  3.985865  0  0  -0.085554  -0.112606  0  3.946161  0
C  C27  1  0.18049629  0.27044377  0.14169927  1  0  -0.09462  0  3.713854  0  0  -0.11442  0  3.961593  0  0  -0.118753  0  3.985801  0  0  -0.085461  -0.112592  0  3.946093  0
C  C28  1  0.80652723  0.76154859  0.97858161  1  0  -0.101834  0  3.741082  0  0  -0.122205  0  3.992846  0  0  -0.125609  0  4.016826  0  0  -0.087287  -0.119394  0  3.976483  0
C  C29  1  0.19347330  0.23845225  0.02141370  1  0  -0.10188  0  3.741203  0  0  -0.122252  0  3.99294  0  0  -0.125653  0  4.016914  0  0  -0.087386  -0.11944  0  3.976573  0
C  C30  1  0.77140944  0.91398870  0.99376994  1  0  0.026178  0  3.779391  0  0  0.042664  0  4.008694  0  0  0.039969  0  4.033273  0  0  -0.004272  0.043897  0  3.99297  0
C  C31  1  0.22859565  0.08601214  0.00623162  1  0  0.026145  0  3.779318  0  0  0.042678  0  4.008618  0  0  0.039985  0  4.033195  0  0  -0.004257  0.043912  0  3.992894  0
C  C32  1  0.75092372  0.95183402  0.11667247  1  0  -0.035107  0  3.645173  0  0  -0.062642  0  3.90126  0  0  -0.059188  0  3.917102  0  0  -0.063522  -0.065103  0  3.891427  0
C  C33  1  0.24907861  0.04816456  0.88332599  1  0  -0.035015  0  3.645066  0  0  -0.062556  0  3.901113  0  0  -0.059095  0  3.916939  0  0  -0.063546  -0.065019  0  3.891283  0
C  C34  1  0.71766458  0.10164402  0.12381252  1  0  -0.121366  0  3.738161  0  0  -0.138285  0  3.999695  0  0  -0.145377  0  4.02163  0  0  -0.087104  -0.133115  0  3.986155  0
C  C35  1  0.28233417  0.89834554  0.87619273  1  0  -0.121411  0  3.738178  0  0  -0.138322  0  3.999665  0  0  -0.145414  0  4.021602  0  0  -0.087055  -0.133151  0  3.986127  0
C  C36  1  0.70659973  0.21335925  0.00823258  1  0  0.153352  0  3.717362  0  0  0.121512  0  3.974878  0  0  0.130401  0  3.992358  0  0  0.056926  0.116412  0  3.961312  0
C  C37  1  0.29340188  0.78663257  0.99176919  1  0  0.153042  0  3.717436  0  0  0.121299  0  3.974869  0  0  0.130184  0  3.992353  0  0  0.056738  0.116201  0  3.961303  0
C  C38  1  0.75495999  0.03437047  0.88231456  1  0  0.125049  0  3.774892  0  0  0.119653  0  4.011005  0  0  0.124112  0  4.033686  0  0  0.114714  0.115606  0  3.996838  0
C  C39  1  0.24504381  0.96562924  0.11767980  1  0  0.125183  0  3.77489  0  0  0.119677  0  4.01113  0  0  0.124136  0  4.033808  0  0  0.114727  0.115632  0  3.99696  0
C  C40  1  0.76480636  0.00040246  0.75534288  1  0  0.12305  0  3.761614  0  0  0.115985  0  3.997456  0  0  0.120324  0  4.020264  0  0  0.113418  0.11355  0  3.982654  0
C  C41  1  0.23519102  0.99959838  0.24465549  1  0  0.123158  0  3.761592  0  0  0.116092  0  3.997514  0  0  0.120437  0  4.020319  0  0  0.113473  0.113655  0  3.98271  0
S  S42  1  0.40554226  0.54535374  0.74517484  1  0  -0.562858  0  1.785074  0  0  -0.530268  0  2.14167  0  0  -0.545387  0  2.123709  0  0  -0.228908  -0.517905  0  2.154845  0
S  S43  1  0.59445685  0.45464485  0.25483139  1  0  -0.562875  0  1.785067  0  0  -0.530308  0  2.141697  0  0  -0.545429  0  2.123734  0  0  -0.228935  -0.517945  0  2.15487  0
S  S44  1  0.20896205  0.46533859  0.64365650  1  0  1.316046  0  5.631398  0  0  1.224379  0  6.160373  0  0  1.274355  0  6.137847  0  0  0.483664  1.189451  0  6.174537  0
S  S45  1  0.79104176  0.53465999  0.35634655  1  0  1.316019  0  5.631647  0  0  1.224346  0  6.160627  0  0  1.274333  0  6.138088  0  0  0.483662  1.189417  0  6.17479  0
N  N46  1  0.73781343  0.11578317  0.65058814  1  0  -0.344961  0  3.250854  0  0  -0.269956  0  3.510858  0  0  -0.289653  0  3.529135  0  0  -0.330782  -0.257349  0  3.498284  0
N  N47  1  0.26218541  0.88421880  0.34940707  1  0  -0.345125  0  3.250925  0  0  -0.270052  0  3.51087  0  0  -0.289746  0  3.529141  0  0  -0.330823  -0.257446  0  3.498301  0
N  N48  1  0.72462307  0.18066915  0.89155058  1  0  -0.365747  0  3.272031  0  0  -0.297526  0  3.539074  0  0  -0.317142  0  3.558013  0  0  -0.328524  -0.282737  0  3.525287  0
N  N49  1  0.27537382  0.81933507  0.10845184  1  0  -0.365679  0  3.271972  0  0  -0.297434  0  3.53901  0  0  -0.317046  0  3.557944  0  0  -0.328444  -0.282644  0  3.525219  0
O  O50  1  0.31475321  0.32622742  0.61042193  1  0  -0.667372  0  1.983428  0  0  -0.614207  0  2.245481  0  0  -0.636695  0  2.233125  0  0  -0.337211  -0.598003  0  2.253434  0
O  O51  1  0.68524623  0.67376891  0.38958191  1  0  -0.66737  0  1.983493  0  0  -0.614224  0  2.245584  0  0  -0.63672  0  2.233234  0  0  -0.337219  -0.598021  0  2.253539  0
O  O52  1  0.16621295  0.58623038  0.52764161  1  0  -0.675698  0  2.090448  0  0  -0.604179  0  2.371713  0  0  -0.62954  0  2.35635  0  0  -0.347016  -0.585871  0  2.381707  0
O  O53  1  0.83379211  0.41377046  0.47236183  1  0  -0.675724  0  2.090675  0  0  -0.604202  0  2.371937  0  0  -0.629573  0  2.356576  0  0  -0.347014  -0.585891  0  2.381922  0
O  O54  1  0.01281647  0.43822634  0.73224454  1  0  -0.682651  0  2.006672  0  0  -0.61215  0  2.277968  0  0  -0.635904  0  2.260806  0  0  -0.351187  -0.594763  0  2.289551  0
O  O55  1  0.98718372  0.56177676  0.26775410  1  0  -0.682659  0  2.00682  0  0  -0.612107  0  2.278054  0  0  -0.635859  0  2.260885  0  0  -0.351152  -0.594719  0  2.289636  0
