# generated using pymatgen
data_Zn3H21(C23O15)2
_symmetry_space_group_name_H-M   'P 1'
_cell_length_a   18.17900432
_cell_length_b   18.37462389
_cell_length_c   18.70802991
_cell_angle_alpha   109.56038986
_cell_angle_beta   108.10550578
_cell_angle_gamma   107.90634017
_symmetry_Int_Tables_number   1
_chemical_formula_structural   Zn3H21(C23O15)2
_chemical_formula_sum   'Zn6 H42 C92 O60'
_cell_volume   4971.14639411
_cell_formula_units_Z   2
loop_
 _symmetry_equiv_pos_site_id
 _symmetry_equiv_pos_as_xyz
  1  'x, y, z'
loop_
 _atom_site_type_symbol
 _atom_site_label
 _atom_site_symmetry_multiplicity
 _atom_site_fract_x
 _atom_site_fract_y
 _atom_site_fract_z
 _atom_site_occupancy
 _atom_site_pbe_bader_charge
 _atom_site_pbe_bader_spin_density
 _atom_site_pbe_cm5_charge
 _atom_site_pbe_ddec_charge
 _atom_site_pbe_ddec_spin_density
 _atom_site_pbe_ddec_sum_bond_order
 _atom_site_pbe_magmom
Zn  Zn0  1  0.43476780  0.48480282  0.43721141  1  1.323935  0  0.724957  0.963273  0  2.077815  0
Zn  Zn1  1  0.58217273  0.49303079  0.56362686  1  1.373597  0  0.741961  1.032437  0  2.063434  0
Zn  Zn2  1  0.99165593  0.94498821  0.43335441  1  1.335547  0  0.757825  0.999906  0  2.090633  0
Zn  Zn3  1  0.98356640  0.06958484  0.55607741  1  1.316375  0  0.732677  0.967156  0  2.081929  0
Zn  Zn4  1  0.55048376  0.06159570  0.98269554  1  1.375368  0  0.746896  1.025244  0  2.091879  0
Zn  Zn5  1  0.42923715  0.92473323  0.99569665  1  1.331308  0  0.732276  0.967862  0  2.05153  0
H  H6  1  0.89070998  0.74104522  0.52088158  1  0.040958  0  0.100124  0.105884  0  1.003218  0
H  H7  1  0.60579778  0.73208762  0.64614393  1  0.077423  0  0.106082  0.114378  0  1.018103  0
H  H8  1  0.71282484  0.88790028  0.71979955  1  0.066352  0  0.103921  0.102371  0  0.993911  0
H  H9  1  0.68114161  0.99999949  0.80626413  1  0.105172  0  0.110089  0.111234  0  0.980551  0
H  H10  1  0.96779906  0.04125499  0.31835332  1  0.126441  0  0.105825  0.111607  0  1.054113  0
H  H11  1  0.87726031  0.96593066  0.05301057  1  0.119278  0  0.113117  0.114727  0  1.000064  0
H  H12  1  0.63316300  0.05537582  0.24857871  1  0.088939  0  0.113469  0.121016  0  0.993889  0
H  H13  1  0.02927698  0.72802400  0.56568605  1  0.131602  0  0.118577  0.124602  0  0.982894  0
H  H14  1  0.22168271  0.86425835  0.82938289  1  0.156421  0  0.118789  0.139266  0  1.009709  0
H  H15  1  0.70047616  0.79427022  0.59680616  1  0.094468  0  0.101271  0.115398  0  1.029111  0
H  H16  1  0.80618067  0.89702938  0.59144787  1  0.093173  0  0.111533  0.11111  0  0.976506  0
H  H17  1  0.77564805  0.75789476  0.63660247  1  0.066566  0  0.099637  0.109905  0  1.012413  0
H  H18  1  0.82646900  0.69369778  0.41102203  1  0.140244  0  0.114963  0.141136  0  0.985137  0
H  H19  1  0.48769075  0.75228826  0.37490901  1  0.621896  0  0.35282  0.391261  0  0.83758  0
H  H20  1  0.95878236  0.92832851  0.65381968  1  0.088159  0  0.10173  0.043905  0  0.98335  0
H  H21  1  0.38211497  0.31295661  0.10953230  1  0.124803  0  0.124652  0.070407  0  0.932268  0
H  H22  1  0.73992083  0.47317636  0.47867894  1  0.674764  0  0.313592  0.374271  0  0.958539  0
H  H23  1  0.57096519  0.05579653  0.50584951  1  0.615372  0  0.34846  0.383672  0  0.846788  0
H  H24  1  0.41651123  0.19375247  0.35734284  1  0.61372  0  0.32236  0.35309  0  0.933197  0
H  H25  1  0.53645257  0.45142461  0.75960613  1  0.617014  0  0.35261  0.392776  0  0.834603  0
H  H26  1  0.04585928  0.31317428  0.58848004  1  0.620529  0  0.338671  0.368698  0  0.879399  0
H  H27  1  0.20309616  0.95780441  0.33201688  1  0.616365  0  0.356956  0.395815  0  0.826907  0
H  H28  1  0.62793914  0.25175275  0.50900717  1  0.153526  0  0.124941  0.141854  0  0.960897  0
H  H29  1  0.47993350  0.96923723  0.79174586  1  0.085248  0  0.107378  0.04121  0  0.958701  0
H  H30  1  0.76061975  0.75847531  0.31519234  1  0.114496  0  0.119182  0.070857  0  0.967087  0
H  H31  1  0.20646208  0.70348730  0.75324327  1  0.657461  0  0.309935  0.361894  0  0.96018  0
H  H32  1  0.70118811  0.95919267  0.37972320  1  0.653202  0  0.305661  0.347501  0  0.987547  0
H  H33  1  0.06266102  0.02596950  0.26131024  1  0.066023  0  0.096957  0.040958  0  0.989532  0
H  H34  1  0.80292724  0.03820446  0.00421948  1  0.606917  0  0.342176  0.373394  0  0.8684  0
H  H35  1  0.25983996  0.25710824  0.71836499  1  0.612158  0  0.346937  0.386017  0  0.845968  0
H  H36  1  0.15072461  0.89359942  0.52610914  1  0.098662  0  0.10807  0.059843  0  0.962523  0
H  H37  1  0.69988750  0.95164402  0.48068715  1  0.648052  0  0.339537  0.39146  0  0.883752  0
H  H38  1  0.00042354  0.67300794  0.66843616  1  0.076041  0  0.115413  0.060478  0  0.948755  0
H  H39  1  0.48497894  0.04727314  0.24944639  1  0.121948  0  0.115998  0.136125  0  1.000211  0
H  H40  1  0.48209337  0.28032992  0.91881303  1  0.621356  0  0.359613  0.398241  0  0.824564  0
H  H41  1  0.84183073  0.69342784  0.60845332  1  0.131125  0  0.115385  0.055793  0  1.013169  0
H  H42  1  0.58592016  0.47845908  0.29866068  1  0.649029  0  0.315286  0.366173  0  0.945615  0
H  H43  1  0.42617194  0.19232914  0.08336829  1  0.16522  0  0.111589  0.133595  0  1.041553  0
H  H44  1  0.60836668  0.64732727  0.36645869  1  0.176503  0  0.121884  0.127735  0  1.008706  0
H  H45  1  0.31221718  0.50243302  0.71786026  1  0.192725  0  0.117372  0.1337  0  1.014465  0
H  H46  1  0.15439869  0.41705756  0.62436031  1  0.089004  0  0.116427  0.116603  0  0.992956  0
H  H47  1  0.32940591  0.57412046  0.62363815  1  0.097936  0  0.111534  0.117525  0  1.000659  0
C  C48  1  0.48131112  0.38255808  0.35355302  1  1.571028  0  0.217183  0.600495  0  4.160906  0
C  C49  1  0.52517788  0.26218896  0.32714887  1  -0.006184  0  0.012678  0.042174  0  3.894604  0
C  C50  1  0.49228373  0.31278958  0.29568721  1  -0.046469  0  0.003737  -0.089979  0  3.869033  0
C  C51  1  0.62495365  0.61633388  0.50602267  1  1.606524  0  0.227724  0.600769  0  4.082851  0
C  C52  1  0.45681336  0.28690090  0.20822856  1  0.053  0  -0.000517  0.022661  0  3.974129  0
C  C53  1  0.44736861  0.20838773  0.15028513  1  0.023726  0  -0.072524  -0.127202  0  3.916634  0
C  C54  1  0.46626135  0.15242347  0.17807185  1  -0.084456  0  0.009432  -0.019231  0  3.89385  0
C  C55  1  0.34179316  0.40837076  0.64385298  1  -0.040716  0  -0.0054  -0.067576  0  3.921792  0
C  C56  1  0.28643297  0.43818902  0.66467369  1  -0.031155  0  -0.07212  -0.076595  0  3.95115  0
C  C57  1  0.19577927  0.38643857  0.61465547  1  -0.040606  0  -0.077778  -0.101661  0  3.987286  0
C  C58  1  0.16045486  0.30023269  0.55417806  1  -0.056395  0  -0.012887  -0.102221  0  3.971045  0
C  C59  1  0.81024651  0.80173489  0.48912325  1  0.04439  0  0.003428  -0.000139  0  3.717569  0
C  C60  1  0.21755191  0.26424618  0.53925279  1  0.075642  0  0.016857  0.069425  0  3.893821  0
C  C61  1  0.30669430  0.32403034  0.57330705  1  0.037903  0  0.014568  0.048554  0  3.906966  0
C  C62  1  0.35481958  0.29847476  0.53076268  1  0.049798  0  0.017933  -0.030239  0  3.815925  0
C  C63  1  0.46452250  0.59767497  0.58881657  1  1.56866  0  0.223973  0.612022  0  4.131813  0
C  C64  1  0.32555641  0.21093781  0.47920541  1  -0.014196  0  0.002071  -0.066877  0  3.912584  0
C  C65  1  0.24860360  0.14752529  0.46876911  1  0.055346  0  0.018234  -0.020633  0  3.870349  0
C  C66  1  0.19186452  0.17315576  0.49259970  1  -0.007958  0  -0.004687  -0.101872  0  3.901641  0
C  C67  1  0.59603468  0.78115044  0.68860492  1  -0.020488  0  -0.073818  -0.089948  0  3.927208  0
C  C68  1  0.65492163  0.86769540  0.72890193  1  0.001934  0  -0.085844  -0.076075  0  4.021908  0
C  C69  1  0.63825450  0.93093976  0.77875306  1  0.007093  0  -0.070784  -0.073473  0  3.966228  0
C  C70  1  0.81556521  0.83859401  0.57986404  1  -0.046619  0  -0.091493  -0.10201  0  3.821228  0
C  C71  1  0.56565827  0.90734503  0.79200594  1  -0.001015  0  -0.015081  -0.028397  0  3.954484  0
C  C72  1  0.50724732  0.81738792  0.75786581  1  -0.036865  0  0.01717  0.048944  0  3.881237  0
C  C73  1  0.52068042  0.75393193  0.70044062  1  0.021561  0  0.010221  0.059698  0  3.929274  0
C  C74  1  0.45575546  0.66532963  0.65348492  1  0.019098  0  0.01634  -0.009085  0  3.867442  0
C  C75  1  0.42249837  0.36948526  0.52773784  1  1.61145  0  0.224371  0.605186  0  4.167136  0
C  C76  1  0.38135724  0.64065741  0.66364098  1  0.02425  0  -0.072206  -0.116926  0  3.94165  0
C  C77  1  0.37337291  0.69989209  0.72782582  1  0.057263  0  0.006501  -0.013582  0  3.930293  0
C  C78  1  0.43759722  0.78652236  0.77820254  1  -0.029822  0  -0.003556  -0.102747  0  3.885533  0
C  C79  1  0.87797551  0.03769642  0.40122712  1  1.547825  0  0.224387  0.609267  0  4.133407  0
C  C80  1  0.87690449  0.87160215  0.48270724  1  1.544628  0  0.223602  0.57027  0  4.113044  0
C  C81  1  0.82543698  0.72140636  0.47228080  1  -0.055988  0  -0.151701  -0.23017  0  3.808091  0
C  C82  1  0.10688264  0.03085020  0.63269103  1  1.563602  0  0.226471  0.607103  0  4.144077  0
C  C83  1  0.11175932  0.10593724  0.48120065  1  1.553785  0  0.2276  0.614748  0  4.128397  0
C  C84  1  0.62665195  0.01021687  0.09911461  1  1.608016  0  0.226836  0.61541  0  4.163998  0
C  C85  1  0.46358704  0.07573943  0.11286029  1  1.588513  0  0.222826  0.608851  0  4.145567  0
C  C86  1  0.36959017  0.01659570  0.89422920  1  1.595863  0  0.226922  0.603699  0  4.14611  0
C  C87  1  0.64589981  0.70669719  0.42885121  1  -0.043389  0  -0.080734  -0.188741  0  3.758875  0
C  C88  1  0.44028811  0.84354946  0.85799376  1  1.532136  0  0.230976  0.603942  0  4.100844  0
C  C89  1  0.91640917  0.02505195  0.25829814  1  -0.039473  0  -0.06233  -0.106553  0  3.883084  0
C  C90  1  0.93129150  0.00666417  0.18789965  1  -0.015713  0  -0.019876  0.027136  0  4.027965  0
C  C91  1  0.86570737  0.98540775  0.10875725  1  -0.064167  0  -0.073515  -0.12415  0  3.963717  0
C  C92  1  0.57967250  0.29014800  0.41571327  1  -0.02287  0  -0.008235  -0.077565  0  3.916281  0
C  C93  1  0.78826243  0.98657791  0.10177474  1  -0.032912  0  -0.012046  -0.104329  0  3.989304  0
C  C94  1  0.77316074  0.01076014  0.17544924  1  0.014811  0  0.019241  0.057759  0  3.88924  0
C  C95  1  0.83725593  0.02554621  0.25413630  1  0.033036  0  0.013649  0.080488  0  3.903556  0
C  C96  1  0.82194814  0.04324018  0.32755573  1  0.046891  0  0.003134  -0.077248  0  3.872299  0
C  C97  1  0.75041813  0.05670181  0.32554463  1  -0.03582  0  0.00148  -0.043156  0  3.96156  0
C  C98  1  0.68990019  0.04631419  0.24948550  1  0.041716  0  -0.06612  -0.098059  0  3.911009  0
C  C99  1  0.71567838  0.77055629  0.41738995  1  -0.016277  0  -0.000747  -0.095333  0  3.668966  0
C  C100  1  0.69871070  0.02147613  0.17533928  1  -0.001479  0  0.007383  -0.032459  0  3.88881  0
C  C101  1  0.10796543  0.86314287  0.61487626  1  -0.039384  0  -0.019935  -0.030303  0  3.958736  0
C  C102  1  0.07662276  0.78970785  0.62352067  1  -0.089702  0  -0.063181  -0.118773  0  3.927959  0
C  C103  1  0.58710511  0.22993097  0.44197784  1  -0.041011  0  -0.060823  -0.086594  0  3.888252  0
C  C104  1  0.11243094  0.79202010  0.70355051  1  -0.030986  0  -0.013843  0.016649  0  4.028119  0
C  C105  1  0.18789496  0.86499832  0.77064543  1  0.048782  0  -0.052001  -0.096765  0  3.821145  0
C  C106  1  0.21881662  0.94343387  0.76578158  1  -0.03519  0  0.01369  0.065566  0  3.923987  0
C  C107  1  0.16850041  0.94529742  0.69058639  1  -0.016044  0  0.019437  0.044666  0  3.898937  0
C  C108  1  0.17823720  0.02768678  0.69696110  1  0.015928  0  0.006713  -0.073934  0  3.8725  0
C  C109  1  0.24742366  0.10397961  0.76764543  1  0.026745  0  0.013111  -0.030251  0  3.879777  0
C  C110  1  0.31034464  0.10000952  0.83189316  1  0.005268  0  0.009631  -0.051014  0  3.89611  0
C  C111  1  0.74550477  0.77008578  0.58417836  1  -0.058782  0  -0.16889  -0.234509  0  3.851358  0
C  C112  1  0.29666292  0.02133270  0.83208607  1  0.068659  0  0.015894  -0.05331  0  3.82462  0
C  C113  1  0.75296149  0.64917734  0.47357091  1  -0.008868  0  -0.008457  -0.084561  0  3.69373  0
C  C114  1  0.54644004  0.14033794  0.38185294  1  -0.014693  0  -0.007262  -0.022685  0  3.997554  0
C  C115  1  0.69102408  0.68535308  0.49797211  1  0.043804  0  -0.001212  0.012561  0  3.714127  0
C  C116  1  0.57921834  0.73694038  0.44049770  1  1.513487  0  0.228929  0.600683  0  4.07402  0
C  C117  1  0.90749323  0.87139219  0.64813206  1  0.911517  0  0.107835  0.309121  0  3.863273  0
C  C118  1  0.44047902  0.34448679  0.17219741  1  0.937762  0  0.131495  0.309849  0  3.881637  0
C  C119  1  0.64579070  0.38344146  0.47655856  1  1.599997  0  0.244688  0.640415  0  4.078477  0
C  C120  1  0.54481587  0.07252668  0.40887680  1  1.530895  0  0.230007  0.582314  0  4.130732  0
C  C121  1  0.37315508  0.17925614  0.43416161  1  1.546502  0  0.236012  0.5853  0  4.120848  0
C  C122  1  0.43672494  0.46265626  0.70575419  1  1.495177  0  0.227916  0.568251  0  4.136925  0
C  C123  1  0.06451787  0.25187902  0.49506260  1  1.545856  0  0.228128  0.579853  0  4.12739  0
C  C124  1  0.23223220  0.05398189  0.43396592  1  1.575766  0  0.232666  0.592325  0  4.151668  0
C  C125  1  0.51011748  0.11499601  0.29557880  1  0.007443  0  -0.069419  -0.138078  0  3.904729  0
C  C126  1  0.54474348  0.97772000  0.83146867  1  0.912243  0  0.101919  0.346602  0  3.939224  0
C  C127  1  0.70928326  0.72154040  0.32716086  1  0.987118  0  0.11524  0.287234  0  3.846772  0
C  C128  1  0.29188116  0.66752461  0.73654716  1  1.566867  0  0.234177  0.594847  0  4.120609  0
C  C129  1  0.73123621  0.07965745  0.40052889  1  1.57334  0  0.237122  0.604293  0  4.094292  0
C  C130  1  0.01533357  0.00791001  0.19589025  1  0.946326  0  0.095047  0.267773  0  3.962419  0
C  C131  1  0.71980197  0.95139122  0.01240521  1  1.547152  0  0.231145  0.577211  0  4.124551  0
C  C132  1  0.25754390  0.19164484  0.77792865  1  1.563821  0  0.229322  0.57476  0  4.149066  0
C  C133  1  0.09455404  0.84847293  0.52718588  1  0.971145  0  0.088544  0.275453  0  4.003553  0
C  C134  1  0.70418522  0.84887337  0.41629771  1  1.528612  0  0.244835  0.579902  0  4.041816  0
C  C135  1  0.07182906  0.71382040  0.71113397  1  0.952434  0  0.121987  0.288714  0  3.900672  0
C  C136  1  0.50027867  0.17514970  0.26629122  1  0.022564  0  0.005062  0.050593  0  3.967166  0
C  C137  1  0.38888557  0.18378456  0.90201622  1  1.572807  0  0.23855  0.595766  0  4.143033  0
C  C138  1  0.80432961  0.63478297  0.54489426  1  0.933804  0  0.121514  0.317188  0  3.855568  0
C  C139  1  0.70661275  0.56634150  0.38575524  1  1.581453  0  0.228067  0.572285  0  4.095277  0
O  O140  1  0.41892067  0.40025411  0.32485132  1  -1.124425  0  -0.302786  -0.5057  0  2.165079  0
O  O141  1  0.55109049  0.95407296  0.07596970  1  -1.160383  0  -0.304537  -0.54738  0  2.339525  0
O  O142  1  0.51083840  0.09783684  0.07876975  1  -1.173306  0  -0.30772  -0.577089  0  2.341192  0
O  O143  1  0.53170410  0.41813967  0.43275940  1  -1.196279  0  -0.298876  -0.59506  0  2.566534  0
O  O144  1  0.41722396  0.99776018  0.09493551  1  -1.125079  0  -0.306417  -0.517321  0  2.197771  0
O  O145  1  0.44580902  0.06692066  0.90999688  1  -1.139569  0  -0.298845  -0.53955  0  2.324316  0
O  O146  1  0.35068496  0.96261956  0.92151716  1  -1.156334  0  -0.29746  -0.541305  0  2.32942  0
O  O147  1  0.48711571  0.92561332  0.89049493  1  -1.13702  0  -0.259939  -0.532987  0  2.520842  0
O  O148  1  0.40184335  0.81465320  0.89656637  1  -1.11673  0  -0.290179  -0.489212  0  2.19754  0
O  O149  1  0.54480903  0.58900613  0.46226890  1  -1.173223  0  -0.294497  -0.530535  0  2.375626  0
O  O150  1  0.66034184  0.59305699  0.55972740  1  -1.142556  0  -0.304761  -0.539103  0  2.29509  0
O  O151  1  0.89781856  0.08862620  0.47832476  1  -1.123542  0  -0.302965  -0.516786  0  2.262029  0
O  O152  1  0.40547049  0.56257602  0.51102245  1  -1.126099  0  -0.31731  -0.527023  0  2.217115  0
O  O153  1  0.52657499  0.57986932  0.61356479  1  -1.169848  0  -0.305664  -0.579854  0  2.281254  0
O  O154  1  0.38717646  0.39199221  0.47515956  1  -1.146966  0  -0.297623  -0.538687  0  2.299323  0
O  O155  1  0.50377237  0.40038734  0.57546528  1  -1.125173  0  -0.30322  -0.5313  0  2.301525  0
O  O156  1  0.90041946  0.97762284  0.38118062  1  -1.173065  0  -0.314466  -0.582298  0  2.415678  0
O  O157  1  0.57024445  0.76482917  0.50439331  1  -1.133239  0  -0.282465  -0.479236  0  2.155093  0
O  O158  1  0.52815744  0.73003230  0.36506326  1  -1.110927  0  -0.333951  -0.478283  0  2.199884  0
O  O159  1  0.92660057  0.84062492  0.69555003  1  -1.080937  0  -0.254733  -0.351441  0  2.148102  0
O  O160  1  0.49227605  0.42156337  0.20443892  1  -1.085053  0  -0.227841  -0.327423  0  2.189523  0
O  O161  1  0.66259754  0.42572278  0.55241283  1  -1.178033  0  -0.316489  -0.54357  0  2.184021  0
O  O162  1  0.90514273  0.84610193  0.42940671  1  -1.118841  0  -0.289023  -0.492793  0  2.331406  0
O  O163  1  0.69198568  0.41109217  0.44023938  1  -1.162672  0  -0.316236  -0.458655  0  2.283208  0
O  O164  1  0.51685932  0.99565102  0.35974081  1  -1.132993  0  -0.305391  -0.499767  0  2.059537  0
O  O165  1  0.57647034  0.10511703  0.49476140  1  -1.117181  0  -0.328223  -0.468294  0  2.232245  0
O  O166  1  0.39742130  0.12582797  0.44068444  1  -1.114902  0  -0.270978  -0.460826  0  2.111292  0
O  O167  1  0.38361365  0.21567049  0.38387503  1  -1.115186  0  -0.321923  -0.451629  0  2.283634  0
O  O168  1  0.47444559  0.54183117  0.74412804  1  -1.091751  0  -0.275992  -0.457485  0  2.099789  0
O  O169  1  0.47454039  0.41202680  0.72012358  1  -1.103609  0  -0.335291  -0.482521  0  2.234431  0
O  O170  1  0.03292865  0.19968989  0.41972324  1  -1.133147  0  -0.272846  -0.449462  0  2.119954  0
O  O171  1  0.01208748  0.27291642  0.52718006  1  -1.108948  0  -0.328143  -0.450741  0  2.228254  0
O  O172  1  0.24446431  0.01923195  0.47853599  1  -1.111383  0  -0.287413  -0.474557  0  2.067014  0
O  O173  1  0.89745174  0.95007988  0.53035463  1  -1.177279  0  -0.30931  -0.574223  0  2.411231  0
O  O174  1  0.20592390  0.01559337  0.34872373  1  -1.113847  0  -0.323622  -0.473887  0  2.23813  0
O  O175  1  0.60101786  0.05141389  0.89429516  1  -1.171111  0  -0.320512  -0.469235  0  2.231675  0
O  O176  1  0.65241512  0.64857469  0.27433780  1  -1.065817  0  -0.224909  -0.28994  0  2.158599  0
O  O177  1  0.25951803  0.59788041  0.73572158  1  -1.144214  0  -0.289362  -0.485888  0  2.08818  0
O  O178  1  0.25592503  0.72153700  0.73950371  1  -1.174367  0  -0.342351  -0.505276  0  2.330652  0
O  O179  1  0.73408041  0.14941721  0.43819255  1  -1.107376  0  -0.268834  -0.441834  0  2.067612  0
O  O180  1  0.70474228  0.01448107  0.41989746  1  -1.177744  0  -0.345944  -0.522618  0  2.351002  0
O  O181  1  0.03336672  0.99051160  0.13634726  1  -1.077401  0  -0.276512  -0.363249  0  2.077562  0
O  O182  1  0.64734512  0.89124517  0.97945618  1  -1.115404  0  -0.267778  -0.427936  0  2.0799  0
O  O183  1  0.74666149  0.98645012  0.96589074  1  -1.100946  0  -0.326606  -0.46667  0  2.265857  0
O  O184  1  0.07978082  0.97989030  0.55458507  1  -1.161105  0  -0.285164  -0.554238  0  2.455934  0
O  O185  1  0.26878925  0.24924056  0.84271414  1  -1.117219  0  -0.282984  -0.465662  0  2.050149  0
O  O186  1  0.25483652  0.19935596  0.70776151  1  -1.093014  0  -0.323583  -0.461639  0  2.251876  0
O  O187  1  0.03266938  0.78592187  0.46118273  1  -1.100212  0  -0.278868  -0.369248  0  2.137058  0
O  O188  1  0.70054916  0.86425925  0.35619703  1  -1.121394  0  -0.25673  -0.448998  0  2.168143  0
O  O189  1  0.70192035  0.89984757  0.48522105  1  -1.142522  0  -0.309006  -0.445352  0  2.29287  0
O  O190  1  0.11104712  0.69165311  0.75955241  1  -1.087325  0  -0.247242  -0.350046  0  2.15854  0
O  O191  1  0.40640149  0.21411139  0.97738523  1  -1.136855  0  -0.272562  -0.482386  0  2.161111  0
O  O192  1  0.43534876  0.22417553  0.87050703  1  -1.109717  0  -0.322448  -0.466438  0  2.209867  0
O  O193  1  0.81467710  0.57006738  0.53654823  1  -1.116148  0  -0.245858  -0.356663  0  2.252926  0
O  O194  1  0.74507803  0.54580512  0.34595836  1  -1.12178  0  -0.291381  -0.464573  0  2.064008  0
O  O195  1  0.07472129  0.08080916  0.65975614  1  -1.123989  0  -0.303199  -0.517344  0  2.215706  0
O  O196  1  0.62188543  0.52306038  0.36097686  1  -1.166527  0  -0.322462  -0.477141  0  2.431038  0
O  O197  1  0.08009203  0.02731350  0.42224381  1  -1.140685  0  -0.299164  -0.530312  0  2.318451  0
O  O198  1  0.08206511  0.12941084  0.53325511  1  -1.166157  0  -0.304738  -0.575488  0  2.432593  0
O  O199  1  0.64746977  0.06166670  0.06850009  1  -1.140945  0  -0.308371  -0.542973  0  2.278166  0
