# generated using pymatgen
data_V2NiH8C4(N4O3)2
_symmetry_space_group_name_H-M   'P 1'
_cell_length_a   10.21768305
_cell_length_b   10.21764846
_cell_length_c   10.21775766
_cell_angle_alpha   99.72370221
_cell_angle_beta   99.72321646
_cell_angle_gamma   99.72286662
_symmetry_Int_Tables_number   1
_chemical_formula_structural   V2NiH8C4(N4O3)2
_chemical_formula_sum   'V6 Ni3 H24 C12 N24 O18'
_cell_volume   1014.69120811
_cell_formula_units_Z   3
loop_
 _symmetry_equiv_pos_site_id
 _symmetry_equiv_pos_as_xyz
  1  'x, y, z'
loop_
 _atom_site_type_symbol
 _atom_site_label
 _atom_site_symmetry_multiplicity
 _atom_site_fract_x
 _atom_site_fract_y
 _atom_site_fract_z
 _atom_site_occupancy
 _atom_site_hle17_ddec_charge
 _atom_site_hle17_ddec_spin_density
 _atom_site_hle17_ddec_sum_bond_order
 _atom_site_hle17_magmom
 _atom_site_hse06_10hf_ddec_charge
 _atom_site_hse06_10hf_ddec_spin_density
 _atom_site_hse06_10hf_ddec_sum_bond_order
 _atom_site_hse06_10hf_magmom
 _atom_site_hse06_ddec_charge
 _atom_site_hse06_ddec_spin_density
 _atom_site_hse06_ddec_sum_bond_order
 _atom_site_hse06_magmom
 _atom_site_pbe_cm5_charge
 _atom_site_pbe_ddec_charge
 _atom_site_pbe_ddec_spin_density
 _atom_site_pbe_ddec_sum_bond_order
 _atom_site_pbe_magmom
V  V0  1  0.38679188  0.59262038  0.73454633  1  1.993604  0.011656  3.040985  0.021  2.058599  0.017225  3.438859  0.03  2.154986  0.014699  3.41096  0.026  1.436949  1.974957  0.019785  3.491286  0.034
V  V1  1  0.73454021  0.38679226  0.59261923  1  1.993549  0.011733  3.040907  0.021  2.058524  0.017232  3.438823  0.03  2.154919  0.014724  3.410926  0.026  1.436849  1.974836  0.019788  3.4913  0.034
V  V2  1  0.59261898  0.73454664  0.38679883  1  1.993343  0.011713  3.040961  0.021  2.0584  0.017257  3.438804  0.03  2.154705  0.014694  3.411032  0.026  1.436788  1.974708  0.019789  3.491285  0.034
V  V3  1  0.61318573  0.40736120  0.26548506  1  1.993838  -0.011179  3.041807  -0.021  2.059109  -0.016956  3.439178  -0.031  2.15527  -0.014315  3.411614  -0.026  1.4374  1.9756  -0.019791  3.491503  -0.035
V  V4  1  0.26548628  0.61319430  0.40738037  1  1.993642  -0.011246  3.042128  -0.021  2.058925  -0.01697  3.43949  -0.031  2.15504  -0.014315  3.41202  -0.026  1.437394  1.975492  -0.019787  3.491712  -0.035
V  V5  1  0.40736279  0.26548697  0.61318942  1  1.993854  -0.011198  3.041779  -0.021  2.058891  -0.016954  3.439511  -0.031  2.155242  -0.014307  3.411658  -0.026  1.437362  1.975446  -0.01979  3.491747  -0.035
Ni  Ni6  1  0.74293436  0.74293505  0.74293467  1  0.980408  1.876912  2.111621  1.514  0.998156  1.869504  2.501617  1.604  1.075133  1.950332  2.429443  1.697  0.692785  0.939115  1.782628  2.557354  1.508
Ni  Ni7  1  0.25734589  0.25734752  0.25734496  1  0.983658  -1.799289  2.112423  -1.52  1.0022  -1.821859  2.501938  -1.609  1.077075  -1.889021  2.431455  -1.699  0.695461  0.94569  -1.754405  2.556664  -1.524
Ni  Ni8  1  0.99976941  0.99976555  0.99976523  1  0.595354  -1.78976  2.443299  -1.499  0.549599  -1.813283  2.871956  -1.585  0.623823  -1.877139  2.815767  -1.67  0.715647  0.499268  -1.750279  2.909542  -1.505
H  H9  1  0.78219061  0.19834434  0.06450254  1  0.123327  0.000314  0.945457  0.0  0.132726  0.000234  1.003497  0.0  0.135804  0.000175  0.999336  0.0  0.142766  0.130286  0.000264  1.007006  0.0
H  H10  1  0.06450243  0.78218576  0.19833556  1  0.123355  0.000316  0.945476  0.0  0.132701  0.000234  1.003578  0.0  0.135824  0.000175  0.999338  0.0  0.142779  0.130264  0.000264  1.007079  0.0
H  H11  1  0.19834323  0.06449580  0.78218722  1  0.123319  0.000315  0.945556  0.0  0.13269  0.000234  1.00364  0.0  0.135797  0.000175  0.999406  0.0  0.142758  0.130255  0.000264  1.007138  0.0
H  H12  1  0.21761043  0.80182996  0.93538777  1  0.123081  -0.000406  0.945215  -0.001  0.132557  -0.000208  1.003205  -0.001  0.135603  -0.000153  0.999069  0.0  0.142816  0.130169  -0.000269  1.006652  -0.001
H  H13  1  0.93538997  0.21760552  0.80182925  1  0.123044  -0.000405  0.945206  -0.001  0.132546  -0.000208  1.003167  -0.001  0.13558  -0.000154  0.999057  0.0  0.142813  0.130171  -0.000269  1.006599  -0.001
H  H14  1  0.80183865  0.93538432  0.21760553  1  0.123077  -0.000405  0.945133  -0.001  0.132526  -0.000208  1.003149  -0.001  0.135593  -0.000153  0.998988  0.0  0.142843  0.130137  -0.000269  1.006599  -0.001
H  H15  1  0.55093422  0.15912314  0.90584886  1  0.342511  8.8e-05  0.825491  0.0  0.328573  8e-05  0.871194  0.0  0.335665  6.5e-05  0.866192  0.0  0.350876  0.323465  6.9e-05  0.875101  0.0
H  H16  1  0.90584435  0.55093093  0.15911646  1  0.34249  8.8e-05  0.825491  0.0  0.328549  8e-05  0.871197  0.0  0.33564  6.5e-05  0.866199  0.0  0.350856  0.323447  6.9e-05  0.8751  0.0
H  H17  1  0.15911731  0.90584104  0.55093053  1  0.342497  8.8e-05  0.825476  0.0  0.328569  8e-05  0.871173  0.0  0.335656  6.5e-05  0.866177  0.0  0.350861  0.323464  6.9e-05  0.875082  0.0
H  H18  1  0.44895600  0.84088829  0.09400326  1  0.342668  -0.000856  0.825419  -0.001  0.328728  -0.000743  0.871124  -0.001  0.335758  -0.000564  0.866162  -0.001  0.351001  0.323739  -0.000902  0.874963  -0.001
H  H19  1  0.09400277  0.44895391  0.84088836  1  0.342687  -0.000857  0.825411  -0.001  0.328748  -0.000743  0.871117  -0.001  0.335779  -0.000563  0.866156  -0.001  0.351008  0.323758  -0.000902  0.874957  -0.001
H  H20  1  0.84089534  0.09399682  0.44895190  1  0.342661  -0.000857  0.825368  -0.001  0.32872  -0.000743  0.871054  -0.001  0.33575  -0.000564  0.866094  -0.001  0.351031  0.323733  -0.000902  0.874891  -0.001
H  H21  1  0.49984028  0.84949102  0.63506151  1  0.340663  -7.3e-05  0.908244  0.0  0.321003  -8e-05  0.97758  0.0  0.328023  -8.5e-05  0.97168  0.0  0.308317  0.316424  -6.1e-05  0.98095  0.0
H  H22  1  0.63505501  0.49984048  0.84948979  1  0.340622  -7.3e-05  0.908214  0.0  0.320968  -8e-05  0.977552  0.0  0.32799  -8.5e-05  0.971651  0.0  0.308309  0.316389  -6.1e-05  0.980922  0.0
H  H23  1  0.84948490  0.63505756  0.49983824  1  0.340601  -7.3e-05  0.908228  0.0  0.32096  -8e-05  0.977541  0.0  0.32798  -8.5e-05  0.971642  0.0  0.308306  0.31638  -6.1e-05  0.980912  0.0
H  H24  1  0.49997497  0.15043232  0.36499536  1  0.340263  9e-05  0.908735  0.0  0.320689  7.2e-05  0.977996  0.0  0.327743  8.3e-05  0.972062  0.0  0.308122  0.316052  5.5e-05  0.98142  0.0
H  H25  1  0.36499288  0.49997666  0.15043136  1  0.340318  9e-05  0.908678  0.0  0.320746  7.2e-05  0.977937  0.0  0.327799  8.3e-05  0.972004  0.0  0.308155  0.316109  5.5e-05  0.981363  0.0
H  H26  1  0.15042782  0.36499869  0.49997170  1  0.340301  9e-05  0.908701  0.0  0.320717  7.2e-05  0.977964  0.0  0.327771  8.3e-05  0.972028  0.0  0.308116  0.31608  5.5e-05  0.981389  0.0
H  H27  1  0.42726188  0.99093924  0.68279005  1  0.35366  -0.000163  0.933632  0.0  0.338913  -0.00011  0.993065  0.0  0.347586  -8.6e-05  0.985038  0.0  0.292545  0.332763  -0.000132  0.998818  0.0
H  H28  1  0.68278758  0.42726233  0.99093397  1  0.353689  -0.000163  0.933639  0.0  0.338953  -0.00011  0.993053  0.0  0.347626  -8.6e-05  0.985027  0.0  0.292558  0.332802  -0.000132  0.998807  0.0
H  H29  1  0.99093131  0.68278935  0.42725961  1  0.353659  -0.000163  0.933704  0.0  0.338923  -0.000111  0.993121  0.0  0.347594  -8.6e-05  0.985096  0.0  0.292543  0.332774  -0.000132  0.998874  0.0
H  H30  1  0.57271813  0.00907358  0.31728729  1  0.353499  -6.1e-05  0.934308  0.0  0.33884  -6.1e-05  0.993577  0.0  0.347511  -3.8e-05  0.985547  0.0  0.292672  0.332687  -8.2e-05  0.999344  0.0
H  H31  1  0.31728566  0.57271988  0.00907589  1  0.353487  -6.1e-05  0.934329  0.0  0.338836  -6.1e-05  0.993584  0.0  0.347505  -3.8e-05  0.985557  0.0  0.292685  0.332684  -8.2e-05  0.999351  0.0
H  H32  1  0.00907394  0.31728487  0.57271428  1  0.353476  -6.1e-05  0.93432  0.0  0.338809  -6.1e-05  0.993596  0.0  0.347479  -3.8e-05  0.985568  0.0  0.292669  0.332656  -8.2e-05  0.999363  0.0
C  C33  1  0.59991454  0.97783653  0.80490528  1  0.611542  -0.003555  3.783073  -0.004  0.562294  -0.000852  4.063227  -0.001  0.587355  -0.001287  4.070914  -0.002  0.349873  0.545528  -0.000506  4.05737  0.0
C  C34  1  0.80490425  0.59991338  0.97783157  1  0.611563  -0.003528  3.783151  -0.004  0.562371  -0.000853  4.063237  -0.001  0.58743  -0.001287  4.070929  -0.002  0.349945  0.54561  -0.000506  4.057378  0.0
C  C35  1  0.97783326  0.80490026  0.59991351  1  0.611727  -0.003542  3.78296  -0.004  0.562448  -0.000856  4.063185  -0.001  0.587506  -0.001285  4.070875  -0.002  0.349922  0.545688  -0.000506  4.057324  0.0
C  C36  1  0.40011094  0.02218006  0.19518350  1  0.611553  0.000117  3.782426  -0.001  0.562608  -0.001768  4.062449  -0.003  0.58784  -0.000657  4.070076  -0.001  0.34959  0.54558  -0.002734  4.056609  -0.005
C  C37  1  0.19518289  0.40011143  0.02217926  1  0.611548  9.3e-05  3.782477  -0.001  0.562593  -0.001764  4.062523  -0.003  0.587825  -0.000663  4.070144  -0.001  0.349579  0.545567  -0.002733  4.056675  -0.005
C  C38  1  0.02218117  0.19518076  0.40010915  1  0.611574  7.6e-05  3.782347  -0.001  0.562597  -0.001762  4.062389  -0.003  0.58783  -0.000659  4.070013  -0.001  0.349562  0.545576  -0.002734  4.056542  -0.005
C  C39  1  0.74144520  0.11263557  0.98094377  1  0.215413  0.007775  3.651347  0.008  0.148146  0.002762  3.937752  0.003  0.164119  0.00311  3.946874  0.003  0.156979  0.137679  0.002685  3.931765  0.003
C  C40  1  0.98094673  0.74144351  0.11262798  1  0.21533  0.007759  3.651383  0.008  0.148105  0.002763  3.937827  0.003  0.164051  0.003108  3.946912  0.003  0.156916  0.137644  0.002685  3.931839  0.003
C  C41  1  0.11263443  0.98093959  0.74144583  1  0.215396  0.007773  3.651483  0.008  0.148156  0.002762  3.937933  0.003  0.164122  0.00311  3.94701  0.003  0.15702  0.137693  0.002686  3.931944  0.003
C  C42  1  0.25852729  0.88746224  0.01901973  1  0.215804  0.009715  3.653935  0.009  0.148618  0.002434  3.940262  0.002  0.16489  0.003564  3.949232  0.003  0.156571  0.137779  0.001631  3.934412  0.0
C  C43  1  0.01902243  0.25852257  0.88745995  1  0.215921  0.009708  3.65386  0.009  0.148707  0.002436  3.940193  0.002  0.164983  0.003561  3.949179  0.003  0.156615  0.137854  0.001631  3.934336  0.0
C  C44  1  0.88746800  0.01901523  0.25852422  1  0.215968  0.009708  3.65398  0.009  0.148795  0.002437  3.940287  0.002  0.165048  0.003563  3.949251  0.003  0.156607  0.137955  0.001631  3.934442  0.0
N  N45  1  0.71159666  0.92651169  0.82919798  1  -0.355541  0.057029  3.109466  0.083  -0.332322  0.037816  3.417448  0.057  -0.358988  0.030525  3.43121  0.047  -0.257007  -0.312384  0.043796  3.40745  0.064
N  N46  1  0.82919958  0.71159347  0.92650646  1  -0.355562  0.056999  3.109536  0.083  -0.332369  0.037816  3.417502  0.057  -0.359033  0.030522  3.431261  0.047  -0.257062  -0.312431  0.043794  3.407503  0.064
N  N47  1  0.92650851  0.82919704  0.71159302  1  -0.355624  0.057015  3.10952  0.083  -0.332389  0.037822  3.417523  0.057  -0.359057  0.030531  3.431288  0.047  -0.256986  -0.312451  0.043798  3.407523  0.064
N  N48  1  0.28854891  0.07363969  0.17103960  1  -0.356254  -0.059509  3.09939  -0.088  -0.333297  -0.040285  3.40722  -0.06  -0.359586  -0.032102  3.420973  -0.049  -0.257524  -0.313767  -0.04762  3.397124  -0.069
N  N49  1  0.17104004  0.28854977  0.07363930  1  -0.356229  -0.05948  3.099408  -0.088  -0.333267  -0.04029  3.407225  -0.06  -0.359551  -0.032088  3.420971  -0.049  -0.257495  -0.313736  -0.047619  3.397124  -0.069
N  N50  1  0.07364179  0.17104120  0.28854686  1  -0.356322  -0.059465  3.099463  -0.088  -0.333344  -0.04029  3.407272  -0.06  -0.359629  -0.032093  3.421017  -0.049  -0.257483  -0.313813  -0.047618  3.397171  -0.069
N  N51  1  0.79928374  0.01226653  0.93943057  1  -0.209755  -0.052081  3.284411  -0.08  -0.183772  -0.03754  3.609554  -0.058  -0.204206  -0.031612  3.629318  -0.05  -0.245749  -0.169725  -0.042091  3.595766  -0.063
N  N52  1  0.93943178  0.79928180  0.01226148  1  -0.209756  -0.052065  3.284401  -0.08  -0.183769  -0.037541  3.609524  -0.058  -0.204204  -0.031611  3.629301  -0.05  -0.245758  -0.169723  -0.042092  3.595737  -0.063
N  N53  1  0.01226711  0.93942583  0.79928319  1  -0.209717  -0.052078  3.284495  -0.08  -0.183747  -0.03754  3.609642  -0.058  -0.204182  -0.031618  3.629416  -0.05  -0.245766  -0.1697  -0.042092  3.595854  -0.063
N  N54  1  0.20053648  0.98772391  0.06042540  1  -0.211595  -0.056109  3.273924  -0.084  -0.185459  -0.039889  3.598812  -0.06  -0.205709  -0.03311  3.618467  -0.051  -0.246491  -0.171831  -0.045559  3.585046  -0.067
N  N55  1  0.06042875  0.20053396  0.98772295  1  -0.211733  -0.056116  3.273995  -0.084  -0.18556  -0.039887  3.598869  -0.06  -0.205811  -0.033114  3.618518  -0.051  -0.246576  -0.171934  -0.045558  3.585106  -0.067
N  N56  1  0.98772824  0.06042771  0.20053240  1  -0.211691  -0.056112  3.274046  -0.084  -0.185536  -0.039888  3.598892  -0.06  -0.205784  -0.033111  3.618551  -0.051  -0.246538  -0.171908  -0.045558  3.585124  -0.067
N  N57  1  0.61637722  0.09476119  0.90002039  1  -0.389001  0.002095  3.303671  0.003  -0.321177  0.001186  3.535929  0.002  -0.338983  0.001156  3.540848  0.002  -0.367173  -0.309139  0.001272  3.532463  0.002
N  N58  1  0.90001978  0.61637422  0.09475379  1  -0.388978  0.002086  3.303688  0.003  -0.321151  0.001186  3.535914  0.002  -0.33896  0.001158  3.540849  0.002  -0.367162  -0.309127  0.001272  3.532456  0.002
N  N59  1  0.09475373  0.90001644  0.61637362  1  -0.389072  0.002093  3.303695  0.003  -0.321238  0.001188  3.535967  0.002  -0.339044  0.001154  3.540897  0.002  -0.367249  -0.309213  0.001272  3.532509  0.002
N  N60  1  0.38355400  0.90527196  0.09991207  1  -0.389713  -0.001971  3.303491  -0.003  -0.321895  -0.001559  3.535768  -0.002  -0.339676  -0.001132  3.540666  -0.002  -0.367666  -0.309964  -0.001985  3.532309  -0.003
N  N61  1  0.09991262  0.38355274  0.90527111  1  -0.389679  -0.00196  3.303397  -0.003  -0.321874  -0.001561  3.535706  -0.002  -0.339648  -0.00113  3.540587  -0.002  -0.367618  -0.309942  -0.001985  3.532245  -0.003
N  N62  1  0.90527880  0.09990748  0.38355159  1  -0.389778  -0.001958  3.303607  -0.003  -0.321935  -0.001561  3.535888  -0.002  -0.339719  -0.001133  3.540794  -0.002  -0.36773  -0.310014  -0.001985  3.532439  -0.003
N  N63  1  0.48784080  0.92400577  0.70929257  1  -0.707164  -0.002161  3.060552  -0.003  -0.680531  -0.001266  3.293595  -0.001  -0.70108  -0.001199  3.287126  -0.001  -0.579313  -0.665639  -0.001242  3.297044  -0.001
N  N64  1  0.70929084  0.48783925  0.92399888  1  -0.707092  -0.002161  3.060403  -0.003  -0.680523  -0.001267  3.293471  -0.001  -0.701062  -0.001202  3.286986  -0.001  -0.579286  -0.665631  -0.001242  3.296915  -0.001
N  N65  1  0.92399636  0.70929180  0.48783665  1  -0.707112  -0.002161  3.060387  -0.003  -0.680525  -0.001267  3.293514  -0.001  -0.701066  -0.001201  3.287038  -0.001  -0.579284  -0.665631  -0.001242  3.296956  -0.001
N  N66  1  0.51219658  0.07598732  0.29080889  1  -0.706483  0.001934  3.060345  0.002  -0.679986  0.000893  3.293169  0.001  -0.700495  0.000977  3.286653  0.001  -0.579511  -0.665139  0.000731  3.296693  0.001
N  N67  1  0.29080813  0.51219884  0.07598790  1  -0.706531  0.001934  3.060313  0.002  -0.68005  0.000894  3.293159  0.001  -0.700564  0.000973  3.286652  0.001  -0.579571  -0.665207  0.000731  3.296687  0.001
N  N68  1  0.07598776  0.29081068  0.51219524  1  -0.706485  0.00193  3.060212  0.002  -0.679975  0.000894  3.293068  0.001  -0.700489  0.000975  3.28656  0.001  -0.579494  -0.665129  0.000731  3.296591  0.001
O  O69  1  0.55380203  0.65081888  0.76433435  1  -0.8707  0.031923  1.594828  0.048  -0.893189  0.019163  1.906334  0.027  -0.935025  0.014493  1.896042  0.02  -0.608531  -0.859213  0.023492  1.916292  0.034
O  O70  1  0.76432755  0.55380563  0.65081875  1  -0.870648  0.031897  1.594749  0.048  -0.893152  0.01916  1.9063  0.027  -0.934991  0.014481  1.896011  0.02  -0.60851  -0.85916  0.023493  1.916259  0.034
O  O71  1  0.65082038  0.76432664  0.55381242  1  -0.870564  0.031896  1.594839  0.048  -0.893092  0.019152  1.906378  0.027  -0.9349  0.014494  1.896106  0.02  -0.608475  -0.859101  0.023494  1.916343  0.034
O  O72  1  0.44618003  0.34916314  0.23560687  1  -0.871234  -0.030558  1.596907  -0.049  -0.894094  -0.018583  1.908858  -0.027  -0.935676  -0.013863  1.898649  -0.02  -0.608722  -0.860237  -0.023282  1.918755  -0.035
O  O73  1  0.23561828  0.44618951  0.34917817  1  -0.871188  -0.030528  1.59692  -0.049  -0.894072  -0.018581  1.9089  -0.027  -0.935642  -0.013849  1.898696  -0.02  -0.608697  -0.860237  -0.023282  1.918781  -0.035
O  O74  1  0.34916072  0.23560936  0.44618625  1  -0.871167  -0.030551  1.596814  -0.049  -0.893956  -0.018584  1.908794  -0.027  -0.935597  -0.01386  1.898554  -0.02  -0.608693  -0.860121  -0.023281  1.918679  -0.035
O  O75  1  0.29836411  0.64327048  0.58897514  1  -1.013204  0.001898  1.584571  0.003  -1.037544  0.001132  1.885328  0.002  -1.083088  0.000893  1.876762  0.001  -0.701348  -0.997615  0.001501  1.896754  0.002
O  O76  1  0.58896042  0.29836253  0.64325662  1  -1.013192  0.001895  1.584613  0.003  -1.037466  0.001129  1.885426  0.002  -1.083077  0.000891  1.876827  0.001  -0.701263  -0.99752  0.001501  1.896855  0.002
O  O77  1  0.64325578  0.58896246  0.29836368  1  -1.013185  0.001891  1.584503  0.003  -1.03754  0.001129  1.885246  0.002  -1.083074  0.000891  1.876698  0.001  -0.701283  -0.997575  0.001501  1.896688  0.002
O  O78  1  0.70164906  0.35671834  0.41099612  1  -1.013206  -0.001849  1.584774  -0.003  -1.03762  -0.001128  1.885643  -0.002  -1.083191  -0.000868  1.877076  -0.001  -0.701255  -0.997631  -0.001518  1.897105  -0.002
O  O79  1  0.41099323  0.70166009  0.35672389  1  -1.013051  -0.001843  1.584777  -0.003  -1.037483  -0.001127  1.885623  -0.002  -1.083016  -0.000869  1.877083  -0.001  -0.70124  -0.997513  -0.001517  1.897072  -0.002
O  O80  1  0.35671807  0.41100091  0.70165510  1  -1.013199  -0.001845  1.584793  -0.003  -1.037548  -0.001127  1.885677  -0.002  -1.083174  -0.00087  1.877083  -0.001  -0.70124  -0.997589  -0.001517  1.89712  -0.002
O  O81  1  0.32399565  0.64430413  0.86967269  1  -0.860285  -0.001378  1.336747  -0.002  -0.865164  -0.00073  1.578317  -0.001  -0.893826  -0.000903  1.564506  -0.002  -0.62867  -0.842513  -0.000743  1.593278  -0.001
O  O82  1  0.86966821  0.32399056  0.64430650  1  -0.860284  -0.001409  1.336631  -0.002  -0.865153  -0.000728  1.578196  -0.001  -0.893816  -0.000907  1.564384  -0.002  -0.628663  -0.842494  -0.000743  1.593171  -0.001
O  O83  1  0.64431349  0.86967796  0.32399922  1  -0.860258  -0.001388  1.336613  -0.002  -0.865149  -0.000738  1.578161  -0.001  -0.893795  -0.000895  1.564377  -0.002  -0.628622  -0.842485  -0.000742  1.593136  -0.001
O  O84  1  0.67609648  0.35577418  0.13040404  1  -0.860458  0.001314  1.336969  0.002  -0.865351  0.000632  1.578495  0.001  -0.893974  0.000844  1.564738  0.002  -0.628845  -0.842623  0.000581  1.593413  0.001
O  O85  1  0.13040859  0.67610501  0.35578817  1  -0.8604  0.001339  1.337119  0.002  -0.865277  0.000642  1.578631  0.001  -0.893896  0.000829  1.564892  0.002  -0.628835  -0.842571  0.000579  1.593528  0.001
O  O86  1  0.35576813  0.13040742  0.67609648  1  -0.860458  0.001325  1.33698  0.002  -0.865285  0.000634  1.578562  0.001  -0.893962  0.000836  1.564755  0.002  -0.628833  -0.842576  0.000581  1.593463  0.001
