# generated using pymatgen
data_SmH11C16(NO7)2
_symmetry_space_group_name_H-M   'P 1'
_cell_length_a   9.16569114
_cell_length_b   10.12763704
_cell_length_c   12.84034586
_cell_angle_alpha   69.84628365
_cell_angle_beta   67.57175632
_cell_angle_gamma   68.41455818
_symmetry_Int_Tables_number   1
_chemical_formula_structural   SmH11C16(NO7)2
_chemical_formula_sum   'Sm2 H22 C32 N4 O28'
_cell_volume   995.17563400
_cell_formula_units_Z   2
loop_
 _symmetry_equiv_pos_site_id
 _symmetry_equiv_pos_as_xyz
  1  'x, y, z'
loop_
 _atom_site_type_symbol
 _atom_site_label
 _atom_site_symmetry_multiplicity
 _atom_site_fract_x
 _atom_site_fract_y
 _atom_site_fract_z
 _atom_site_occupancy
 _atom_site_hle17_bader_spin_density
 _atom_site_hle17_ddec_charge
 _atom_site_hle17_ddec_spin_density
 _atom_site_hle17_ddec_sum_bond_order
 _atom_site_hle17_magmom
 _atom_site_hse06_10hf_bader_spin_density
 _atom_site_hse06_10hf_ddec_charge
 _atom_site_hse06_10hf_ddec_spin_density
 _atom_site_hse06_10hf_ddec_sum_bond_order
 _atom_site_hse06_10hf_magmom
 _atom_site_hse06_bader_spin_density
 _atom_site_hse06_ddec_charge
 _atom_site_hse06_ddec_spin_density
 _atom_site_hse06_ddec_sum_bond_order
 _atom_site_hse06_magmom
 _atom_site_pbe_bader_spin_density
 _atom_site_pbe_cm5_charge
 _atom_site_pbe_ddec_charge
 _atom_site_pbe_ddec_spin_density
 _atom_site_pbe_ddec_sum_bond_order
 _atom_site_pbe_magmom
Sm  Sm0  1  0.69978612  0.52937636  0.53351660  1  0  2.32561  0  1.593817  0  0  2.232321  0  1.940609  0  0  2.276016  0  1.898026  0  0  1.508147  2.135974  0  2.090717  0
Sm  Sm1  1  0.30021661  0.47061922  0.46648525  1  0  2.325602  0  1.593794  0  0  2.232299  0  1.940588  0  0  2.276  0  1.898004  0  0  1.508153  2.135976  0  2.090662  0
H  H2  1  0.38270541  0.78392845  0.75988378  1  0  0.413703  0  0.840582  0  0  0.384681  0  0.917325  0  0  0.396914  0  0.903184  0  0  0.316998  0.375836  0  0.927669  0
H  H3  1  0.61728663  0.21605017  0.24011936  1  0  0.413947  0  0.840231  0  0  0.384858  0  0.917051  0  0  0.397084  0  0.902923  0  0  0.317045  0.376013  0  0.927397  0
H  H4  1  0.61551166  0.91463776  0.17647806  1  0  0.135164  0  0.951003  0  0  0.134732  0  1.025276  0  0  0.139532  0  1.02015  0  0  0.119614  0.131189  0  1.029184  0
H  H5  1  0.38447931  0.08537773  0.82353367  1  0  0.135045  0  0.951213  0  0  0.134705  0  1.025372  0  0  0.139505  0  1.020254  0  0  0.119596  0.131163  0  1.029278  0
H  H6  1  0.98802827  0.97957435  0.84884943  1  0  0.121594  0  0.955566  0  0  0.125078  0  1.0273  0  0  0.128434  0  1.025363  0  0  0.114068  0.12261  0  1.028732  0
H  H7  1  0.01195035  0.02043042  0.15115058  1  0  0.121581  0  0.955716  0  0  0.125116  0  1.027395  0  0  0.128477  0  1.025462  0  0  0.114091  0.122648  0  1.028832  0
H  H8  1  0.08516759  0.59074054  0.11638933  1  0  0.120992  0  0.930432  0  0  0.129053  0  0.992635  0  0  0.133175  0  0.988727  0  0  0.120587  0.125857  0  0.995828  0
H  H9  1  0.91482443  0.40926920  0.88361440  1  0  0.12104  0  0.930371  0  0  0.129091  0  0.992583  0  0  0.133196  0  0.988695  0  0  0.12061  0.125909  0  0.995757  0
H  H10  1  0.79100028  0.13818830  0.64133071  1  0  0.130893  0  0.963129  0  0  0.13086  0  1.039356  0  0  0.135851  0  1.034231  0  0  0.122141  0.127199  0  1.042817  0
H  H11  1  0.20901195  0.86181414  0.35866754  1  0  0.130973  0  0.963067  0  0  0.130944  0  1.039286  0  0  0.135939  0  1.034158  0  0  0.122152  0.127279  0  1.042748  0
H  H12  1  0.04026948  0.67612556  0.69241624  1  0  0.137781  0  0.952135  0  0  0.140401  0  1.021086  0  0  0.144931  0  1.01744  0  0  0.123261  0.137191  0  1.023552  0
H  H13  1  0.95974394  0.32387438  0.30757150  1  0  0.137809  0  0.952042  0  0  0.140422  0  1.02101  0  0  0.14495  0  1.017365  0  0  0.123278  0.137211  0  1.023487  0
H  H14  1  0.31785304  0.99503615  0.55190457  1  0  0.132556  0  0.90954  0  0  0.14143  0  0.967207  0  0  0.145857  0  0.963281  0  0  0.124383  0.137978  0  0.970784  0
H  H15  1  0.68216247  0.00495730  0.44808680  1  0  0.132603  0  0.909566  0  0  0.141476  0  0.967217  0  0  0.145906  0  0.963283  0  0  0.124393  0.138025  0  0.970797  0
H  H16  1  0.72346295  0.59337123  0.74006740  1  0  0.439314  0  0.845589  0  0  0.413914  0  0.899242  0  0  0.423114  0  0.885508  0  0  0.313343  0.407396  0  0.908776  0
H  H17  1  0.27654411  0.40662891  0.25993360  1  0  0.439238  0  0.845716  0  0  0.413856  0  0.899338  0  0  0.423056  0  0.885604  0  0  0.313325  0.407337  0  0.908871  0
H  H18  1  0.89107111  0.48072875  0.69637591  1  0  0.44013  0  0.857475  0  0  0.409399  0  0.921796  0  0  0.420122  0  0.906005  0  0  0.302339  0.40167  0  0.932901  0
H  H19  1  0.10893409  0.51926680  0.30362219  1  0  0.440105  0  0.857507  0  0  0.409367  0  0.921841  0  0  0.42009  0  0.906049  0  0  0.302301  0.401639  0  0.932944  0
H  H20  1  0.60803912  0.31079276  0.76867283  1  0  0.451712  0  0.827992  0  0  0.422593  0  0.886801  0  0  0.433189  0  0.8709  0  0  0.31244  0.414695  0  0.898517  0
H  H21  1  0.39196403  0.68919833  0.23132705  1  0  0.451627  0  0.828069  0  0  0.422509  0  0.886875  0  0  0.433103  0  0.870978  0  0  0.312446  0.414612  0  0.89859  0
H  H22  1  0.49589936  0.31703183  0.69364928  1  0  0.446653  0  0.851557  0  0  0.41653  0  0.912877  0  0  0.427033  0  0.897647  0  0  0.303791  0.408893  0  0.923762  0
H  H23  1  0.50410587  0.68296370  0.30634804  1  0  0.446756  0  0.851408  0  0  0.416565  0  0.912838  0  0  0.427069  0  0.897604  0  0  0.303817  0.408929  0  0.923722  0
C  C24  1  0.79556792  0.66141857  0.28373945  1  0  0.6657  0  3.886743  0  0  0.614788  0  4.178621  0  0  0.648771  0  4.171854  0  0  0.214761  0.592692  0  4.176863  0
C  C25  1  0.20442897  0.33858023  0.71626455  1  0  0.665606  0  3.886778  0  0  0.614665  0  4.178712  0  0  0.648643  0  4.171948  0  0  0.214714  0.592568  0  4.176948  0
C  C26  1  0.84611102  0.74430437  0.16078520  1  0  -0.050466  0  3.706444  0  0  -0.021416  0  3.938458  0  0  -0.032769  0  3.961599  0  0  -0.004505  -0.015194  0  3.924407  0
C  C27  1  0.15388282  0.25570998  0.83922222  1  0  -0.05026  0  3.706362  0  0  -0.021253  0  3.938451  0  0  -0.032589  0  3.961564  0  0  -0.00444  -0.015031  0  3.924394  0
C  C28  1  0.73723806  0.87440765  0.12031927  1  0  -0.047448  0  3.623048  0  0  -0.089293  0  3.878019  0  0  -0.083108  0  3.892012  0  0  -0.052999  -0.09307  0  3.869345  0
C  C29  1  0.26274693  0.12560193  0.87968632  1  0  -0.047406  0  3.623256  0  0  -0.089299  0  3.878186  0  0  -0.08313  0  3.892179  0  0  -0.052993  -0.093063  0  3.869517  0
C  C30  1  0.79033987  0.95448570  0.00750472  1  0  0.062974  0  3.695552  0  0  0.059322  0  3.956362  0  0  0.053436  0  3.978944  0  0  0.079598  0.062698  0  3.941152  0
C  C31  1  0.20965129  0.04552631  0.99250171  1  0  0.062882  0  3.695847  0  0  0.059214  0  3.956677  0  0  0.053342  0  3.979246  0  0  0.079518  0.062556  0  3.94151  0
C  C32  1  0.94860636  0.91132545  0.93487041  1  0  -0.081624  0  3.6769  0  0  -0.123979  0  3.936418  0  0  -0.1199  0  3.955718  0  0  -0.065617  -0.126023  0  3.922989  0
C  C33  1  0.05138099  0.08868080  0.06513316  1  0  -0.081511  0  3.677133  0  0  -0.12393  0  3.93664  0  0  -0.119865  0  3.955944  0  0  -0.065638  -0.125967  0  3.923227  0
C  C34  1  0.05358528  0.77802822  0.97468099  1  0  -0.057848  0  3.74127  0  0  -0.033082  0  3.981726  0  0  -0.044355  0  4.006109  0  0  -0.008092  -0.025939  0  3.965037  0
C  C35  1  0.94640603  0.22198034  0.02532092  1  0  -0.057821  0  3.741411  0  0  -0.033109  0  3.981816  0  0  -0.044379  0  4.006192  0  0  -0.008075  -0.025965  0  3.965127  0
C  C36  1  0.00173578  0.69430501  0.08693218  1  0  -0.009057  0  3.611735  0  0  -0.053025  0  3.859052  0  0  -0.047001  0  3.874992  0  0  -0.044885  -0.056433  0  3.848565  0
C  C37  1  0.99825770  0.30571043  0.91307502  1  0  -0.009152  0  3.611745  0  0  -0.053114  0  3.859104  0  0  -0.047078  0  3.875035  0  0  -0.044954  -0.056536  0  3.848608  0
C  C38  1  0.21917100  0.71884312  0.89719707  1  0  0.637976  0  3.832105  0  0  0.590056  0  4.132774  0  0  0.621532  0  4.126986  0  0  0.226204  0.568547  0  4.136374  0
C  C39  1  0.78080622  0.28114161  0.10280272  1  0  0.637526  0  3.832498  0  0  0.589855  0  4.132781  0  0  0.621331  0  4.127  0  0  0.22606  0.568341  0  4.136389  0
C  C40  1  0.06432700  0.23816477  0.54574037  1  0  0.725133  0  3.867767  0  0  0.678225  0  4.15974  0  0  0.712967  0  4.149941  0  0  0.236469  0.654454  0  4.161719  0
C  C41  1  0.93568258  0.76183531  0.45425611  1  0  0.724728  0  3.868158  0  0  0.67793  0  4.160028  0  0  0.712675  0  4.150227  0  0  0.236343  0.65416  0  4.162008  0
C  C42  1  0.05588106  0.08220250  0.59148121  1  0  -0.068765  0  3.720167  0  0  -0.039987  0  3.950994  0  0  -0.051168  0  3.974753  0  0  -0.009737  -0.033685  0  3.936936  0
C  C43  1  0.94413063  0.91779864  0.40851131  1  0  -0.068618  0  3.72019  0  0  -0.040028  0  3.951236  0  0  -0.051211  0  3.975001  0  0  -0.009777  -0.033724  0  3.937176  0
C  C44  1  0.90457584  0.05043137  0.63606565  1  0  -0.079401  0  3.684319  0  0  -0.12015  0  3.942918  0  0  -0.116003  0  3.960761  0  0  -0.061638  -0.121998  0  3.93102  0
C  C45  1  0.09543433  0.94956662  0.36393438  1  0  -0.079511  0  3.684387  0  0  -0.120243  0  3.943021  0  0  -0.116111  0  3.960885  0  0  -0.061599  -0.122087  0  3.931119  0
C  C46  1  0.90309758  0.90429517  0.67464134  1  0  0.047825  0  3.721357  0  0  0.0437  0  3.984477  0  0  0.037302  0  4.008587  0  0  0.076026  0.047553  0  3.968421  0
C  C47  1  0.09691129  0.09570372  0.32535332  1  0  0.047723  0  3.721205  0  0  0.043678  0  3.984195  0  0  0.037284  0  4.0083  0  0  0.075919  0.047533  0  3.968137  0
C  C48  1  0.04606879  0.78888529  0.66573761  1  0  -0.079552  0  3.650039  0  0  -0.119772  0  3.907024  0  0  -0.115439  0  3.923209  0  0  -0.060006  -0.122692  0  3.896716  0
C  C49  1  0.95394389  0.21111264  0.33425790  1  0  -0.079506  0  3.650117  0  0  -0.119735  0  3.90707  0  0  -0.115403  0  3.923256  0  0  -0.059913  -0.122657  0  3.896763  0
C  C50  1  0.19613465  0.82289054  0.61979182  1  0  -0.052448  0  3.725404  0  0  -0.02521  0  3.960436  0  0  -0.03548  0  3.982631  0  0  -0.001711  -0.019305  0  3.947036  0
C  C51  1  0.80388101  0.17710952  0.38019764  1  0  -0.052477  0  3.725282  0  0  -0.02519  0  3.960353  0  0  -0.035462  0  3.982552  0  0  -0.001749  -0.019283  0  3.946957  0
C  C52  1  0.20084528  0.96855929  0.58602347  1  0  -0.020243  0  3.618688  0  0  -0.065592  0  3.872267  0  0  -0.059858  0  3.887432  0  0  -0.052614  -0.069831  0  3.864007  0
C  C53  1  0.79916423  0.03144168  0.41396576  1  0  -0.020406  0  3.618647  0  0  -0.065706  0  3.87227  0  0  -0.059971  0  3.887435  0  0  -0.05267  -0.069943  0  3.864006  0
C  C54  1  0.35557564  0.70702731  0.60292190  1  0  0.699567  0  3.856777  0  0  0.65197  0  4.15026  0  0  0.686871  0  4.140284  0  0  0.229679  0.628867  0  4.148593  0
C  C55  1  0.64443230  0.29296718  0.39707502  1  0  0.699791  0  3.856548  0  0  0.652003  0  4.150304  0  0  0.686906  0  4.140326  0  0  0.229662  0.6289  0  4.148643  0
N  N56  1  0.67585427  0.09006727  0.96397593  1  0  0.504522  0  3.884529  0  0  0.530306  0  4.184333  0  0  0.551643  0  4.192983  0  0  0.06094  0.51606  0  4.178542  0
N  N57  1  0.32413145  0.90994011  0.03603008  1  0  0.504615  0  3.884412  0  0  0.530392  0  4.184232  0  0  0.551727  0  4.192878  0  0  0.061057  0.516157  0  4.178446  0
N  N58  1  0.74439774  0.87071649  0.72096676  1  0  0.513687  0  3.876893  0  0  0.536681  0  4.180082  0  0  0.557871  0  4.188884  0  0  0.061762  0.522471  0  4.174437  0
N  N59  1  0.25561504  0.12928052  0.27903521  1  0  0.513939  0  3.876491  0  0  0.536963  0  4.179596  0  0  0.558154  0  4.188393  0  0  0.061928  0.522752  0  4.173951  0
O  O60  1  0.64697788  0.69946174  0.34538755  1  0  -0.683178  0  2.032387  0  0  -0.631336  0  2.259924  0  0  -0.656337  0  2.250634  0  0  -0.34789  -0.607799  0  2.265712  0
O  O61  1  0.35301656  0.30053706  0.65461941  1  0  -0.683143  0  2.032533  0  0  -0.631281  0  2.260038  0  0  -0.656284  0  2.250757  0  0  -0.347862  -0.607753  0  2.265827  0
O  O62  1  0.90085700  0.55570899  0.32757900  1  0  -0.69959  0  2.050466  0  0  -0.648052  0  2.286913  0  0  -0.673505  0  2.277155  0  0  -0.340946  -0.624297  0  2.292373  0
O  O63  1  0.09914285  0.44429196  0.67241974  1  0  -0.699576  0  2.05041  0  0  -0.64802  0  2.286848  0  0  -0.673479  0  2.277106  0  0  -0.340949  -0.624271  0  2.292307  0
O  O64  1  0.28073664  0.58816222  0.90160748  1  0  -0.509944  0  1.854134  0  0  -0.476432  0  2.038896  0  0  -0.494714  0  2.032499  0  0  -0.287765  -0.463959  0  2.043315  0
O  O65  1  0.71921039  0.41183675  0.09838048  1  0  -0.509755  0  1.853935  0  0  -0.476338  0  2.038579  0  0  -0.494608  0  2.032168  0  0  -0.287651  -0.463864  0  2.043005  0
O  O66  1  0.28814821  0.82550011  0.82225049  1  0  -0.556544  0  2.09911  0  0  -0.511222  0  2.32216  0  0  -0.534012  0  2.309854  0  0  -0.335149  -0.495206  0  2.330769  0
O  O67  1  0.71184446  0.17448313  0.17775742  1  0  -0.556645  0  2.099204  0  0  -0.51136  0  2.322246  0  0  -0.534155  0  2.309944  0  0  -0.335184  -0.495343  0  2.330858  0
O  O68  1  0.73364205  0.16928563  0.86844007  1  0  -0.382768  0  1.778368  0  0  -0.351146  0  1.980581  0  0  -0.366877  0  1.977231  0  0  -0.122266  -0.340883  0  1.983335  0
O  O69  1  0.26634220  0.83071606  0.13156247  1  0  -0.382763  0  1.778334  0  0  -0.351161  0  1.98056  0  0  -0.366889  0  1.977212  0  0  -0.122282  -0.340902  0  1.983323  0
O  O70  1  0.53043889  0.11862315  0.02184230  1  0  -0.324837  0  1.764496  0  0  -0.319269  0  1.975696  0  0  -0.329807  0  1.972079  0  0  -0.11481  -0.312187  0  1.978385  0
O  O71  1  0.46954877  0.88138540  0.97816366  1  0  -0.32487  0  1.764409  0  0  -0.319267  0  1.975583  0  0  -0.329807  0  1.971972  0  0  -0.114829  -0.312183  0  1.978271  0
O  O72  1  0.93143681  0.33764122  0.54178364  1  0  -0.755962  0  2.088748  0  0  -0.715205  0  2.36297  0  0  -0.739017  0  2.348118  0  0  -0.420493  -0.68722  0  2.372963  0
O  O73  1  0.06856962  0.66235768  0.45821398  1  0  -0.755837  0  2.089049  0  0  -0.7151  0  2.363209  0  0  -0.738913  0  2.348358  0  0  -0.42044  -0.687105  0  2.373163  0
O  O74  1  0.20418383  0.25986468  0.51244189  1  0  -0.718053  0  2.047654  0  0  -0.68091  0  2.299287  0  0  -0.705104  0  2.288946  0  0  -0.384389  -0.655425  0  2.307665  0
O  O75  1  0.79582480  0.74013522  0.48754943  1  0  -0.717906  0  2.047728  0  0  -0.680752  0  2.299249  0  0  -0.704947  0  2.28891  0  0  -0.384344  -0.655265  0  2.307625  0
O  O76  1  0.47026159  0.71563834  0.63126022  1  0  -0.678763  0  1.983787  0  0  -0.633455  0  2.215509  0  0  -0.65723  0  2.203277  0  0  -0.347536  -0.610288  0  2.223683  0
O  O77  1  0.52975029  0.28435510  0.36873442  1  0  -0.678834  0  1.983686  0  0  -0.633423  0  2.215478  0  0  -0.657197  0  2.203245  0  0  -0.347456  -0.610256  0  2.223652  0
O  O78  1  0.37801036  0.60556503  0.55638121  1  0  -0.776547  0  2.085642  0  0  -0.736856  0  2.345214  0  0  -0.761652  0  2.33403  0  0  -0.392342  -0.705425  0  2.352276  0
O  O79  1  0.62199732  0.39442292  0.44361996  1  0  -0.776653  0  2.085691  0  0  -0.736869  0  2.345288  0  0  -0.761651  0  2.334074  0  0  -0.392314  -0.705438  0  2.352369  0
O  O80  1  0.74032958  0.74524606  0.78154912  1  0  -0.369451  0  1.771256  0  0  -0.343961  0  1.971394  0  0  -0.356124  0  1.964807  0  0  -0.120415  -0.336227  0  1.976425  0
O  O81  1  0.25968306  0.25475104  0.21845598  1  0  -0.369387  0  1.771166  0  0  -0.343946  0  1.971332  0  0  -0.356111  0  1.964744  0  0  -0.12038  -0.336214  0  1.976365  0
O  O82  1  0.62422581  0.96799737  0.69654595  1  0  -0.32952  0  1.738846  0  0  -0.307362  0  1.94058  0  0  -0.319149  0  1.936838  0  0  -0.104221  -0.299656  0  1.943582  0
O  O83  1  0.37578579  0.03199961  0.30345633  1  0  -0.329718  0  1.738735  0  0  -0.307605  0  1.940511  0  0  -0.31939  0  1.936763  0  0  -0.104381  -0.299898  0  1.94351  0
O  O84  1  0.77146758  0.50862881  0.70566340  1  0  -0.893663  0  1.843414  0  0  -0.854586  0  2.019715  0  0  -0.873037  0  1.989404  0  0  -0.63606  -0.833744  0  2.044663  0
O  O85  1  0.22853596  0.49136790  0.29433793  1  0  -0.893566  0  1.843527  0  0  -0.854486  0  2.019822  0  0  -0.872936  0  1.989511  0  0  -0.636004  -0.833645  0  2.044764  0
O  O86  1  0.58506994  0.35091740  0.69350841  1  0  -0.927817  0  1.877028  0  0  -0.884757  0  2.066377  0  0  -0.902927  0  2.032941  0  0  -0.650483  -0.863368  0  2.09447  0
O  O87  1  0.41493286  0.64907814  0.30649187  1  0  -0.927812  0  1.87695  0  0  -0.884679  0  2.066364  0  0  -0.902859  0  2.032944  0  0  -0.65051  -0.863294  0  2.094449  0
