# generated using pymatgen
data_CdH8C6(NCl)2
_symmetry_space_group_name_H-M   'P 1'
_cell_length_a   6.02457913
_cell_length_b   7.58430350
_cell_length_c   10.04970398
_cell_angle_alpha   89.99991401
_cell_angle_beta   107.13700978
_cell_angle_gamma   90.00035112
_symmetry_Int_Tables_number   1
_chemical_formula_structural   CdH8C6(NCl)2
_chemical_formula_sum   'Cd2 H16 C12 N4 Cl4'
_cell_volume   438.80658596
_cell_formula_units_Z   2
loop_
 _symmetry_equiv_pos_site_id
 _symmetry_equiv_pos_as_xyz
  1  'x, y, z'
loop_
 _atom_site_type_symbol
 _atom_site_label
 _atom_site_symmetry_multiplicity
 _atom_site_fract_x
 _atom_site_fract_y
 _atom_site_fract_z
 _atom_site_occupancy
 _atom_site_pbe_bader_spin_density
 _atom_site_pbe_cm5_charge
 _atom_site_pbe_ddec_charge
 _atom_site_pbe_ddec_spin_density
 _atom_site_pbe_ddec_sum_bond_order
 _atom_site_pbe_magmom
Cd  Cd0  1  0.50000065  0.00000597  0.49999719  1  0  0.584348  0.783406  0  2.379492  0
Cd  Cd1  1  0.50000621  0.50000443  0.50000184  1  0  0.584338  0.783407  0  2.379487  0
H  H2  1  0.90103641  0.93507742  0.72002564  1  0  0.29783  0.291228  0  0.942943  0
H  H3  1  0.09896878  0.43507880  0.27997563  1  0  0.297862  0.291187  0  0.94309  0
H  H4  1  0.09896888  0.06491825  0.27996987  1  0  0.29788  0.291222  0  0.943055  0
H  H5  1  0.90104034  0.56491818  0.72003346  1  0  0.297876  0.291255  0  0.942994  0
H  H6  1  0.96268786  0.11528055  0.64626900  1  0  0.271588  0.283314  0  1.002932  0
H  H7  1  0.03731829  0.61527838  0.35373377  1  0  0.271602  0.283332  0  1.002882  0
H  H8  1  0.03730897  0.88471776  0.35373306  1  0  0.271591  0.283355  0  1.002839  0
H  H9  1  0.96269582  0.38471860  0.64626820  1  0  0.271601  0.283406  0  1.002789  0
H  H10  1  0.75372886  0.92336980  0.90896136  1  0  0.098528  0.108256  0  1.01497  0
H  H11  1  0.24627797  0.42337491  0.09104020  1  0  0.098523  0.108289  0  1.015019  0
H  H12  1  0.24625054  0.07662454  0.09103579  1  0  0.098536  0.108286  0  1.015005  0
H  H13  1  0.75373611  0.57662339  0.90896077  1  0  0.09853  0.108286  0  1.015011  0
H  H14  1  0.67433782  0.08565605  0.10519641  1  0  0.088992  0.099072  0  1.03669  0
H  H15  1  0.32566801  0.58566210  0.89480335  1  0  0.088994  0.099054  0  1.036683  0
H  H16  1  0.32564839  0.91434357  0.89479690  1  0  0.089006  0.099076  0  1.036509  0
H  H17  1  0.67434100  0.41433752  0.10520175  1  0  0.08897  0.099099  0  1.036503  0
C  C18  1  0.80694370  0.15711246  0.80193872  1  0  0.070291  0.173945  0  4.004136  0
C  C19  1  0.19305236  0.65711532  0.19806231  1  0  0.070385  0.174129  0  4.003795  0
C  C20  1  0.19304976  0.84287529  0.19806675  1  0  0.070298  0.173921  0  4.003689  0
C  C21  1  0.80694599  0.34288167  0.80193204  1  0  0.070277  0.173937  0  4.003518  0
C  C22  1  0.75677514  0.06707101  0.91092645  1  0  -0.103109  -0.173376  0  4.022275  0
C  C23  1  0.24322867  0.56706377  0.08906802  1  0  -0.103105  -0.173462  0  4.022006  0
C  C24  1  0.24321783  0.93293257  0.08906103  1  0  -0.10309  -0.173355  0  4.02198  0
C  C25  1  0.75677011  0.43293057  0.91094233  1  0  -0.103095  -0.173345  0  4.022145  0
C  C26  1  0.71181510  0.15800697  0.02066626  1  0  -0.109898  -0.100647  0  4.052264  0
C  C27  1  0.28818093  0.65801135  0.97933377  1  0  -0.109867  -0.100572  0  4.052342  0
C  C28  1  0.28817314  0.84199265  0.97933834  1  0  -0.109958  -0.100707  0  4.05261  0
C  C29  1  0.71181898  0.34199882  0.02065487  1  0  -0.109857  -0.100691  0  4.052746  0
N  N30  1  0.84356097  0.05944780  0.68895867  1  0  -0.605597  -0.574725  0  3.399317  0
N  N31  1  0.15644121  0.55943970  0.31104150  1  0  -0.605686  -0.574775  0  3.399416  0
N  N32  1  0.15644270  0.94055578  0.31104055  1  0  -0.605681  -0.574795  0  3.399538  0
N  N33  1  0.84355732  0.44055465  0.68895985  1  0  -0.605651  -0.574861  0  3.399477  0
Cl  Cl34  1  0.25269307  0.25000321  0.57968775  1  0  -0.290746  -0.498464  0  1.288103  0
Cl  Cl35  1  0.74731235  0.75000433  0.42031276  1  0  -0.290759  -0.498485  0  1.288168  0
Cl  Cl36  1  0.61111695  0.25000430  0.34827740  1  0  -0.310875  -0.499097  0  1.245186  0
Cl  Cl37  1  0.38888668  0.75000323  0.65172082  1  0  -0.31087  -0.499105  0  1.245169  0
