# generated using pymatgen
data_H8PbC6Br2(NO)2
_symmetry_space_group_name_H-M   'P 1'
_cell_length_a   7.94507221
_cell_length_b   8.14264240
_cell_length_c   18.46961203
_cell_angle_alpha   89.99330068
_cell_angle_beta   90.00251188
_cell_angle_gamma   113.00279866
_symmetry_Int_Tables_number   1
_chemical_formula_structural   H8PbC6Br2(NO)2
_chemical_formula_sum   'H32 Pb4 C24 Br8 N8 O8'
_cell_volume   1099.86164832
_cell_formula_units_Z   4
loop_
 _symmetry_equiv_pos_site_id
 _symmetry_equiv_pos_as_xyz
  1  'x, y, z'
loop_
 _atom_site_type_symbol
 _atom_site_label
 _atom_site_symmetry_multiplicity
 _atom_site_fract_x
 _atom_site_fract_y
 _atom_site_fract_z
 _atom_site_occupancy
 _atom_site_hle17_bader_spin_density
 _atom_site_hle17_ddec_charge
 _atom_site_hle17_ddec_spin_density
 _atom_site_hle17_ddec_sum_bond_order
 _atom_site_hle17_magmom
 _atom_site_hse06_10hf_bader_spin_density
 _atom_site_hse06_10hf_ddec_charge
 _atom_site_hse06_10hf_ddec_spin_density
 _atom_site_hse06_10hf_ddec_sum_bond_order
 _atom_site_hse06_10hf_magmom
 _atom_site_hse06_bader_spin_density
 _atom_site_hse06_ddec_charge
 _atom_site_hse06_ddec_spin_density
 _atom_site_hse06_ddec_sum_bond_order
 _atom_site_hse06_magmom
 _atom_site_pbe_bader_spin_density
 _atom_site_pbe_cm5_charge
 _atom_site_pbe_ddec_charge
 _atom_site_pbe_ddec_spin_density
 _atom_site_pbe_ddec_sum_bond_order
 _atom_site_pbe_magmom
H  H0  1  0.03739499  0.82025275  0.28681181  1  0  0.12416  0  0.96427  0  0  0.130849  0  1.036224  0  0  0.134114  0  1.034049  0  0  0.106921  0.128445  0  1.037929  0
H  H1  1  0.46260826  0.17987951  0.78675047  1  0  0.124129  0  0.964627  0  0  0.130656  0  1.036656  0  0  0.133967  0  1.034521  0  0  0.106821  0.128235  0  1.038327  0
H  H2  1  0.96291569  0.17996996  0.71322720  1  0  0.123988  0  0.96459  0  0  0.130844  0  1.036249  0  0  0.134112  0  1.034086  0  0  0.10685  0.128448  0  1.037954  0
H  H3  1  0.53724583  0.82016371  0.21320841  1  0  0.124158  0  0.964715  0  0  0.130797  0  1.036635  0  0  0.134047  0  1.034468  0  0  0.106916  0.128405  0  1.038353  0
H  H4  1  0.86906163  0.85002048  0.34250009  1  0  0.109721  0  0.960524  0  0  0.117757  0  1.032125  0  0  0.120678  0  1.030033  0  0  0.102564  0.115669  0  1.033659  0
H  H5  1  0.63082033  0.14994572  0.84238871  1  0  0.110345  0  0.960906  0  0  0.11818  0  1.032472  0  0  0.121122  0  1.030433  0  0  0.102724  0.116074  0  1.033983  0
H  H6  1  0.13115135  0.15015058  0.65759740  1  0  0.110022  0  0.960898  0  0  0.117802  0  1.032705  0  0  0.120733  0  1.03062  0  0  0.102459  0.11572  0  1.034231  0
H  H7  1  0.36912665  0.85017456  0.15757883  1  0  0.109581  0  0.961378  0  0  0.117531  0  1.032999  0  0  0.120401  0  1.030952  0  0  0.102479  0.115484  0  1.034497  0
H  H8  1  0.86561783  0.78986891  0.47834050  1  0  0.128518  0  0.948545  0  0  0.138069  0  1.007498  0  0  0.141183  0  1.005903  0  0  0.122052  0.135786  0  1.008804  0
H  H9  1  0.63421440  0.20957271  0.97823782  1  0  0.129014  0  0.948295  0  0  0.138513  0  1.007279  0  0  0.141572  0  1.005758  0  0  0.122276  0.13627  0  1.008536  0
H  H10  1  0.13431627  0.20956692  0.52172885  1  0  0.128834  0  0.948063  0  0  0.138579  0  1.006755  0  0  0.141687  0  1.005167  0  0  0.122257  0.136289  0  1.008067  0
H  H11  1  0.36569771  0.79039000  0.02169561  1  0  0.128828  0  0.94841  0  0  0.138684  0  1.006941  0  0  0.141764  0  1.005392  0  0  0.122179  0.136387  0  1.008256  0
H  H12  1  0.12559912  0.74409172  0.56931882  1  0  0.134473  0  0.969857  0  0  0.137358  0  1.040944  0  0  0.141198  0  1.037444  0  0  0.117427  0.13452  0  1.043605  0
H  H13  1  0.37427208  0.25515341  0.06927332  1  0  0.134507  0  0.970629  0  0  0.137434  0  1.041561  0  0  0.141265  0  1.038082  0  0  0.117616  0.134598  0  1.044201  0
H  H14  1  0.87420650  0.25498648  0.43071967  1  0  0.134438  0  0.97057  0  0  0.137411  0  1.041443  0  0  0.141233  0  1.037985  0  0  0.117607  0.134578  0  1.044077  0
H  H15  1  0.62575494  0.74485684  0.93070776  1  0  0.134495  0  0.970531  0  0  0.137326  0  1.041505  0  0  0.141161  0  1.03803  0  0  0.117556  0.134487  0  1.044161  0
H  H16  1  0.26230720  0.69667848  0.34976411  1  0  0.135705  0  0.957183  0  0  0.13693  0  1.029426  0  0  0.141136  0  1.024069  0  0  0.140509  0.133764  0  1.033318  0
H  H17  1  0.23772964  0.30338829  0.84975209  1  0  0.135733  0  0.957147  0  0  0.136985  0  1.029319  0  0  0.141192  0  1.023961  0  0  0.140509  0.133818  0  1.033221  0
H  H18  1  0.73791754  0.30343772  0.65024296  1  0  0.135417  0  0.956813  0  0  0.136646  0  1.029106  0  0  0.140875  0  1.023673  0  0  0.140428  0.133488  0  1.033043  0
H  H19  1  0.76220482  0.69676013  0.15025335  1  0  0.135561  0  0.957009  0  0  0.136726  0  1.029379  0  0  0.140934  0  1.02402  0  0  0.140492  0.133578  0  1.033275  0
H  H20  1  0.50010371  0.82071148  0.51437568  1  0  0.11477  0  0.931289  0  0  0.130239  0  0.999733  0  0  0.131831  0  0.998276  0  0  0.100613  0.129006  0  1.000842  0
H  H21  1  0.99996655  0.17917480  0.01442800  1  0  0.114342  0  0.931421  0  0  0.129952  0  0.999683  0  0  0.131546  0  0.998241  0  0  0.100613  0.128717  0  1.000784  0
H  H22  1  0.49998119  0.17912468  0.48558591  1  0  0.114413  0  0.931443  0  0  0.12995  0  0.999687  0  0  0.131547  0  0.998244  0  0  0.100534  0.128714  0  1.000789  0
H  H23  1  0.00008604  0.82094785  0.98566150  1  0  0.114475  0  0.931326  0  0  0.129927  0  0.999754  0  0  0.13152  0  0.998315  0  0  0.100489  0.128696  0  1.000854  0
H  H24  1  0.46600782  0.65056566  0.44738021  1  0  0.114807  0  0.938049  0  0  0.132494  0  1.003348  0  0  0.133994  0  1.002206  0  0  0.104916  0.131291  0  1.004311  0
H  H25  1  0.03405644  0.34928789  0.94741514  1  0  0.114712  0  0.937814  0  0  0.132381  0  1.003126  0  0  0.133881  0  1.00198  0  0  0.104863  0.131176  0  1.004098  0
H  H26  1  0.53412435  0.34921010  0.55260575  1  0  0.11485  0  0.937749  0  0  0.13238  0  1.003163  0  0  0.13388  0  1.002021  0  0  0.10496  0.131175  0  1.00413  0
H  H27  1  0.96587994  0.65070676  0.05263470  1  0  0.115018  0  0.938026  0  0  0.132717  0  1.003273  0  0  0.134225  0  1.002121  0  0  0.105003  0.131508  0  1.004239  0
H  H28  1  0.36644528  0.59394025  0.53596842  1  0  0.115359  0  0.935863  0  0  0.133194  0  1.001088  0  0  0.13423  0  1.000834  0  0  0.104803  0.132368  0  1.001333  0
H  H29  1  0.13379311  0.40591168  0.03597044  1  0  0.1154  0  0.935514  0  0  0.132883  0  1.001213  0  0  0.133915  0  1.000945  0  0  0.104668  0.132053  0  1.001462  0
H  H30  1  0.63377617  0.40589120  0.46404028  1  0  0.115406  0  0.935655  0  0  0.132733  0  1.001473  0  0  0.133757  0  1.001217  0  0  0.104647  0.131907  0  1.001716  0
H  H31  1  0.86631647  0.59422782  0.96404528  1  0  0.115452  0  0.935705  0  0  0.132961  0  1.001274  0  0  0.134001  0  1.001018  0  0  0.104718  0.13213  0  1.001523  0
Pb  Pb32  1  0.49943115  0.25454052  0.25052747  1  0  1.087248  0  1.662158  0  0  0.923509  0  2.092025  0  0  0.984782  0  2.045672  0  0  0.438969  0.880627  0  2.123001  0
Pb  Pb33  1  0.00031847  0.74562354  0.75054492  1  0  1.087126  0  1.661806  0  0  0.923454  0  2.091483  0  0  0.984687  0  2.045212  0  0  0.439113  0.880498  0  2.122613  0
Pb  Pb34  1  0.50026575  0.74573612  0.74944873  1  0  1.086998  0  1.663471  0  0  0.923303  0  2.09342  0  0  0.984513  0  2.047146  0  0  0.438762  0.880385  0  2.12451  0
Pb  Pb35  1  0.99958795  0.25449294  0.24947242  1  0  1.087198  0  1.662782  0  0  0.923488  0  2.092739  0  0  0.984739  0  2.046398  0  0  0.438938  0.880595  0  2.123745  0
C  C36  1  0.80055381  0.58239858  0.30444635  1  0  0.681816  0  3.85962  0  0  0.632841  0  4.157035  0  0  0.667298  0  4.150738  0  0  0.207867  0.609461  0  4.160425  0
C  C37  1  0.69940592  0.41769711  0.80443543  1  0  0.681482  0  3.859843  0  0  0.632479  0  4.157108  0  0  0.666988  0  4.150845  0  0  0.207767  0.609081  0  4.160448  0
C  C38  1  0.19957671  0.41782371  0.69553959  1  0  0.681565  0  3.859906  0  0  0.632654  0  4.157097  0  0  0.667113  0  4.150807  0  0  0.207589  0.609293  0  4.160452  0
C  C39  1  0.30039496  0.58240119  0.19551478  1  0  0.681543  0  3.859473  0  0  0.632523  0  4.156975  0  0  0.666967  0  4.150684  0  0  0.207808  0.609148  0  4.160359  0
C  C40  1  0.93997186  0.76084768  0.33119494  1  0  -0.170028  0  3.612227  0  0  -0.226351  0  3.850819  0  0  -0.228084  0  3.85651  0  0  -0.05859  -0.225157  0  3.847131  0
C  C41  1  0.55995774  0.23912380  0.83112381  1  0  -0.170588  0  3.612889  0  0  -0.226332  0  3.850828  0  0  -0.228251  0  3.856739  0  0  -0.058567  -0.225051  0  3.847071  0
C  C42  1  0.06023323  0.23931942  0.66883107  1  0  -0.170149  0  3.613261  0  0  -0.226459  0  3.851951  0  0  -0.228247  0  3.857719  0  0  -0.058288  -0.225265  0  3.848253  0
C  C43  1  0.43989793  0.76089535  0.16882749  1  0  -0.16979  0  3.613314  0  0  -0.225921  0  3.851957  0  0  -0.227598  0  3.857682  0  0  -0.058405  -0.22478  0  3.848266  0
C  C44  1  0.98599572  0.76367192  0.46606660  1  0  -0.043259  0  3.653483  0  0  -0.088882  0  3.922455  0  0  -0.087403  0  3.939942  0  0  0.009924  -0.089949  0  3.91096  0
C  C45  1  0.51387028  0.23586219  0.96600823  1  0  -0.044612  0  3.653933  0  0  -0.090316  0  3.923078  0  0  -0.088799  0  3.940572  0  0  0.009084  -0.091407  0  3.911539  0
C  C46  1  0.01395174  0.23581867  0.53397134  1  0  -0.043995  0  3.653128  0  0  -0.089941  0  3.922275  0  0  -0.088454  0  3.939744  0  0  0.009415  -0.090998  0  3.910775  0
C  C47  1  0.48610462  0.76421517  0.03395443  1  0  -0.044214  0  3.653901  0  0  -0.090186  0  3.922948  0  0  -0.088691  0  3.940449  0  0  0.009428  -0.091223  0  3.911424  0
C  C48  1  0.11258378  0.74173464  0.51089414  1  0  -0.033364  0  3.635585  0  0  -0.08054  0  3.904022  0  0  -0.077934  0  3.921067  0  0  0.013045  -0.082328  0  3.892876  0
C  C49  1  0.38740357  0.25789492  0.01086121  1  0  -0.032346  0  3.636457  0  0  -0.079402  0  3.904629  0  0  -0.076783  0  3.921647  0  0  0.013881  -0.081196  0  3.893514  0
C  C50  1  0.88739400  0.25775311  0.48912918  1  0  -0.032638  0  3.635232  0  0  -0.079714  0  3.90351  0  0  -0.077109  0  3.920554  0  0  0.013676  -0.081499  0  3.892381  0
C  C51  1  0.61258523  0.74211418  0.98912474  1  0  -0.032441  0  3.636039  0  0  -0.079321  0  3.904235  0  0  -0.076707  0  3.921267  0  0  0.013871  -0.081122  0  3.893099  0
C  C52  1  0.19233701  0.71704682  0.39719968  1  0  0.151138  0  3.504558  0  0  0.075175  0  3.770552  0  0  0.091967  0  3.777421  0  0  0.172653  0.064312  0  3.765891  0
C  C53  1  0.30766772  0.28286111  0.89717612  1  0  0.151543  0  3.504232  0  0  0.075548  0  3.77035  0  0  0.092335  0  3.777192  0  0  0.172663  0.064678  0  3.765707  0
C  C54  1  0.80781624  0.28289594  0.60281118  1  0  0.152406  0  3.50332  0  0  0.07653  0  3.769151  0  0  0.093341  0  3.776007  0  0  0.173079  0.06563  0  3.764516  0
C  C55  1  0.69227404  0.71725251  0.10282228  1  0  0.151842  0  3.504111  0  0  0.076035  0  3.769942  0  0  0.092825  0  3.776785  0  0  0.172749  0.065148  0  3.765318  0
C  C56  1  0.40390366  0.69333986  0.49256885  1  0  -0.171347  0  3.622266  0  0  -0.278031  0  3.876701  0  0  -0.274472  0  3.883976  0  0  -0.13156  -0.280172  0  3.871865  0
C  C57  1  0.09620729  0.30648470  0.99257761  1  0  -0.17054  0  3.622451  0  0  -0.276938  0  3.876802  0  0  -0.273378  0  3.884079  0  0  -0.131343  -0.279076  0  3.87196  0
C  C58  1  0.59623426  0.30643453  0.50742414  1  0  -0.170795  0  3.62247  0  0  -0.276832  0  3.87662  0  0  -0.273278  0  3.883916  0  0  -0.131293  -0.278963  0  3.871768  0
C  C59  1  0.90383848  0.69358426  0.00746357  1  0  -0.171133  0  3.622662  0  0  -0.277425  0  3.876913  0  0  -0.273881  0  3.884193  0  0  -0.131499  -0.279557  0  3.872072  0
Br  Br60  1  0.62366676  0.99985547  0.33261917  1  0  -0.605245  0  0.881716  0  0  -0.537618  0  1.148559  0  0  -0.562801  0  1.130277  0  0  -0.250657  -0.519588  0  1.160862  0
Br  Br61  1  0.87617749  0.00022961  0.83266904  1  0  -0.605019  0  0.881534  0  0  -0.537428  0  1.148396  0  0  -0.562596  0  1.130105  0  0  -0.250472  -0.519379  0  1.160718  0
Br  Br62  1  0.37633265  0.00034601  0.66732644  1  0  -0.605073  0  0.882074  0  0  -0.537336  0  1.148886  0  0  -0.562523  0  1.130618  0  0  -0.250472  -0.519282  0  1.161201  0
Br  Br63  1  0.12362327  0.99973623  0.16737240  1  0  -0.605051  0  0.881863  0  0  -0.537396  0  1.148668  0  0  -0.562575  0  1.130377  0  0  -0.250445  -0.519366  0  1.160981  0
Br  Br64  1  0.26191834  0.27445474  0.37271224  1  0  -0.579622  0  0.882734  0  0  -0.504649  0  1.153581  0  0  -0.52996  0  1.136169  0  0  -0.231923  -0.486768  0  1.165305  0
Br  Br65  1  0.23805438  0.72566272  0.87280762  1  0  -0.5801  0  0.881676  0  0  -0.505139  0  1.152275  0  0  -0.530487  0  1.134954  0  0  -0.232317  -0.487206  0  1.163961  0
Br  Br66  1  0.73800043  0.72587558  0.62726179  1  0  -0.579974  0  0.881977  0  0  -0.504957  0  1.152586  0  0  -0.530259  0  1.135188  0  0  -0.232351  -0.487075  0  1.164368  0
Br  Br67  1  0.76197466  0.27461357  0.12718048  1  0  -0.58036  0  0.880883  0  0  -0.505411  0  1.151454  0  0  -0.530776  0  1.134141  0  0  -0.232634  -0.487504  0  1.163145  0
N  N68  1  0.03865459  0.74851500  0.39579712  1  0  -0.008202  0  3.596788  0  0  0.079373  0  3.820568  0  0  0.066046  0  3.845507  0  0  -0.227117  0.08808  0  3.803653  0
N  N69  1  0.46124858  0.25126680  0.89573834  1  0  -0.007741  0  3.596525  0  0  0.079694  0  3.820232  0  0  0.066453  0  3.845198  0  0  -0.227201  0.088362  0  3.803295  0
N  N70  1  0.96144217  0.25133179  0.60423215  1  0  -0.008327  0  3.597103  0  0  0.079209  0  3.820851  0  0  0.065898  0  3.845792  0  0  -0.227534  0.087915  0  3.803931  0
N  N71  1  0.53866496  0.74880820  0.10422920  1  0  -0.007998  0  3.596667  0  0  0.079399  0  3.820653  0  0  0.066093  0  3.845547  0  0  -0.227542  0.088095  0  3.803757  0
N  N72  1  0.23972802  0.71370112  0.46677616  1  0  -0.004182  0  3.587068  0  0  0.094702  0  3.80709  0  0  0.080311  0  3.83355  0  0  -0.229992  0.104104  0  3.789155  0
N  N73  1  0.26027113  0.28600885  0.96676987  1  0  -0.005387  0  3.588865  0  0  0.09338  0  3.809081  0  0  0.078999  0  3.835506  0  0  -0.230564  0.102776  0  3.791166  0
N  N74  1  0.76036620  0.28601199  0.53322875  1  0  -0.005401  0  3.588294  0  0  0.0933  0  3.80849  0  0  0.07891  0  3.834936  0  0  -0.230429  0.102692  0  3.790578  0
N  N75  1  0.73970263  0.71401905  0.03324207  1  0  -0.005276  0  3.588384  0  0  0.093431  0  3.808532  0  0  0.079049  0  3.834962  0  0  -0.230408  0.10282  0  3.790629  0
O  O76  1  0.68530674  0.59184663  0.25871467  1  0  -0.621144  0  1.970542  0  0  -0.55558  0  2.204207  0  0  -0.58597  0  2.198517  0  0  -0.303111  -0.534457  0  2.207371  0
O  O77  1  0.81455813  0.40833326  0.75864000  1  0  -0.620927  0  1.970256  0  0  -0.555456  0  2.204036  0  0  -0.585831  0  2.198302  0  0  -0.303076  -0.534326  0  2.207203  0
O  O78  1  0.31472437  0.40849381  0.74134165  1  0  -0.620995  0  1.97054  0  0  -0.55542  0  2.204263  0  0  -0.585803  0  2.198582  0  0  -0.302977  -0.534288  0  2.207391  0
O  O79  1  0.18517899  0.59173195  0.24128368  1  0  -0.620848  0  1.970096  0  0  -0.555344  0  2.203856  0  0  -0.585727  0  2.198175  0  0  -0.303082  -0.534217  0  2.207003  0
O  O80  1  0.80484001  0.43677953  0.32741892  1  0  -0.661226  0  1.995064  0  0  -0.590791  0  2.229468  0  0  -0.622031  0  2.224667  0  0  -0.309079  -0.568965  0  2.231894  0
O  O81  1  0.69518396  0.56328599  0.82746708  1  0  -0.660845  0  1.995037  0  0  -0.590518  0  2.229518  0  0  -0.621772  0  2.224753  0  0  -0.308935  -0.568688  0  2.231947  0
O  O82  1  0.19525239  0.56339216  0.67251018  1  0  -0.661175  0  1.995422  0  0  -0.590704  0  2.229738  0  0  -0.62198  0  2.225025  0  0  -0.308916  -0.568877  0  2.232161  0
O  O83  1  0.30468604  0.43683068  0.17249396  1  0  -0.661176  0  1.995234  0  0  -0.590576  0  2.229413  0  0  -0.621852  0  2.224715  0  0  -0.308969  -0.568756  0  2.231841  0
