# generated using pymatgen
data_Cd3H2(C4O5)2
_symmetry_space_group_name_H-M   'P 1'
_cell_length_a   7.25814983
_cell_length_b   7.63342006
_cell_length_c   12.03724565
_cell_angle_alpha   78.55875730
_cell_angle_beta   72.43740372
_cell_angle_gamma   61.63489866
_symmetry_Int_Tables_number   1
_chemical_formula_structural   Cd3H2(C4O5)2
_chemical_formula_sum   'Cd6 H4 C16 O20'
_cell_volume   558.28814346
_cell_formula_units_Z   2
loop_
 _symmetry_equiv_pos_site_id
 _symmetry_equiv_pos_as_xyz
  1  'x, y, z'
loop_
 _atom_site_type_symbol
 _atom_site_label
 _atom_site_symmetry_multiplicity
 _atom_site_fract_x
 _atom_site_fract_y
 _atom_site_fract_z
 _atom_site_occupancy
 _atom_site_hle17_bader_spin_density
 _atom_site_hle17_ddec_charge
 _atom_site_hle17_ddec_spin_density
 _atom_site_hle17_ddec_sum_bond_order
 _atom_site_hle17_magmom
 _atom_site_hse06_10hf_bader_spin_density
 _atom_site_hse06_10hf_ddec_charge
 _atom_site_hse06_10hf_ddec_spin_density
 _atom_site_hse06_10hf_ddec_sum_bond_order
 _atom_site_hse06_10hf_magmom
 _atom_site_hse06_bader_spin_density
 _atom_site_hse06_ddec_charge
 _atom_site_hse06_ddec_spin_density
 _atom_site_hse06_ddec_sum_bond_order
 _atom_site_hse06_magmom
 _atom_site_pbe_bader_spin_density
 _atom_site_pbe_cm5_charge
 _atom_site_pbe_ddec_charge
 _atom_site_pbe_ddec_spin_density
 _atom_site_pbe_ddec_sum_bond_order
 _atom_site_pbe_magmom
Cd  Cd0  1  0.00000008  0.00000094  0.49999953  1  0  1.272972  0  1.640209  0  0  1.10473  0  2.083662  0  0  1.159861  0  2.027422  0  0  0.758422  1.064719  0  2.122716  0
Cd  Cd1  1  0.49999905  0.00000141  0.49999962  1  0  1.272448  0  1.640893  0  0  1.104412  0  2.084308  0  0  1.15945  0  2.028068  0  0  0.75844  1.064384  0  2.12318  0
Cd  Cd2  1  0.29083528  0.70321548  0.71539975  1  0  1.287919  0  1.629339  0  0  1.114372  0  2.084938  0  0  1.17115  0  2.024858  0  0  0.762912  1.072108  0  2.127809  0
Cd  Cd3  1  0.70916362  0.29678310  0.28460041  1  0  1.28792  0  1.629325  0  0  1.114377  0  2.08492  0  0  1.171155  0  2.024841  0  0  0.762911  1.07211  0  2.127776  0
Cd  Cd4  1  0.00000003  0.49999937  0.00000150  1  0  1.258932  0  1.602222  0  0  1.087094  0  2.050204  0  0  1.146841  0  1.990419  0  0  0.755025  1.043174  0  2.092203  0
Cd  Cd5  1  0.50000066  0.50000116  0.99999948  1  0  1.260035  0  1.601206  0  0  1.08828  0  2.049285  0  0  1.147964  0  1.989418  0  0  0.755179  1.043943  0  2.091549  0
H  H6  1  0.58210195  0.30302872  0.53278214  1  0  0.428486  0  0.862928  0  0  0.394033  0  0.933181  0  0  0.40539  0  0.916849  0  0  0.28385  0.38558  0  0.945333  0
H  H7  1  0.41789541  0.69696986  0.46721667  1  0  0.428485  0  0.862931  0  0  0.394025  0  0.933196  0  0  0.405383  0  0.916864  0  0  0.283832  0.385575  0  0.945343  0
H  H8  1  0.13640449  0.78319380  0.94438370  1  0  0.423957  0  0.848769  0  0  0.40251  0  0.904828  0  0  0.412459  0  0.890642  0  0  0.296006  0.39505  0  0.914195  0
H  H9  1  0.86359606  0.21680478  0.05561480  1  0  0.423937  0  0.84879  0  0  0.402492  0  0.904851  0  0  0.412441  0  0.890664  0  0  0.295993  0.395033  0  0.914216  0
C  C10  1  0.02492540  0.33599019  0.61440026  1  0  0.216309  0  3.838698  0  0  0.192069  0  4.111432  0  0  0.205545  0  4.123828  0  0  0.09608  0.182843  0  4.102748  0
C  C11  1  0.97507205  0.66401286  0.38560192  1  0  0.216321  0  3.838842  0  0  0.192084  0  4.111588  0  0  0.205559  0  4.123988  0  0  0.096116  0.182864  0  4.102896  0
C  C12  1  0.08875267  0.42651166  0.68308631  1  0  0.207497  0  3.887098  0  0  0.185412  0  4.164681  0  0  0.197889  0  4.177957  0  0  0.097907  0.176845  0  4.155211  0
C  C13  1  0.19804236  0.57343792  0.31688999  1  0  0.208601  0  3.884584  0  0  0.18563  0  4.163312  0  0  0.198097  0  4.176582  0  0  0.098216  0.177017  0  4.153873  0
C  C14  1  0.91124799  0.57348991  0.31691343  1  0  0.207492  0  3.887014  0  0  0.185413  0  4.164604  0  0  0.197888  0  4.17788  0  0  0.097873  0.176835  0  4.155145  0
C  C15  1  0.80195485  0.42656662  0.68311020  1  0  0.208561  0  3.884536  0  0  0.185597  0  4.163253  0  0  0.198068  0  4.176522  0  0  0.098166  0.176982  0  4.153819  0
C  C16  1  0.87124686  0.49529810  0.76262077  1  0  0.215348  0  3.819031  0  0  0.189546  0  4.098038  0  0  0.203891  0  4.110919  0  0  0.100169  0.179758  0  4.088779  0
C  C17  1  0.12875426  0.50470496  0.23737917  1  0  0.215339  0  3.819143  0  0  0.189516  0  4.098201  0  0  0.203868  0  4.111072  0  0  0.100187  0.179729  0  4.088944  0
C  C18  1  0.27574781  0.01164392  0.23429365  1  0  0.226745  0  3.816974  0  0  0.203339  0  4.092638  0  0  0.2157  0  4.105734  0  0  0.099903  0.194634  0  4.083783  0
C  C19  1  0.52207667  0.98822692  0.76563682  1  0  0.22128  0  3.817554  0  0  0.19654  0  4.09489  0  0  0.208888  0  4.107994  0  0  0.097318  0.188009  0  4.085847  0
C  C20  1  0.72425083  0.98835764  0.76570666  1  0  0.226754  0  3.816993  0  0  0.203328  0  4.092678  0  0  0.21569  0  4.105772  0  0  0.09991  0.194625  0  4.083823  0
C  C21  1  0.47792139  0.01177165  0.23436417  1  0  0.221361  0  3.817586  0  0  0.196612  0  4.094919  0  0  0.20896  0  4.108021  0  0  0.097362  0.188075  0  4.085876  0
C  C22  1  0.38861261  0.88127464  0.13597055  1  0  0.224611  0  3.836137  0  0  0.202437  0  4.112497  0  0  0.216428  0  4.12533  0  0  0.106838  0.192914  0  4.103432  0
C  C23  1  0.40585196  0.11873275  0.86391168  1  0  0.225611  0  3.838248  0  0  0.20356  0  4.115095  0  0  0.217623  0  4.127888  0  0  0.107984  0.193979  0  4.105923  0
C  C24  1  0.61138747  0.11872394  0.86402987  1  0  0.224605  0  3.83616  0  0  0.202448  0  4.112516  0  0  0.21644  0  4.125348  0  0  0.10683  0.192917  0  4.103459  0
C  C25  1  0.59414739  0.88126732  0.13608869  1  0  0.225588  0  3.83832  0  0  0.203567  0  4.115128  0  0  0.217629  0  4.127919  0  0  0.107989  0.193987  0  4.105955  0
O  O26  1  0.12417737  0.22108313  0.53065799  1  0  -0.561497  0  2.18509  0  0  -0.486283  0  2.450927  0  0  -0.515553  0  2.444446  0  0  -0.308577  -0.465276  0  2.454769  0
O  O27  1  0.87582175  0.77891843  0.46934039  1  0  -0.561468  0  2.185243  0  0  -0.486265  0  2.451078  0  0  -0.515533  0  2.444596  0  0  -0.308601  -0.465262  0  2.454924  0
O  O28  1  0.26003771  0.43788818  0.67301646  1  0  -0.524894  0  2.169852  0  0  -0.463085  0  2.424056  0  0  -0.488697  0  2.420498  0  0  -0.306262  -0.444474  0  2.426107  0
O  O29  1  0.37070934  0.56200260  0.32684607  1  0  -0.525896  0  2.166758  0  0  -0.463723  0  2.421552  0  0  -0.489331  0  2.417974  0  0  -0.306734  -0.445055  0  2.423557  0
O  O30  1  0.73996355  0.56211040  0.32698423  1  0  -0.524888  0  2.169854  0  0  -0.463071  0  2.424036  0  0  -0.488682  0  2.420479  0  0  -0.306244  -0.444458  0  2.426092  0
O  O31  1  0.62929285  0.43799896  0.67315502  1  0  -0.525802  0  2.166794  0  0  -0.463664  0  2.421613  0  0  -0.48927  0  2.418036  0  0  -0.306672  -0.444989  0  2.423608  0
O  O32  1  0.78398000  0.57142705  0.86108975  1  0  -0.566856  0  2.18389  0  0  -0.495143  0  2.452192  0  0  -0.525533  0  2.446749  0  0  -0.303851  -0.473053  0  2.455184  0
O  O33  1  0.21602196  0.42857153  0.13891313  1  0  -0.566864  0  2.183964  0  0  -0.495119  0  2.452219  0  0  -0.525507  0  2.446768  0  0  -0.303878  -0.473028  0  2.455212  0
O  O34  1  0.08348480  0.08243926  0.29755915  1  0  -0.596158  0  2.173741  0  0  -0.522938  0  2.447136  0  0  -0.549908  0  2.437253  0  0  -0.327939  -0.503601  0  2.453815  0
O  O35  1  0.46435274  0.91711916  0.70225921  1  0  -0.593786  0  2.173853  0  0  -0.520262  0  2.448073  0  0  -0.547132  0  2.437965  0  0  -0.326685  -0.501013  0  2.454643  0
O  O36  1  0.91651456  0.91756081  0.70244122  1  0  -0.596147  0  2.17375  0  0  -0.522908  0  2.447139  0  0  -0.549878  0  2.437254  0  0  -0.327925  -0.503574  0  2.453826  0
O  O37  1  0.53564307  0.08288091  0.29774037  1  0  -0.593766  0  2.173848  0  0  -0.520261  0  2.448093  0  0  -0.547132  0  2.437983  0  0  -0.326685  -0.501012  0  2.45466  0
O  O38  1  0.32958051  0.80082214  0.08134989  1  0  -0.519207  0  2.130132  0  0  -0.459781  0  2.380836  0  0  -0.485661  0  2.375571  0  0  -0.308333  -0.441313  0  2.384046  0
O  O39  1  0.21164204  0.19920633  0.91828480  1  0  -0.518215  0  2.131689  0  0  -0.458965  0  2.382497  0  0  -0.484828  0  2.377216  0  0  -0.308598  -0.440453  0  2.385582  0
O  O40  1  0.67041730  0.19917943  0.91865126  1  0  -0.519199  0  2.130142  0  0  -0.459766  0  2.380835  0  0  -0.485646  0  2.375571  0  0  -0.308315  -0.441291  0  2.384044  0
O  O41  1  0.78835708  0.80079523  0.08171359  1  0  -0.518258  0  2.131757  0  0  -0.459017  0  2.382545  0  0  -0.484886  0  2.377274  0  0  -0.308633  -0.440512  0  2.385636  0
O  O42  1  0.66282141  0.19597674  0.47850536  1  0  -1.014375  0  1.86122  0  0  -0.900283  0  2.129933  0  0  -0.942198  0  2.096921  0  0  -0.585426  -0.870162  0  2.152685  0
O  O43  1  0.33717748  0.80402184  0.52149480  1  0  -1.01435  0  1.861164  0  0  -0.900244  0  2.129867  0  0  -0.942162  0  2.096857  0  0  -0.585392  -0.870125  0  2.152615  0
O  O44  1  0.21830465  0.65497659  0.90857820  1  0  -0.997773  0  1.822814  0  0  -0.891342  0  2.096535  0  0  -0.931379  0  2.060794  0  0  -0.578347  -0.862535  0  2.120505  0
O  O45  1  0.78169507  0.34502199  0.09142113  1  0  -0.997718  0  1.822808  0  0  -0.891302  0  2.096549  0  0  -0.931341  0  2.06081  0  0  -0.578324  -0.862502  0  2.120512  0
