# generated using pymatgen
data_KCu6H12C18I(N3O2)6
_symmetry_space_group_name_H-M   'P 1'
_cell_length_a   10.17423612
_cell_length_b   13.07817498
_cell_length_c   13.12000000
_cell_angle_alpha   89.92782263
_cell_angle_beta   80.90345341
_cell_angle_gamma   69.71349165
_symmetry_Int_Tables_number   1
_chemical_formula_structural   KCu6H12C18I(N3O2)6
_chemical_formula_sum   'K2 Cu12 H24 C36 I2 N36 O24'
_cell_volume   1614.16573822
_cell_formula_units_Z   2
loop_
 _symmetry_equiv_pos_site_id
 _symmetry_equiv_pos_as_xyz
  1  'x, y, z'
loop_
 _atom_site_type_symbol
 _atom_site_label
 _atom_site_symmetry_multiplicity
 _atom_site_fract_x
 _atom_site_fract_y
 _atom_site_fract_z
 _atom_site_occupancy
 _atom_site_hle17_bader_spin_density
 _atom_site_hle17_ddec_charge
 _atom_site_hle17_ddec_spin_density
 _atom_site_hle17_ddec_sum_bond_order
 _atom_site_hle17_magmom
 _atom_site_hse06_10hf_bader_spin_density
 _atom_site_hse06_10hf_ddec_charge
 _atom_site_hse06_10hf_ddec_spin_density
 _atom_site_hse06_10hf_ddec_sum_bond_order
 _atom_site_hse06_10hf_magmom
 _atom_site_hse06_bader_spin_density
 _atom_site_hse06_ddec_charge
 _atom_site_hse06_ddec_spin_density
 _atom_site_hse06_ddec_sum_bond_order
 _atom_site_hse06_magmom
 _atom_site_pbe_bader_charge
 _atom_site_pbe_bader_spin_density
 _atom_site_pbe_cm5_charge
 _atom_site_pbe_ddec_charge
 _atom_site_pbe_ddec_spin_density
 _atom_site_pbe_ddec_sum_bond_order
 _atom_site_pbe_magmom
K  K0  1  0.20228031  0.94263071  0.47467727  1  0  0.957852  0  0.431085  0  0  0.923715  0  0.612122  0  0  0.936721  0  0.587326  0  0.91997  0  0.795017  0.913979  0  0.630135  0
K  K1  1  0.79772052  0.05736943  0.52532209  1  0  0.957726  0  0.431149  0  0  0.923712  0  0.612113  0  0  0.936718  0  0.587317  0  0.919972  0  0.795015  0.913977  0  0.630124  0
Cu  Cu2  1  0.34180008  0.33904934  0.77805090  1  0  0.432288  0  1.755215  0  0  0.302339  0  2.20895  0  0  0.306266  0  2.168282  0  0.589337  0  0.481067  0.304095  0  2.234187  0
Cu  Cu3  1  0.65819975  0.66095080  0.22195011  1  0  0.432265  0  1.755249  0  0  0.302316  0  2.208962  0  0  0.306258  0  2.16831  0  0.589365  0  0.481058  0.304075  0  2.234194  0
Cu  Cu4  1  0.36259303  0.57850792  0.88721163  1  0  0.398079  0  1.857078  0  0  0.275907  0  2.325521  0  0  0.284751  0  2.276181  0  0.571402  0  0.462915  0.27285  0  2.356348  0
Cu  Cu5  1  0.63740618  0.42149140  0.11278870  1  0  0.398072  0  1.85707  0  0  0.275896  0  2.325523  0  0  0.284752  0  2.276168  0  0.571409  0  0.462926  0.272839  0  2.356352  0
Cu  Cu6  1  0.35929173  0.46419205  0.13240017  1  0  0.395485  0  1.866305  0  0  0.273928  0  2.335891  0  0  0.282721  0  2.286334  0  0.570981  0  0.461302  0.271511  0  2.366697  0
Cu  Cu7  1  0.64070948  0.53580727  0.86759991  1  0  0.39547  0  1.866331  0  0  0.273916  0  2.335903  0  0  0.282714  0  2.286343  0  0.570981  0  0.461309  0.271501  0  2.366708  0
Cu  Cu8  1  0.33494311  0.22688430  0.02174126  1  0  0.424396  0  1.774006  0  0  0.295434  0  2.229326  0  0  0.299592  0  2.188579  0  0.584001  0  0.47573  0.297032  0  2.255099  0
Cu  Cu9  1  0.66505673  0.77311584  0.97825898  1  0  0.424391  0  1.77399  0  0  0.295443  0  2.229289  0  0  0.299594  0  2.18853  0  0.583995  0  0.475725  0.297043  0  2.255062  0
Cu  Cu10  1  0.00704531  0.67609809  0.05863557  1  0  0.428228  0  1.764062  0  0  0.306291  0  2.205858  0  0  0.312218  0  2.163233  0  0.578841  0  0.470161  0.306323  0  2.231611  0
Cu  Cu11  1  0.99295490  0.32390123  0.94136387  1  0  0.42824  0  1.764039  0  0  0.306314  0  2.205815  0  0  0.31224  0  2.163197  0  0.578842  0  0.470187  0.306347  0  2.23157  0
Cu  Cu12  1  0.00247307  0.55809297  0.82256383  1  0  0.427711  0  1.771898  0  0  0.307347  0  2.213648  0  0  0.312763  0  2.170923  0  0.582737  0  0.471757  0.305329  0  2.242183  0
Cu  Cu13  1  0.99752677  0.44190717  0.17743490  1  0  0.427704  0  1.771915  0  0  0.307336  0  2.213672  0  0  0.312756  0  2.170953  0  0.582712  0  0.471737  0.305318  0  2.242207  0
H  H14  1  0.34886379  0.70886114  0.68896974  1  0  0.122308  0  0.962726  0  0  0.121148  0  1.03999  0  0  0.125324  0  1.034618  0  0.177439  0  0.124989  0.118133  0  1.043989  0
H  H15  1  0.65113604  0.29113900  0.31103127  1  0  0.122332  0  0.96271  0  0  0.121163  0  1.039985  0  0  0.125339  0  1.034614  0  0.177453  0  0.124995  0.118148  0  1.043982  0
H  H16  1  0.33227912  0.40892609  0.55500239  1  0  0.124439  0  0.957422  0  0  0.129715  0  1.026708  0  0  0.132841  0  1.022539  0  0.179301  0  0.125867  0.127418  0  1.029811  0
H  H17  1  0.66772072  0.59107404  0.44499710  1  0  0.124335  0  0.957524  0  0  0.129711  0  1.026666  0  0  0.132839  0  1.022495  0  0.1793  0  0.125863  0.127415  0  1.029767  0
H  H18  1  0.35142528  0.13732260  0.64870875  1  0  0.125927  0  0.955874  0  0  0.124736  0  1.031939  0  0  0.129091  0  1.025987  0  0.186036  0  0.130021  0.121609  0  1.036181  0
H  H19  1  0.64857418  0.86267835  0.35129154  1  0  0.12583  0  0.95603  0  0  0.124743  0  1.031953  0  0  0.129099  0  1.026002  0  0.186034  0  0.130008  0.121615  0  1.036195  0
H  H20  1  0.32731673  0.00385990  0.95360038  1  0  0.12055  0  0.96287  0  0  0.127045  0  1.031716  0  0  0.130466  0  1.026741  0  0.171263  0  0.124132  0.12443  0  1.035637  0
H  H21  1  0.67268348  0.99613942  0.04640059  1  0  0.120504  0  0.96292  0  0  0.127032  0  1.031724  0  0  0.130451  0  1.026753  0  0.171203  0  0.124124  0.124419  0  1.035643  0
H  H22  1  0.33703897  0.09710023  0.21944987  1  0  0.120127  0  0.967006  0  0  0.119096  0  1.046446  0  0  0.12298  0  1.041584  0  0.174873  0  0.122803  0.116184  0  1.050286  0
H  H23  1  0.66296024  0.90289909  0.78055046  1  0  0.120134  0  0.967065  0  0  0.119145  0  1.046417  0  0  0.12303  0  1.041559  0  0.174858  0  0.122818  0.116233  0  1.050257  0
H  H24  1  0.34938732  0.39641631  0.35759286  1  0  0.120631  0  0.961015  0  0  0.12729  0  1.028471  0  0  0.130055  0  1.025086  0  0.178112  0  0.12472  0.125285  0  1.030958  0
H  H25  1  0.65061251  0.60358382  0.64240815  1  0  0.120623  0  0.961065  0  0  0.127339  0  1.02842  0  0  0.130106  0  1.025034  0  0.178106  0  0.124748  0.125335  0  1.030905  0
H  H26  1  0.34689930  0.66581426  0.26107714  1  0  0.127529  0  0.959133  0  0  0.125356  0  1.037523  0  0  0.129908  0  1.030804  0  0.175138  0  0.124873  0.12198  0  1.04262  0
H  H27  1  0.65310053  0.33418587  0.73892235  1  0  0.127544  0  0.959166  0  0  0.1254  0  1.037482  0  0  0.12995  0  1.030764  0  0.175124  0  0.124904  0.122025  0  1.042579  0
H  H28  1  0.34911416  0.80612304  0.95854785  1  0  0.126391  0  0.962245  0  0  0.130021  0  1.032242  0  0  0.133592  0  1.02716  0  0.174016  0  0.124379  0.127313  0  1.036388  0
H  H29  1  0.65088605  0.19387628  0.04145159  1  0  0.126404  0  0.962226  0  0  0.130031  0  1.032219  0  0  0.133604  0  1.027135  0  0.17398  0  0.124385  0.127323  0  1.036366  0
H  H30  1  0.00513254  0.48433835  0.59794548  1  0  0.121566  0  0.935988  0  0  0.12913  0  1.001287  0  0  0.131848  0  0.997627  0  0.152701  0  0.12792  0.127097  0  1.004077  0
H  H31  1  0.99486829  0.51566179  0.40205389  1  0  0.121578  0  0.936022  0  0  0.129144  0  1.001323  0  0  0.131861  0  0.997665  0  0.152708  0  0.127933  0.127113  0  1.004112  0
H  H32  1  0.99699713  0.18719187  0.74656054  1  0  0.125081  0  0.975433  0  0  0.124978  0  1.049309  0  0  0.128994  0  1.044452  0  0.212748  0  0.124917  0.12208  0  1.0529  0
H  H33  1  0.00300271  0.81280826  0.25343895  1  0  0.125082  0  0.975428  0  0  0.124979  0  1.049309  0  0  0.128995  0  1.044452  0  0.212727  0  0.124921  0.122082  0  1.052899  0
H  H34  1  0.00531893  0.90114021  0.98374985  1  0  0.12095  0  0.934505  0  0  0.129302  0  0.998552  0  0  0.13187  0  0.995211  0  0.144667  0  0.128241  0.127367  0  1.00108  0
H  H35  1  0.99468091  0.09885993  0.01625040  1  0  0.120961  0  0.934507  0  0  0.129313  0  0.998553  0  0  0.131882  0  0.995213  0  0.144668  0  0.128238  0.127378  0  1.001082  0
H  H36  1  0.00108231  0.75220769  0.68727260  1  0  0.123859  0  0.972841  0  0  0.124045  0  1.046986  0  0  0.128087  0  1.041888  0  0.20958  0  0.124902  0.121122  0  1.05065  0
H  H37  1  0.99891852  0.24779245  0.31272677  1  0  0.123881  0  0.972828  0  0  0.124051  0  1.046992  0  0  0.128103  0  1.041883  0  0.209584  0  0.124909  0.121128  0  1.050656  0
C  C38  1  0.34748483  0.62775742  0.67301198  1  0  0.031579  0  3.653195  0  0  -0.014389  0  3.923548  0  0  -0.004914  0  3.937417  0  0.500111  0  0.031826  -0.019989  0  3.913692  0
C  C39  1  0.65251638  0.37224190  0.32698810  1  0  0.031494  0  3.653232  0  0  -0.014493  0  3.92361  0  0  -0.005017  0  3.937473  0  0.500078  0  0.031771  -0.020099  0  3.913765  0
C  C40  1  0.33568899  0.57920853  0.58084459  1  0  -0.028652  0  3.772909  0  0  -0.049142  0  4.03872  0  0  -0.062714  0  4.065444  0  0.363669  0  0.058895  -0.040439  0  4.021059  0
C  C41  1  0.66431147  0.42079242  0.41915482  1  0  -0.028677  0  3.772908  0  0  -0.049122  0  4.038699  0  0  -0.062683  0  4.065405  0  0.363683  0  0.058905  -0.040424  0  4.021041  0
C  C42  1  0.33750110  0.47378669  0.60401929  1  0  0.021647  0  3.669226  0  0  -0.031088  0  3.94641  0  0  -0.021294  0  3.960292  0  0.440189  0  0.024237  -0.037123  0  3.936963  0
C  C43  1  0.66249874  0.52621345  0.39598020  1  0  0.021637  0  3.669329  0  0  -0.031083  0  3.946423  0  0  -0.021288  0  3.960301  0  0.440223  0  0.024234  -0.037117  0  3.936977  0
C  C44  1  0.34569635  0.12194504  0.73043730  1  0  0.043083  0  3.634101  0  0  -0.003302  0  3.902707  0  0  0.006819  0  3.915247  0  0.53449  0  0.037944  -0.009322  0  3.893843  0
C  C45  1  0.65430349  0.87805510  0.26956295  1  0  0.043018  0  3.634216  0  0  -0.003382  0  3.902761  0  0  0.00674  0  3.915304  0  0.534479  0  0.037923  -0.009405  0  3.893912  0
C  C46  1  0.33579344  0.02999571  0.78239797  1  0  -0.021736  0  3.765273  0  0  -0.040233  0  4.025897  0  0  -0.053467  0  4.051672  0  0.324933  0  0.064094  -0.031354  0  4.008354  0
C  C47  1  0.66420677  0.97000361  0.21760224  1  0  -0.02167  0  3.765214  0  0  -0.040176  0  4.025879  0  0  -0.05341  0  4.051655  0  0.32495  0  0.064108  -0.031299  0  4.008336  0
C  C48  1  0.33255876  0.05323924  0.88756566  1  0  0.024323  0  3.668256  0  0  -0.022294  0  3.933985  0  0  -0.012042  0  3.946592  0  0.45948  0  0.02845  -0.028845  0  3.925771  0
C  C49  1  0.66744108  0.94676090  0.11243459  1  0  0.02433  0  3.668294  0  0  -0.022321  0  3.93402  0  0  -0.012072  0  3.946639  0  0.459521  0  0.028438  -0.028871  0  3.925806  0
C  C50  1  0.34151144  0.17713669  0.23600302  1  0  0.025254  0  3.66284  0  0  -0.024428  0  3.937746  0  0  -0.015651  0  3.953056  0  0.492229  0  0.026244  -0.029712  0  3.927448  0
C  C51  1  0.65848703  0.82286426  0.76399816  1  0  0.024704  0  3.662723  0  0  -0.024532  0  3.937753  0  0  -0.015763  0  3.953071  0  0.491902  0  0.026213  -0.029816  0  3.927454  0
C  C52  1  0.34122065  0.22808791  0.33046097  1  0  -0.023048  0  3.763374  0  0  -0.042665  0  4.025919  0  0  -0.055476  0  4.051308  0  0.296931  0  0.060608  -0.034238  0  4.008397  0
C  C53  1  0.65877657  0.77191141  0.66954113  1  0  -0.02092  0  3.762471  0  0  -0.042621  0  4.025837  0  0  -0.055428  0  4.051219  0  0.297299  0  0.060631  -0.034192  0  4.008312  0
C  C54  1  0.34790718  0.33122419  0.30720680  1  0  0.027628  0  3.662972  0  0  -0.021787  0  3.93269  0  0  -0.011883  0  3.946428  0  0.519161  0  0.02817  -0.027728  0  3.923116  0
C  C55  1  0.65209066  0.66877595  0.69279445  1  0  0.027146  0  3.662839  0  0  -0.021822  0  3.932655  0  0  -0.011921  0  3.946397  0  0.519172  0  0.028157  -0.027765  0  3.923084  0
C  C56  1  0.35202952  0.68209494  0.17957559  1  0  0.017115  0  3.670266  0  0  -0.028886  0  3.945873  0  0  -0.016489  0  3.95358  0  0.477647  0  0.024443  -0.036937  0  3.940734  0
C  C57  1  0.64797069  0.31790438  0.82042385  1  0  0.017025  0  3.670292  0  0  -0.028984  0  3.945936  0  0  -0.016582  0  3.953637  0  0.47764  0  0.024401  -0.037035  0  3.940797  0
C  C58  1  0.34344281  0.77900164  0.12963774  1  0  -0.038145  0  3.77961  0  0  -0.047421  0  4.050005  0  0  -0.059516  0  4.070985  0  0.315895  0  0.059083  -0.040025  0  4.036482  0
C  C59  1  0.65655703  0.22099849  0.87036174  1  0  -0.038097  0  3.77961  0  0  -0.047381  0  4.050016  0  0  -0.059473  0  4.070993  0  0.315882  0  0.059077  -0.039984  0  4.036493  0
C  C60  1  0.35270117  0.75466310  0.02378169  1  0  0.011013  0  3.683377  0  0  -0.037652  0  3.960485  0  0  -0.024884  0  3.967785  0  0.485836  0  0.021728  -0.04604  0  3.955597  0
C  C61  1  0.64730004  0.24533622  0.97621763  1  0  0.011048  0  3.683325  0  0  -0.037605  0  3.960426  0  0  -0.024842  0  3.967735  0  0.485874  0  0.021748  -0.045991  0  3.955538  0
C  C62  1  0.00302972  0.42064870  0.65059653  1  0  0.032032  0  3.660653  0  0  -0.015829  0  3.929697  0  0  -0.005426  0  3.941941  0  0.514995  0  0.031752  -0.022609  0  3.921791  0
C  C63  1  0.99697049  0.57935062  0.34940368  1  0  0.031945  0  3.660699  0  0  -0.015926  0  3.929744  0  0  -0.005523  0  3.941987  0  0.514965  0  0.031702  -0.022705  0  3.921837  0
C  C64  1  0.00310165  0.31487655  0.63129598  1  0  -0.025882  0  3.760124  0  0  -0.037354  0  4.029072  0  0  -0.05026  0  4.054318  0  0.31412  0  0.064463  -0.029053  0  4.012297  0
C  C65  1  0.99689918  0.68512358  0.36870338  1  0  -0.025759  0  3.760189  0  0  -0.037184  0  4.029044  0  0  -0.050088  0  4.054289  0  0.31415  0  0.064572  -0.028884  0  4.012268  0
C  C66  1  0.99848382  0.26776564  0.72755376  1  0  0.03296  0  3.645789  0  0  -0.010924  0  3.910531  0  0  -0.002252  0  3.925236  0  0.474772  0  0.031887  -0.016255  0  3.900528  0
C  C67  1  0.00151639  0.73223368  0.27244568  1  0  0.032973  0  3.645743  0  0  -0.01091  0  3.910472  0  0  -0.002236  0  3.925171  0  0.474797  0  0.031895  -0.01624  0  3.900467  0
C  C68  1  0.00456937  0.84834600  0.92029676  1  0  0.033068  0  3.659857  0  0  -0.014602  0  3.927074  0  0  -0.004356  0  3.939733  0  0.504771  0  0.032125  -0.021143  0  3.918788  0
C  C69  1  0.99543047  0.15165414  0.07970272  1  0  0.032993  0  3.659909  0  0  -0.014672  0  3.927152  0  0  -0.004427  0  3.939812  0  0.504774  0  0.032113  -0.021214  0  3.918863  0
C  C70  1  0.00280122  0.86749691  0.81494910  1  0  -0.024226  0  3.761791  0  0  -0.034703  0  4.0291  0  0  -0.047541  0  4.054035  0  0.343858  0  0.064929  -0.026612  0  4.01299  0
C  C71  1  0.99719899  0.13250241  0.18505111  1  0  -0.024217  0  3.761742  0  0  -0.034747  0  4.029122  0  0  -0.047588  0  4.054062  0  0.343908  0  0.064907  -0.026653  0  4.013007  0
C  C72  1  0.00293521  0.77114547  0.76757271  1  0  0.033574  0  3.648994  0  0  -0.011074  0  3.914177  0  0  -0.001911  0  3.927861  0  0.464859  0  0.032511  -0.016737  0  3.905128  0
C  C73  1  0.99706500  0.22885385  0.23242673  1  0  0.033585  0  3.648892  0  0  -0.011049  0  3.914118  0  0  -0.001894  0  3.927796  0  0.464825  0  0.032521  -0.016713  0  3.905066  0
I  I74  1  0.20741234  0.44472432  0.97376325  1  0  -0.501855  0  2.029945  0  0  -0.42823  0  2.625023  0  0  -0.421576  0  2.534375  0  -0.442162  0  -0.153059  -0.434977  0  2.686406  0
I  I75  1  0.79258849  0.55527582  0.02623612  1  0  -0.501858  0  2.02992  0  0  -0.42824  0  2.625014  0  0  -0.421581  0  2.534344  0  -0.444225  0  -0.153074  -0.434987  0  2.686393  0
N  N76  1  0.34968238  0.46048974  0.70358218  1  0  -0.215897  0  3.373189  0  0  -0.143272  0  3.683412  0  0  -0.153457  0  3.691921  0  -0.762259  0  -0.312574  -0.137503  0  3.678113  0
N  N77  1  0.65031846  0.53951040  0.29641719  1  0  -0.215953  0  3.373153  0  0  -0.143328  0  3.683389  0  0  -0.153522  0  3.691917  0  -0.762254  0  -0.312609  -0.137562  0  3.678088  0
N  N78  1  0.35569113  0.55571432  0.74623583  1  0  -0.208796  0  3.360498  0  0  -0.13591  0  3.661468  0  0  -0.147697  0  3.671077  0  -0.78216  0  -0.309795  -0.129127  0  3.655677  0
N  N79  1  0.64431008  0.44428500  0.25376349  1  0  -0.208693  0  3.360381  0  0  -0.135808  0  3.661339  0  0  -0.147598  0  3.670955  0  -0.782154  0  -0.309744  -0.129018  0  3.655539  0
N  N80  1  0.32642296  0.62614144  0.48470218  1  0  0.494664  0  4.014255  0  0  0.554562  0  4.258424  0  0  0.577442  0  4.269359  0  0.251595  0  0.040869  0.53908  0  4.251264  0
N  N81  1  0.67357713  0.37386033  0.51529956  1  0  0.494687  0  4.014126  0  0  0.554526  0  4.258386  0  0  0.577406  0  4.269322  0  0.251657  0  0.04081  0.539048  0  4.251222  0
N  N82  1  0.36380357  0.65024073  0.01166217  1  0  -0.216118  0  3.390551  0  0  -0.142135  0  3.693347  0  0  -0.152692  0  3.69885  0  -0.760081  0  -0.315895  -0.135932  0  3.688805  0
N  N83  1  0.63619627  0.34975941  0.98833732  1  0  -0.21617  0  3.390559  0  0  -0.142194  0  3.693371  0  0  -0.152755  0  3.698879  0  -0.760063  0  -0.315902  -0.135993  0  3.688833  0
N  N84  1  0.36344115  0.60544314  0.10779639  1  0  -0.213417  0  3.380866  0  0  -0.139114  0  3.680652  0  0  -0.150158  0  3.687042  0  -0.77775  0  -0.315014  -0.13284  0  3.675545  0
N  N85  1  0.63655831  0.39455781  0.89220391  1  0  -0.213364  0  3.380824  0  0  -0.139062  0  3.680611  0  0  -0.150106  0  3.687002  0  -0.777752  0  -0.315015  -0.132787  0  3.675504  0
N  N86  1  0.32617634  0.88008508  0.17655149  1  0  0.532127  0  3.954441  0  0  0.559015  0  4.247772  0  0  0.582842  0  4.25772  0  0.255373  0  0.037986  0.542988  0  4.241361  0
N  N87  1  0.67382350  0.11991506  0.82344876  1  0  0.532016  0  3.954462  0  0  0.558903  0  4.247805  0  0  0.582729  0  4.257754  0  0.255269  0  0.037917  0.542875  0  4.241396  0
N  N88  1  0.35228279  0.34108830  0.20545445  1  0  -0.215388  0  3.378931  0  0  -0.142595  0  3.683872  0  0  -0.153789  0  3.692168  0  -0.785518  0  -0.312365  -0.136211  0  3.679004  0
N  N89  1  0.64771705  0.65891184  0.79454579  1  0  -0.215532  0  3.379117  0  0  -0.142627  0  3.683865  0  0  -0.153822  0  3.692162  0  -0.785547  0  -0.312384  -0.136244  0  3.679001  0
N  N90  1  0.34828746  0.24583596  0.16134743  1  0  -0.21628  0  3.369975  0  0  -0.142579  0  3.67577  0  0  -0.153853  0  3.686447  0  -0.766343  0  -0.313765  -0.136156  0  3.66913  0
N  N91  1  0.65171238  0.75416418  0.83865205  1  0  -0.216324  0  3.370124  0  0  -0.142542  0  3.675742  0  0  -0.153813  0  3.686414  0  -0.766353  0  -0.313751  -0.136118  0  3.669101  0
N  N92  1  0.33806869  0.18386437  0.42810873  1  0  0.503577  0  4.011176  0  0  0.562713  0  4.256111  0  0  0.586058  0  4.265965  0  0.264885  0  0.044546  0.547087  0  4.249372  0
N  N93  1  0.66192953  0.81613495  0.57189172  1  0  0.498987  0  4.012379  0  0  0.562772  0  4.255914  0  0  0.586121  0  4.265764  0  0.264904  0  0.044591  0.547144  0  4.249175  0
N  N94  1  0.33916924  0.15283571  0.89773990  1  0  -0.223767  0  3.392269  0  0  -0.151416  0  3.700887  0  0  -0.162054  0  3.710044  0  -0.765073  0  -0.316443  -0.145511  0  3.695813  0
N  N95  1  0.66083159  0.84716443  0.10226023  1  0  -0.22377  0  3.39228  0  0  -0.151414  0  3.700894  0  0  -0.16205  0  3.71004  0  -0.765055  0  -0.31644  -0.145509  0  3.69582  0
N  N96  1  0.34687507  0.19556249  0.80052580  1  0  -0.216929  0  3.362796  0  0  -0.146292  0  3.670649  0  0  -0.157903  0  3.68144  0  -0.779691  0  -0.313025  -0.139754  0  3.663991  0
N  N97  1  0.65312514  0.80443684  0.19947441  1  0  -0.216907  0  3.362774  0  0  -0.146231  0  3.670593  0  0  -0.157848  0  3.681396  0  -0.779704  0  -0.312992  -0.139696  0  3.663932  0
N  N98  1  0.32963530  0.93438503  0.73853027  1  0  0.491448  0  4.018143  0  0  0.549646  0  4.265617  0  0  0.572475  0  4.277116  0  0.233307  0  0.03888  0.534141  0  4.258  0
N  N99  1  0.67036454  0.06561510  0.26146998  1  0  0.491447  0  4.018049  0  0  0.549633  0  4.265562  0  0  0.572463  0  4.277062  0  0.233364  0  0.038875  0.534131  0  4.257945  0
N  N100  1  0.00583825  0.74685429  0.93453846  1  0  -0.225547  0  3.411054  0  0  -0.153157  0  3.723052  0  0  -0.162316  0  3.728403  0  -0.781864  0  -0.318526  -0.148304  0  3.719989  0
N  N101  1  0.99416159  0.25314585  0.06546103  1  0  -0.225498  0  3.41106  0  0  -0.153094  0  3.723036  0  0  -0.162254  0  3.728391  0  -0.781884  0  -0.318529  -0.148241  0  3.719972  0
N  N102  1  0.00454087  0.69932937  0.84024424  1  0  -0.213316  0  3.390197  0  0  -0.143107  0  3.698029  0  0  -0.153309  0  3.705567  0  -0.760076  0  -0.318333  -0.136979  0  3.693445  0
N  N103  1  0.99545896  0.30067077  0.15975525  1  0  -0.213348  0  3.390128  0  0  -0.143146  0  3.697973  0  0  -0.153352  0  3.705518  0  -0.760066  0  -0.318331  -0.137019  0  3.693388  0
N  N104  1  0.99600807  0.34092417  0.79948189  1  0  -0.214432  0  3.386655  0  0  -0.142317  0  3.693558  0  0  -0.153033  0  3.701791  0  -0.774592  0  -0.317145  -0.136161  0  3.687771  0
N  N105  1  0.00399214  0.65907515  0.20051755  1  0  -0.214492  0  3.386706  0  0  -0.14237  0  3.693606  0  0  -0.153086  0  3.701839  0  -0.7746  0  -0.31716  -0.136213  0  3.687817  0
N  N106  1  0.99898274  0.43527747  0.75195451  1  0  -0.224592  0  3.41327  0  0  -0.153516  0  3.726175  0  0  -0.162393  0  3.731106  0  -0.764955  0  -0.31852  -0.148399  0  3.723671  0
N  N107  1  0.00101710  0.56472267  0.24804498  1  0  -0.224556  0  3.413273  0  0  -0.153474  0  3.726174  0  0  -0.162353  0  3.731112  0  -0.764945  0  -0.318505  -0.148356  0  3.723668  0
N  N108  1  0.00539032  0.26611699  0.53580604  1  0  0.533877  0  3.949276  0  0  0.561395  0  4.244532  0  0  0.584818  0  4.254427  0  0.253038  0  0.042519  0.545597  0  4.237955  0
N  N109  1  0.99460989  0.73388233  0.46419340  1  0  0.533793  0  3.949468  0  0  0.561317  0  4.24469  0  0  0.584742  0  4.254584  0  0.253343  0  0.042437  0.54552  0  4.238112  0
N  N110  1  0.00196991  0.96284723  0.76615308  1  0  0.53334  0  3.950667  0  0  0.559965  0  4.246043  0  0  0.583511  0  4.255799  0  0.257673  0  0.041276  0.544082  0  4.239752  0
N  N111  1  0.99803030  0.03715209  0.23384712  1  0  0.533337  0  3.950704  0  0  0.559974  0  4.246079  0  0  0.58352  0  4.255835  0  0.257672  0  0.041288  0.544092  0  4.239786  0
O  O112  1  0.31669335  0.57126335  0.40963621  1  0  -0.399061  0  1.767102  0  0  -0.375376  0  1.964874  0  0  -0.389567  0  1.963015  0  -0.509112  0  -0.146282  -0.36659  0  1.966723  0
O  O113  1  0.68330524  0.42874168  0.59036419  1  0  -0.399024  0  1.766967  0  0  -0.375364  0  1.964801  0  0  -0.38956  0  1.962945  0  -0.509236  0  -0.146258  -0.366582  0  1.966649  0
O  O114  1  0.32949800  0.72080667  0.47724669  1  0  -0.43023  0  1.76154  0  0  -0.425522  0  1.969283  0  0  -0.437425  0  1.963064  0  -0.514547  0  -0.213431  -0.417872  0  1.973993  0
O  O115  1  0.67050507  0.27919510  0.52275697  1  0  -0.43017  0  1.761533  0  0  -0.425442  0  1.969284  0  0  -0.437345  0  1.963066  0  -0.514467  0  -0.213366  -0.417792  0  1.973994  0
O  O116  1  0.32037315  0.95896283  0.12055569  1  0  -0.410464  0  1.751043  0  0  -0.379494  0  1.967671  0  0  -0.392449  0  1.963363  0  -0.514027  0  -0.147189  -0.371549  0  1.971363  0
O  O117  1  0.67962768  0.04103730  0.87944368  1  0  -0.410422  0  1.751081  0  0  -0.379453  0  1.96771  0  0  -0.392407  0  1.963403  0  -0.51401  0  -0.147161  -0.371512  0  1.971404  0
O  O118  1  0.31829915  0.88736394  0.27261710  1  0  -0.437629  0  1.764703  0  0  -0.427646  0  1.996643  0  0  -0.439044  0  1.990145  0  -0.518247  0  -0.217194  -0.420245  0  2.001486  0
O  O119  1  0.68170106  0.11263538  0.72738234  1  0  -0.437606  0  1.764694  0  0  -0.427609  0  1.996599  0  0  -0.439007  0  1.990101  0  -0.518159  0  -0.217159  -0.420208  0  2.001444  0
O  O120  1  0.33869411  0.24066057  0.50486774  1  0  -0.396335  0  1.749912  0  0  -0.376064  0  1.942157  0  0  -0.38959  0  1.937557  0  -0.502352  0  -0.141616  -0.367555  0  1.945698  0
O  O121  1  0.66130548  0.75933794  0.49513254  1  0  -0.39408  0  1.749811  0  0  -0.37609  0  1.942141  0  0  -0.389632  0  1.937557  0  -0.502374  0  -0.141633  -0.36758  0  1.945686  0
O  O122  1  0.33516871  0.08917546  0.43450695  1  0  -0.429339  0  1.764795  0  0  -0.426462  0  1.971104  0  0  -0.438941  0  1.965087  0  -0.517413  0  -0.216688  -0.418069  0  1.97541  0
O  O123  1  0.66483013  0.91082468  0.56549418  1  0  -0.427127  0  1.76471  0  0  -0.426486  0  1.971008  0  0  -0.438965  0  1.964989  0  -0.517401  0  -0.216706  -0.418094  0  1.975313  0
O  O124  1  0.31877129  0.86040830  0.79675617  1  0  -0.402114  0  1.775371  0  0  -0.375183  0  1.974665  0  0  -0.38998  0  1.973214  0  -0.515211  0  -0.14498  -0.366052  0  1.976483  0
O  O125  1  0.68122892  0.13959102  0.20324251  1  0  -0.402111  0  1.775326  0  0  -0.375183  0  1.974619  0  0  -0.389979  0  1.973166  0  -0.515259  0  -0.144972  -0.366052  0  1.976437  0
O  O126  1  0.33603484  0.92584784  0.64257956  1  0  -0.43121  0  1.775889  0  0  -0.429555  0  1.988852  0  0  -0.442589  0  1.98429  0  -0.499371  0  -0.215206  -0.420909  0  1.992174  0
O  O127  1  0.66396463  0.07415311  0.35741997  1  0  -0.431199  0  1.775921  0  0  -0.429538  0  1.98885  0  0  -0.442573  0  1.984289  0  -0.49936  0  -0.2152  -0.420884  0  1.992151  0
O  O128  1  0.00486053  0.17025549  0.53292048  1  0  -0.471296  0  1.766555  0  0  -0.460958  0  1.998076  0  0  -0.473589  0  1.992075  0  -0.531897  0  -0.212209  -0.452483  0  2.002367  0
O  O129  1  0.99514068  0.82974383  0.46707884  1  0  -0.471338  0  1.766623  0  0  -0.460957  0  1.998068  0  0  -0.473589  0  1.992067  0  -0.531878  0  -0.212208  -0.452482  0  2.00236  0
O  O130  1  0.00756868  0.32034836  0.45687788  1  0  -0.410216  0  1.736781  0  0  -0.379499  0  1.947788  0  0  -0.393053  0  1.944618  0  -0.508646  0  -0.147072  -0.370932  0  1.950284  0
O  O131  1  0.99243153  0.67965096  0.54312156  1  0  -0.410222  0  1.736871  0  0  -0.379496  0  1.947873  0  0  -0.393044  0  1.944689  0  -0.508957  0  -0.14705  -0.37093  0  1.950371  0
O  O132  1  0.99871234  0.04300196  0.82045204  1  0  -0.410495  0  1.742293  0  0  -0.377688  0  1.952836  0  0  -0.391781  0  1.950133  0  -0.505252  0  -0.146538  -0.368824  0  1.955197  0
O  O133  1  0.00128850  0.95699818  0.17954732  1  0  -0.410452  0  1.742316  0  0  -0.377644  0  1.952859  0  0  -0.391738  0  1.950156  0  -0.505258  0  -0.146523  -0.368792  0  1.955229  0
O  O134  1  0.00465032  0.96437503  0.67013199  1  0  -0.469489  0  1.76938  0  0  -0.459279  0  2.002147  0  0  -0.471766  0  1.995919  0  -0.537377  0  -0.212334  -0.451037  0  2.006786  0
O  O135  1  0.99534951  0.03562511  0.32986826  1  0  -0.469491  0  1.769375  0  0  -0.459287  0  2.002147  0  0  -0.47177  0  1.995919  0  -0.537378  0  -0.212339  -0.451043  0  2.006785  0
