# generated using pymatgen
data_Zn2H24C38N2O8F3
_symmetry_space_group_name_H-M   'P 1'
_cell_length_a   10.96374408
_cell_length_b   14.01980176
_cell_length_c   26.37878400
_cell_angle_alpha   92.60464539
_cell_angle_beta   89.63263165
_cell_angle_gamma   90.64346723
_symmetry_Int_Tables_number   1
_chemical_formula_structural   Zn2H24C38N2O8F3
_chemical_formula_sum   'Zn4 H48 C76 N4 O16 F6'
_cell_volume   4050.15514654
_cell_formula_units_Z   2
loop_
 _symmetry_equiv_pos_site_id
 _symmetry_equiv_pos_as_xyz
  1  'x, y, z'
loop_
 _atom_site_type_symbol
 _atom_site_label
 _atom_site_symmetry_multiplicity
 _atom_site_fract_x
 _atom_site_fract_y
 _atom_site_fract_z
 _atom_site_occupancy
 _atom_site_pbe_bader_charge
 _atom_site_pbe_bader_spin_density
 _atom_site_pbe_cm5_charge
 _atom_site_pbe_ddec_charge
 _atom_site_pbe_ddec_spin_density
 _atom_site_pbe_ddec_sum_bond_order
 _atom_site_pbe_magmom
Zn  Zn0  1  0.50174874  0.38200380  0.49778053  1  1.302622  0  0.664675  0.831901  0  2.417343  0
Zn  Zn1  1  0.50343706  0.58001652  0.50658104  1  1.296343  0  0.667592  0.833529  0  2.422212  0
Zn  Zn2  1  0.49736629  0.61332540  0.09053366  1  1.302961  0  0.663857  0.832828  0  2.406581  0
Zn  Zn3  1  0.49370338  0.41477126  0.08056922  1  1.305571  0  0.668817  0.832043  0  2.424538  0
H  H4  1  0.66298527  0.04201824  0.45205648  1  0.131144  0  0.123641  0.152939  0  0.977845  0
H  H5  1  0.42921198  0.92539556  0.58109825  1  0.129738  0  0.124116  0.153907  0  0.976961  0
H  H6  1  0.56981959  0.72310451  0.43539540  1  0.16863  0  0.1369  0.118872  0  0.967043  0
H  H7  1  0.57281313  0.90051469  0.42733974  1  0.097008  0  0.118532  0.128692  0  0.985913  0
H  H8  1  0.35144614  0.23544936  0.54240691  1  0.159064  0  0.138309  0.118561  0  0.960289  0
H  H9  1  0.34154913  0.05771826  0.54899370  1  0.101708  0  0.118263  0.127938  0  0.986035  0
H  H10  1  0.66376618  0.40633741  0.19115179  1  0.080166  0  0.096032  0.110046  0  1.05441  0
H  H11  1  0.68002342  0.38537867  0.37822528  1  0.067817  0  0.096517  0.112573  0  1.041949  0
H  H12  1  0.34106285  0.58932401  0.34854031  1  0.081906  0  0.102289  0.107319  0  0.997201  0
H  H13  1  0.33222927  0.59866053  0.25409914  1  0.038867  0  0.102454  0.106754  0  0.991255  0
H  H14  1  0.51819259  0.33884170  0.76085703  1  0.076317  0  0.107096  0.126481  0  1.010077  0
H  H15  1  0.52705610  0.66005394  0.82761334  1  0.081752  0  0.107195  0.127024  0  1.008945  0
H  H16  1  0.51796678  0.37058139  0.92780666  1  0.108817  0  0.102943  0.106895  0  1.019068  0
H  H17  1  0.51242575  0.35180342  0.83465754  1  0.05186  0  0.100423  0.102021  0  1.016718  0
H  H18  1  0.51648736  0.62774172  0.66029699  1  0.078242  0  0.102841  0.107722  0  1.016745  0
H  H19  1  0.51442163  0.64711289  0.75353137  1  0.067759  0  0.099992  0.101268  0  1.016855  0
H  H20  1  0.76882157  0.60809865  0.57525937  1  0.115495  0  0.096117  0.11331  0  1.042688  0
H  H21  1  0.21868941  0.59325929  0.59230408  1  0.051134  0  0.095698  0.112519  0  1.038181  0
H  H22  1  0.12085198  0.37315452  0.45306815  1  0.064112  0  0.102215  0.108941  0  0.999164  0
H  H23  1  0.89289102  0.37723269  0.44698643  1  0.039309  0  0.098013  0.099558  0  1.024146  0
H  H24  1  0.64840173  0.95695181  0.13979195  1  0.107319  0  0.123614  0.153005  0  0.977492  0
H  H25  1  0.43934809  0.06814450  0.00489417  1  0.118545  0  0.123873  0.153233  0  0.977336  0
H  H26  1  0.54219917  0.27317444  0.15538563  1  0.169208  0  0.133485  0.112303  0  0.991108  0
H  H27  1  0.54850289  0.09595447  0.16287407  1  0.073774  0  0.118822  0.129418  0  0.985036  0
H  H28  1  0.35828079  0.75593409  0.03998148  1  0.168308  0  0.13787  0.118632  0  0.960007  0
H  H29  1  0.34657592  0.93350140  0.03401226  1  0.095172  0  0.118281  0.128385  0  0.986038  0
H  H30  1  0.75782192  0.37939913  0.01530247  1  0.055112  0  0.095779  0.113846  0  1.046279  0
H  H31  1  0.20725621  0.39685196  0.99364913  1  0.115267  0  0.096169  0.112674  0  1.036234  0
H  H32  1  0.11798213  0.61772667  0.13308884  1  0.080364  0  0.10188  0.107829  0  0.999506  0
H  H33  1  0.88994424  0.61366378  0.14128238  1  0.076257  0  0.103346  0.109497  0  0.991345  0
H  H34  1  0.85778712  0.22600014  0.22500684  1  0.037966  0  0.084286  0.110164  0  1.009983  0
H  H35  1  0.83647897  0.31495680  0.17966161  1  0.076414  0  0.092856  0.133876  0  0.998982  0
H  H36  1  0.94599410  0.33197562  0.22874148  1  0.049879  0  0.094391  0.129381  0  0.987886  0
H  H37  1  0.95477923  0.32467025  0.32376403  1  0.030162  0  0.093739  0.127926  0  0.989815  0
H  H38  1  0.85258798  0.29174681  0.37278719  1  0.041835  0  0.088019  0.122351  0  1.023087  0
H  H39  1  0.86971538  0.21729491  0.31686543  1  -0.00301  0  0.086382  0.114964  0  1.005545  0
H  H40  1  0.87848677  0.79529786  0.65341322  1  0.012753  0  0.086589  0.114654  0  1.004239  0
H  H41  1  0.75264777  0.71500580  0.64393993  1  0.030972  0  0.089435  0.12579  0  1.005014  0
H  H42  1  0.85940711  0.69801725  0.69308347  1  0.022344  0  0.089997  0.121367  0  0.998689  0
H  H43  1  0.08228409  0.68740639  0.70244868  1  0.009324  0  0.090876  0.122995  0  0.995182  0
H  H44  1  0.21596902  0.69473518  0.66415361  1  0.049205  0  0.088383  0.123964  0  1.008657  0
H  H45  1  0.10333084  0.78526731  0.66344157  1  0.020806  0  0.085981  0.113848  0  1.004862  0
H  H46  1  0.86334393  0.19184087  0.93634464  1  0.018379  0  0.086771  0.115082  0  1.005217  0
H  H47  1  0.73800043  0.26981490  0.94807761  1  0.051794  0  0.088724  0.124092  0  1.007107  0
H  H48  1  0.84126290  0.28908663  0.89723535  1  0.028386  0  0.090495  0.122122  0  0.997554  0
H  H49  1  0.06484044  0.30083324  0.88509544  1  0.031261  0  0.090607  0.12234  0  0.995966  0
H  H50  1  0.20038068  0.29551416  0.92153918  1  0.021732  0  0.088978  0.123808  0  1.00613  0
H  H51  1  0.08726405  0.20359695  0.92403083  1  0.042999  0  0.086436  0.114402  0  1.004723  0
C  C52  1  0.51740203  0.47135240  0.60064649  1  1.604875  0  0.213411  0.611234  0  4.169223  0
C  C53  1  0.26651260  0.47665915  0.51156384  1  1.512993  0  0.217239  0.605488  0  4.148653  0
C  C54  1  0.48992478  0.48985619  0.40360688  1  1.54189  0  0.217889  0.608089  0  4.153235  0
C  C55  1  0.73859191  0.48763622  0.49977756  1  1.576121  0  0.217913  0.608822  0  4.160682  0
C  C56  1  0.52190312  0.52646910  0.98763557  1  1.529985  0  0.214197  0.610842  0  4.169802  0
C  C57  1  0.25987220  0.51397248  0.07372013  1  1.506318  0  0.217399  0.604432  0  4.149704  0
C  C58  1  0.47534068  0.51100443  0.18404685  1  1.570523  0  0.21893  0.609927  0  4.154907  0
C  C59  1  0.73151325  0.50277406  0.09017804  1  1.56758  0  0.219445  0.606978  0  4.154424  0
C  C60  1  0.58482245  0.17887523  0.47078063  1  1.075014  0  0.252057  0.458334  0  4.056393  0
C  C61  1  0.59019828  0.08012710  0.47224908  1  0.074071  0  -0.083285  -0.297502  0  3.926332  0
C  C62  1  0.46244971  0.78601590  0.54705632  1  1.089136  0  0.250627  0.454777  0  4.061329  0
C  C63  1  0.46030801  0.88508569  0.54732658  1  0.062855  0  -0.083232  -0.297556  0  3.926064  0
C  C64  1  0.54107542  0.77191870  0.46641760  1  0.479323  0  0.072725  0.142798  0  3.88316  0
C  C65  1  0.54255065  0.87016802  0.46259837  1  -0.042096  0  -0.079933  -0.192549  0  3.94112  0
C  C66  1  0.41737397  0.18852949  0.52319612  1  0.469709  0  0.073955  0.144555  0  3.884681  0
C  C67  1  0.41379897  0.09021819  0.52690454  1  0.000468  0  -0.080127  -0.192491  0  3.939838  0
C  C68  1  0.50186394  0.03393151  0.50108937  1  0.027191  0  0.019707  0.134743  0  3.991165  0
C  C69  1  0.50169377  0.92896878  0.50373583  1  -0.045321  0  0.020644  0.135882  0  3.989754  0
C  C70  1  0.48224989  0.50413134  0.24051350  1  -0.008944  0  -0.011643  -0.058897  0  3.936718  0
C  C71  1  0.57458470  0.44805573  0.26225746  1  -0.039284  0  -0.006983  0.057424  0  3.98582  0
C  C72  1  0.40076286  0.55478333  0.27131996  1  0.009287  0  -0.095726  -0.115171  0  4.031155  0
C  C73  1  0.66571433  0.40092031  0.23223903  1  -0.025539  0  -0.105087  -0.21481  0  3.973335  0
C  C74  1  0.75867557  0.35042589  0.25333601  1  0.005301  0  -0.017012  0.10783  0  3.977742  0
C  C75  1  0.49177188  0.49389364  0.34696309  1  0.031669  0  -0.015273  -0.072194  0  3.936813  0
C  C76  1  0.40575054  0.54967506  0.32439444  1  -0.064182  0  -0.093586  -0.108736  0  4.03107  0
C  C77  1  0.57961378  0.44257954  0.31642127  1  -0.058317  0  -0.005801  0.062235  0  3.976532  0
C  C78  1  0.67585234  0.39000797  0.33719032  1  0.008794  0  -0.100687  -0.201877  0  3.960669  0
C  C79  1  0.76378809  0.34492734  0.30729650  1  -0.048307  0  -0.016714  0.10762  0  3.972751  0
C  C80  1  0.51674959  0.47557505  0.65753773  1  0.088732  0  -0.022937  -0.140041  0  3.945342  0
C  C81  1  0.52346487  0.52273526  0.93078634  1  0.060619  0  -0.023706  -0.140752  0  3.945035  0
C  C82  1  0.51620565  0.39627747  0.68795971  1  0.466484  0  0.105328  0.290511  0  4.041097  0
C  C83  1  0.51691705  0.40470117  0.74058389  1  -0.030651  0  -0.102513  -0.264747  0  3.975728  0
C  C84  1  0.52575644  0.60225115  0.90048695  1  0.379623  0  0.105321  0.290238  0  4.039729  0
C  C85  1  0.52396879  0.59415471  0.84785506  1  0.072495  0  -0.103086  -0.266289  0  3.973835  0
C  C86  1  0.51947655  0.43310142  0.90476239  1  0.012073  0  -0.080844  -0.062681  0  3.998464  0
C  C87  1  0.51660427  0.42344722  0.85225961  1  -0.036039  0  -0.098894  -0.153683  0  3.999263  0
C  C88  1  0.51630797  0.56536551  0.68345775  1  -0.105895  0  -0.081258  -0.06521  0  3.999716  0
C  C89  1  0.51561571  0.57536319  0.73598560  1  -0.027856  0  -0.098385  -0.152156  0  3.998285  0
C  C90  1  0.51684268  0.49487687  0.76610024  1  0.003567  0  -0.001462  0.09923  0  3.996757  0
C  C91  1  0.51883753  0.50407719  0.82224784  1  0.001904  0  -0.000852  0.101281  0  3.995399  0
C  C92  1  0.87434355  0.48669053  0.50558522  1  -0.024529  0  -0.008576  -0.052953  0  3.930423  0
C  C93  1  0.93386599  0.54589954  0.54348335  1  0.049082  0  -0.005284  0.057707  0  3.982151  0
C  C94  1  0.94070729  0.42389098  0.47460249  1  0.009787  0  -0.095726  -0.113785  0  4.028586  0
C  C95  1  0.86774369  0.60538997  0.57862052  1  -0.106069  0  -0.100864  -0.200906  0  3.959503  0
C  C96  1  0.92429585  0.65834062  0.61730218  1  -0.051825  0  -0.016692  0.107778  0  3.972873  0
C  C97  1  0.13029603  0.47961740  0.51338048  1  0.007766  0  -0.016503  -0.078188  0  3.937932  0
C  C98  1  0.06822961  0.42096230  0.47827136  1  -0.034907  0  -0.091968  -0.102561  0  4.023897  0
C  C99  1  0.06421756  0.54174813  0.54799532  1  -0.00218  0  -0.004108  0.065025  0  3.975572  0
C  C100  1  0.12007752  0.59647418  0.58830049  1  -0.024038  0  -0.102417  -0.205539  0  3.967648  0
C  C101  1  0.05380635  0.65306873  0.62250629  1  0.010031  0  -0.017151  0.107222  0  3.972493  0
C  C102  1  0.57667575  0.81797710  0.11819757  1  1.106048  0  0.251076  0.457508  0  4.062046  0
C  C103  1  0.58034695  0.91701725  0.11746354  1  0.104988  0  -0.083637  -0.296965  0  3.925597  0
C  C104  1  0.46080852  0.20814110  0.04034695  1  1.107586  0  0.249889  0.454316  0  4.06054  0
C  C105  1  0.46172824  0.10908766  0.03968286  1  -0.000332  0  -0.083848  -0.297714  0  3.927537  0
C  C106  1  0.52134971  0.22396416  0.12331378  1  0.463713  0  0.072958  0.146203  0  3.873299  0
C  C107  1  0.52493296  0.12570764  0.12685979  1  -0.026295  0  -0.078864  -0.19138  0  3.934228  0
C  C108  1  0.41942481  0.80443260  0.06130006  1  0.49193  0  0.073547  0.145627  0  3.887654  0
C  C109  1  0.41489790  0.90269712  0.05795977  1  -0.042373  0  -0.080849  -0.194814  0  3.94145  0
C  C110  1  0.49670759  0.96108116  0.08653271  1  -0.004658  0  0.019399  0.13444  0  3.992121  0
C  C111  1  0.49474237  0.06609428  0.08434984  1  0.020576  0  0.021021  0.136564  0  3.986241  0
C  C112  1  0.86722293  0.50345309  0.08325223  1  -0.015177  0  -0.008923  -0.05592  0  3.928484  0
C  C113  1  0.92455137  0.44345820  0.04512474  1  -0.053  0  -0.005248  0.057791  0  3.979732  0
C  C114  1  0.93600139  0.56668507  0.11340844  1  -0.056216  0  -0.092982  -0.111307  0  4.026086  0
C  C115  1  0.85664019  0.38273291  0.01097098  1  -0.015165  0  -0.102069  -0.203925  0  3.962048  0
C  C116  1  0.91115907  0.32945738  0.97197568  1  -0.047489  0  -0.016917  0.108257  0  3.97135  0
C  C117  1  0.12340500  0.51075510  0.07300411  1  0.090806  0  -0.015472  -0.074491  0  3.932504  0
C  C118  1  0.06351334  0.56961115  0.10852103  1  -0.008259  0  -0.091773  -0.103755  0  4.026537  0
C  C119  1  0.05493465  0.44799786  0.03929481  1  -0.021882  0  -0.00438  0.063201  0  3.976253  0
C  C120  1  0.10867957  0.39302934  0.99864562  1  -0.094001  0  -0.102528  -0.206129  0  3.970228  0
C  C121  1  0.04052157  0.33563604  0.96527245  1  0.013927  0  -0.016338  0.108433  0  3.971165  0
C  C122  1  0.85423164  0.30347766  0.21981324  1  -0.126174  0  -0.23814  -0.399674  0  3.988189  0
C  C123  1  0.86511476  0.29199711  0.33150396  1  -0.028266  0  -0.236748  -0.397673  0  3.994804  0
C  C124  1  0.84974198  0.71976789  0.65371991  1  -0.026683  0  -0.237706  -0.396103  0  3.996788  0
C  C125  1  0.11745291  0.70780024  0.66520586  1  -0.046051  0  -0.238319  -0.39735  0  3.999616  0
C  C126  1  0.83440736  0.26686240  0.93668352  1  -0.060797  0  -0.238331  -0.396469  0  3.998226  0
C  C127  1  0.10174825  0.28121404  0.92189557  1  -0.06007  0  -0.236748  -0.39512  0  3.999298  0
N  N128  1  0.50273119  0.23273018  0.49516762  1  -1.279551  0  -0.309951  -0.284078  0  3.45921  0
N  N129  1  0.50128359  0.72986207  0.50866959  1  -1.251155  0  -0.309894  -0.285646  0  3.459402  0
N  N130  1  0.49992492  0.76229155  0.09146532  1  -1.272204  0  -0.31099  -0.284775  0  3.465342  0
N  N131  1  0.48959647  0.26512015  0.08001652  1  -1.240264  0  -0.310191  -0.285603  0  3.459716  0
O  O132  1  0.49171342  0.39277495  0.57715954  1  -1.156634  0  -0.317036  -0.545419  0  2.312589  0
O  O133  1  0.54329364  0.55005904  0.58030401  1  -1.168422  0  -0.320903  -0.564927  0  2.362103  0
O  O134  1  0.32427171  0.55507931  0.52062740  1  -1.168104  0  -0.318388  -0.551425  0  2.361034  0
O  O135  1  0.31535752  0.39655674  0.49945594  1  -1.171884  0  -0.321338  -0.555824  0  2.316984  0
O  O136  1  0.47314906  0.56826712  0.42910063  1  -1.170582  0  -0.321151  -0.562367  0  2.313388  0
O  O137  1  0.50392855  0.40851783  0.42226240  1  -1.168498  0  -0.316863  -0.549041  0  2.344877  0
O  O138  1  0.68489226  0.40712381  0.50297703  1  -1.156808  0  -0.319979  -0.554506  0  2.337429  0
O  O139  1  0.68764080  0.56687805  0.49213810  1  -1.156864  0  -0.322424  -0.553514  0  2.300092  0
O  O140  1  0.49917648  0.60522165  0.01120079  1  -1.154823  0  -0.315848  -0.544014  0  2.320184  0
O  O141  1  0.54194664  0.44720131  0.00796332  1  -1.176934  0  -0.320292  -0.563737  0  2.368588  0
O  O142  1  0.31563821  0.43542428  0.06484090  1  -1.165485  0  -0.319367  -0.549499  0  2.350354  0
O  O143  1  0.31080729  0.59434865  0.08495102  1  -1.173596  0  -0.321394  -0.558191  0  2.32087  0
O  O144  1  0.46079250  0.43331692  0.15758120  1  -1.173131  0  -0.319396  -0.561446  0  2.326598  0
O  O145  1  0.48549937  0.59408899  0.16693704  1  -1.152037  0  -0.319385  -0.544431  0  2.294935  0
O  O146  1  0.67975539  0.58341253  0.08882280  1  -1.155889  0  -0.316868  -0.550205  0  2.328109  0
O  O147  1  0.67815711  0.42292083  0.09682033  1  -1.166224  0  -0.319934  -0.557583  0  2.320546  0
F  F148  1  0.66784770  0.22447872  0.44287447  1  -0.626271  0  -0.061411  -0.124442  0  1.351164  0
F  F149  1  0.42302631  0.74228547  0.58853119  1  -0.62288  0  -0.064513  -0.130267  0  1.345433  0
F  F150  1  0.51702473  0.30590404  0.66680568  1  -0.629074  0  -0.113457  -0.154678  0  1.332643  0
F  F151  1  0.53141042  0.69247430  0.92177820  1  -0.62797  0  -0.113249  -0.154756  0  1.332732  0
F  F152  1  0.65569432  0.77398253  0.14761360  1  -0.61907  0  -0.066641  -0.125847  0  1.331111  0
F  F153  1  0.42909085  0.25110534  0.99786341  1  -0.622491  0  -0.066272  -0.132653  0  1.338496  0
