# generated using pymatgen
data_Ag2H4C4SO4
_symmetry_space_group_name_H-M   'P 1'
_cell_length_a   5.20902032
_cell_length_b   6.61167605
_cell_length_c   20.46334426
_cell_angle_alpha   89.99966101
_cell_angle_beta   90.00000697
_cell_angle_gamma   109.15778748
_symmetry_Int_Tables_number   1
_chemical_formula_structural   Ag2H4C4SO4
_chemical_formula_sum   'Ag8 H16 C16 S4 O16'
_cell_volume   665.73383727
_cell_formula_units_Z   4
loop_
 _symmetry_equiv_pos_site_id
 _symmetry_equiv_pos_as_xyz
  1  'x, y, z'
loop_
 _atom_site_type_symbol
 _atom_site_label
 _atom_site_symmetry_multiplicity
 _atom_site_fract_x
 _atom_site_fract_y
 _atom_site_fract_z
 _atom_site_occupancy
 _atom_site_hle17_bader_spin_density
 _atom_site_hle17_ddec_charge
 _atom_site_hle17_ddec_spin_density
 _atom_site_hle17_ddec_sum_bond_order
 _atom_site_hle17_magmom
 _atom_site_hse06_10hf_bader_spin_density
 _atom_site_hse06_10hf_ddec_charge
 _atom_site_hse06_10hf_ddec_spin_density
 _atom_site_hse06_10hf_ddec_sum_bond_order
 _atom_site_hse06_10hf_magmom
 _atom_site_hse06_bader_spin_density
 _atom_site_hse06_ddec_charge
 _atom_site_hse06_ddec_spin_density
 _atom_site_hse06_ddec_sum_bond_order
 _atom_site_hse06_magmom
 _atom_site_pbe_bader_spin_density
 _atom_site_pbe_cm5_charge
 _atom_site_pbe_ddec_charge
 _atom_site_pbe_ddec_spin_density
 _atom_site_pbe_ddec_sum_bond_order
 _atom_site_pbe_magmom
Ag  Ag0  1  0.36973722  0.37405319  0.09774027  1  0  0.528741  0  1.500657  0  0  0.405238  0  1.975594  0  0  0.439788  0  1.916272  0  0  0.39249  0.380976  0  2.016932  0
Ag  Ag1  1  0.63026641  0.12595550  0.59774285  1  0  0.528726  0  1.500701  0  0  0.405212  0  1.975695  0  0  0.43976  0  1.916376  0  0  0.39248  0.380954  0  2.017027  0
Ag  Ag2  1  0.63025551  0.62594346  0.90225614  1  0  0.528768  0  1.500724  0  0  0.405299  0  1.975616  0  0  0.439845  0  1.916298  0  0  0.392513  0.38104  0  2.016948  0
Ag  Ag3  1  0.36974646  0.87405713  0.40225893  1  0  0.528699  0  1.50074  0  0  0.405232  0  1.975618  0  0  0.439782  0  1.916298  0  0  0.392484  0.380967  0  2.016951  0
Ag  Ag4  1  0.65335101  0.11105873  0.15415604  1  0  0.537436  0  1.509623  0  0  0.429456  0  1.975238  0  0  0.460649  0  1.917521  0  0  0.403158  0.407542  0  2.015372  0
Ag  Ag5  1  0.34666425  0.38894559  0.65415713  1  0  0.537416  0  1.50967  0  0  0.42945  0  1.975289  0  0  0.460644  0  1.917571  0  0  0.403155  0.407539  0  2.015423  0
Ag  Ag6  1  0.34664690  0.88894112  0.84584281  1  0  0.537446  0  1.509623  0  0  0.429464  0  1.975249  0  0  0.460656  0  1.917529  0  0  0.403152  0.407551  0  2.015382  0
Ag  Ag7  1  0.65334325  0.61105424  0.34584514  1  0  0.537424  0  1.509697  0  0  0.429471  0  1.975319  0  0  0.460662  0  1.9176  0  0  0.403154  0.407557  0  2.015448  0
H  H8  1  0.06154407  0.41924454  0.43574460  1  0  0.147856  0  0.939581  0  0  0.158191  0  1.003655  0  0  0.161874  0  1.001199  0  0  0.108016  0.155386  0  1.005773  0
H  H9  1  0.93845422  0.08075569  0.93574337  1  0  0.147785  0  0.939625  0  0  0.158134  0  1.003706  0  0  0.161817  0  1.00125  0  0  0.108015  0.15533  0  1.005827  0
H  H10  1  0.93845901  0.58075850  0.56425669  1  0  0.147868  0  0.939578  0  0  0.158213  0  1.003645  0  0  0.161897  0  1.001184  0  0  0.108029  0.15541  0  1.005767  0
H  H11  1  0.06154684  0.91924255  0.06425352  1  0  0.147827  0  0.939626  0  0  0.158198  0  1.003677  0  0  0.161883  0  1.001216  0  0  0.108025  0.155393  0  1.005794  0
H  H12  1  0.90585517  0.13723123  0.44053443  1  0  0.125879  0  0.94767  0  0  0.13715  0  1.018226  0  0  0.139837  0  1.016071  0  0  0.102578  0.135131  0  1.019946  0
H  H13  1  0.09414251  0.36277211  0.94053116  1  0  0.125773  0  0.94775  0  0  0.137112  0  1.018259  0  0  0.139789  0  1.016113  0  0  0.10257  0.135092  0  1.019981  0
H  H14  1  0.09415050  0.86277341  0.55946491  1  0  0.12587  0  0.947621  0  0  0.137122  0  1.018231  0  0  0.139805  0  1.016078  0  0  0.102559  0.135101  0  1.019957  0
H  H15  1  0.90585923  0.63722773  0.05946525  1  0  0.125892  0  0.947628  0  0  0.137163  0  1.018215  0  0  0.139832  0  1.016076  0  0  0.102586  0.135144  0  1.019937  0
H  H16  1  0.92703707  0.03182904  0.31292196  1  0  0.124656  0  0.948462  0  0  0.13131  0  1.029488  0  0  0.135596  0  1.02389  0  0  0.099506  0.128021  0  1.033855  0
H  H17  1  0.07296990  0.46817367  0.81291995  1  0  0.124658  0  0.948462  0  0  0.131317  0  1.02949  0  0  0.135605  0  1.023892  0  0  0.099528  0.128025  0  1.033858  0
H  H18  1  0.07295845  0.96817883  0.68708276  1  0  0.124698  0  0.948399  0  0  0.13132  0  1.029509  0  0  0.135608  0  1.023907  0  0  0.099525  0.128024  0  1.033882  0
H  H19  1  0.92703002  0.53183098  0.18708134  1  0  0.12466  0  0.948403  0  0  0.131309  0  1.02948  0  0  0.135596  0  1.023882  0  0  0.099511  0.128015  0  1.033847  0
H  H20  1  0.98930449  0.31244677  0.30790540  1  0  0.141074  0  0.943835  0  0  0.15443  0  1.002987  0  0  0.157009  0  1.002323  0  0  0.107544  0.152525  0  1.003639  0
H  H21  1  0.01070241  0.18755123  0.80790491  1  0  0.141063  0  0.94385  0  0  0.154425  0  1.003012  0  0  0.157006  0  1.002349  0  0  0.107537  0.15252  0  1.003665  0
H  H22  1  0.01069994  0.68755948  0.69209833  1  0  0.14107  0  0.943852  0  0  0.154442  0  1.002992  0  0  0.15702  0  1.002332  0  0  0.107541  0.152537  0  1.003643  0
H  H23  1  0.98930067  0.81245180  0.19209590  1  0  0.141042  0  0.943805  0  0  0.154419  0  1.002956  0  0  0.157  0  1.002292  0  0  0.10754  0.152514  0  1.003609  0
C  C24  1  0.10218739  0.26747412  0.44203600  1  0  -0.302553  0  3.570507  0  0  -0.332303  0  3.81249  0  0  -0.338776  0  3.820442  0  0  -0.152466  -0.327854  0  3.80732  0
C  C25  1  0.89780759  0.23252278  0.94203497  1  0  -0.302287  0  3.570414  0  0  -0.33216  0  3.812415  0  0  -0.338627  0  3.820378  0  0  -0.152457  -0.32771  0  3.80725  0
C  C26  1  0.89781694  0.73252731  0.55796383  1  0  -0.302506  0  3.570393  0  0  -0.332238  0  3.812351  0  0  -0.338706  0  3.820305  0  0  -0.152432  -0.327789  0  3.807188  0
C  C27  1  0.10219088  0.76747386  0.05796340  1  0  -0.302537  0  3.570554  0  0  -0.332339  0  3.812537  0  0  -0.338802  0  3.820508  0  0  -0.152499  -0.327885  0  3.807369  0
C  C28  1  0.08708725  0.18878074  0.30831111  1  0  -0.304906  0  3.588279  0  0  -0.334901  0  3.828402  0  0  -0.341063  0  3.83629  0  0  -0.155293  -0.330414  0  3.822699  0
C  C29  1  0.91291908  0.31122046  0.80830992  1  0  -0.304908  0  3.588383  0  0  -0.334906  0  3.828477  0  0  -0.341055  0  3.836329  0  0  -0.155299  -0.330417  0  3.822773  0
C  C30  1  0.91291200  0.81122231  0.69169165  1  0  -0.304942  0  3.588186  0  0  -0.334902  0  3.828254  0  0  -0.34107  0  3.836145  0  0  -0.155287  -0.330405  0  3.822553  0
C  C31  1  0.08708400  0.68878258  0.19169137  1  0  -0.30479  0  3.588092  0  0  -0.334785  0  3.828215  0  0  -0.340934  0  3.836065  0  0  -0.155246  -0.33029  0  3.822515  0
C  C32  1  0.23768750  0.26683404  0.50778527  1  0  0.705002  0  3.860525  0  0  0.653426  0  4.148415  0  0  0.688144  0  4.145936  0  0  0.201371  0.62968  0  4.1492  0
C  C33  1  0.76230630  0.23316048  0.00778249  1  0  0.704908  0  3.860526  0  0  0.653409  0  4.148331  0  0  0.688126  0  4.145851  0  0  0.201408  0.629662  0  4.149117  0
C  C34  1  0.76229631  0.73316423  0.49221602  1  0  0.705017  0  3.860554  0  0  0.653434  0  4.148489  0  0  0.688147  0  4.146014  0  0  0.201368  0.629687  0  4.149274  0
C  C35  1  0.23769332  0.76682975  0.99221587  1  0  0.70502  0  3.860335  0  0  0.653462  0  4.148228  0  0  0.688181  0  4.145744  0  0  0.201388  0.629716  0  4.149016  0
C  C36  1  0.24361058  0.19455993  0.24521633  1  0  0.70392  0  3.860013  0  0  0.653956  0  4.146678  0  0  0.688366  0  4.144114  0  0  0.198786  0.630359  0  4.14761  0
C  C37  1  0.75639232  0.30543776  0.74521662  1  0  0.703886  0  3.860021  0  0  0.653941  0  4.146653  0  0  0.688352  0  4.14409  0  0  0.198753  0.630344  0  4.147586  0
C  C38  1  0.75637898  0.80543834  0.75478447  1  0  0.704284  0  3.859669  0  0  0.65425  0  4.146435  0  0  0.688669  0  4.14385  0  0  0.19891  0.630652  0  4.147369  0
C  C39  1  0.24361968  0.69456366  0.25478467  1  0  0.703999  0  3.859842  0  0  0.653982  0  4.146609  0  0  0.688398  0  4.144033  0  0  0.198782  0.630384  0  4.147545  0
S  S40  1  0.32031228  0.23190896  0.37675541  1  0  0.078494  0  2.928069  0  0  0.113227  0  3.394492  0  0  0.106479  0  3.379263  0  0  -0.003752  0.117571  0  3.405175  0
S  S41  1  0.67968774  0.26809086  0.87675283  1  0  0.07844  0  2.927948  0  0  0.113194  0  3.394421  0  0  0.106444  0  3.379192  0  0  -0.003761  0.117539  0  3.40511  0
S  S42  1  0.67969148  0.76809568  0.62324442  1  0  0.078429  0  2.927967  0  0  0.113188  0  3.394387  0  0  0.106439  0  3.379161  0  0  -0.003747  0.117535  0  3.405075  0
S  S43  1  0.32030949  0.73190738  0.12324553  1  0  0.078389  0  2.927988  0  0  0.113159  0  3.394432  0  0  0.106408  0  3.379205  0  0  -0.003776  0.117507  0  3.40512  0
O  O44  1  0.10881865  0.29411217  0.55801066  1  0  -0.627219  0  2.135985  0  0  -0.543302  0  2.417143  0  0  -0.576403  0  2.404975  0  0  -0.330519  -0.520114  0  2.424827  0
O  O45  1  0.89117484  0.20588614  0.05800647  1  0  -0.627099  0  2.136062  0  0  -0.543218  0  2.417203  0  0  -0.576317  0  2.405035  0  0  -0.33045  -0.520027  0  2.424883  0
O  O46  1  0.89118214  0.70590370  0.44198868  1  0  -0.627233  0  2.135875  0  0  -0.543347  0  2.417095  0  0  -0.576447  0  2.404927  0  0  -0.33053  -0.520154  0  2.424771  0
O  O47  1  0.10882737  0.79410568  0.94198994  1  0  -0.627153  0  2.13596  0  0  -0.543283  0  2.417169  0  0  -0.57638  0  2.404999  0  0  -0.330488  -0.520095  0  2.424852  0
O  O48  1  0.46643594  0.23764148  0.50805750  1  0  -0.60831  0  2.084053  0  0  -0.53152  0  2.355727  0  0  -0.562823  0  2.345177  0  0  -0.319355  -0.509634  0  2.362296  0
O  O49  1  0.53355604  0.26235785  0.00805416  1  0  -0.608374  0  2.083988  0  0  -0.531584  0  2.355602  0  0  -0.562886  0  2.345051  0  0  -0.319455  -0.509698  0  2.362175  0
O  O50  1  0.53355783  0.76234395  0.49194477  1  0  -0.608291  0  2.084231  0  0  -0.531458  0  2.355856  0  0  -0.562759  0  2.345311  0  0  -0.319332  -0.509576  0  2.362425  0
O  O51  1  0.46644617  0.73763397  0.99194322  1  0  -0.608403  0  2.083875  0  0  -0.53158  0  2.355509  0  0  -0.562884  0  2.344958  0  0  -0.319405  -0.509696  0  2.362082  0
O  O52  1  0.11859788  0.19551042  0.19181108  1  0  -0.642463  0  2.127772  0  0  -0.559862  0  2.41028  0  0  -0.592903  0  2.3978  0  0  -0.334495  -0.536595  0  2.418126  0
O  O53  1  0.88140671  0.30448674  0.69181040  1  0  -0.642351  0  2.127557  0  0  -0.559769  0  2.410076  0  0  -0.592808  0  2.397595  0  0  -0.334432  -0.536501  0  2.417922  0
O  O54  1  0.88138976  0.80448785  0.80818924  1  0  -0.642564  0  2.127698  0  0  -0.559924  0  2.410209  0  0  -0.592969  0  2.397729  0  0  -0.334491  -0.536654  0  2.418052  0
O  O55  1  0.11859648  0.69552110  0.30818992  1  0  -0.642465  0  2.127563  0  0  -0.559852  0  2.410111  0  0  -0.592895  0  2.397627  0  0  -0.334458  -0.536581  0  2.417955  0
O  O56  1  0.48650557  0.19465594  0.24968042  1  0  -0.607595  0  2.050819  0  0  -0.534521  0  2.316958  0  0  -0.565804  0  2.307466  0  0  -0.317586  -0.512612  0  2.322787  0
O  O57  1  0.51349653  0.30533524  0.74968021  1  0  -0.607637  0  2.050971  0  0  -0.534579  0  2.317113  0  0  -0.565863  0  2.307616  0  0  -0.317614  -0.512669  0  2.322944  0
O  O58  1  0.51347871  0.80533432  0.75031941  1  0  -0.607843  0  2.050693  0  0  -0.534756  0  2.316888  0  0  -0.56604  0  2.307383  0  0  -0.317708  -0.512849  0  2.322723  0
O  O59  1  0.48649993  0.69465660  0.25032060  1  0  -0.607682  0  2.051011  0  0  -0.534618  0  2.31722  0  0  -0.565902  0  2.307716  0  0  -0.31763  -0.512712  0  2.323054  0
