# generated using pymatgen
data_CdH11C10NO10
_symmetry_space_group_name_H-M   'P 1'
_cell_length_a   7.74994651
_cell_length_b   7.86827368
_cell_length_c   11.08113283
_cell_angle_alpha   95.38196475
_cell_angle_beta   90.58449256
_cell_angle_gamma   108.76281789
_symmetry_Int_Tables_number   1
_chemical_formula_structural   CdH11C10NO10
_chemical_formula_sum   'Cd2 H22 C20 N2 O20'
_cell_volume   636.39953499
_cell_formula_units_Z   2
loop_
 _symmetry_equiv_pos_site_id
 _symmetry_equiv_pos_as_xyz
  1  'x, y, z'
loop_
 _atom_site_type_symbol
 _atom_site_label
 _atom_site_symmetry_multiplicity
 _atom_site_fract_x
 _atom_site_fract_y
 _atom_site_fract_z
 _atom_site_occupancy
 _atom_site_hle17_bader_spin_density
 _atom_site_hle17_ddec_charge
 _atom_site_hle17_ddec_spin_density
 _atom_site_hle17_ddec_sum_bond_order
 _atom_site_hle17_magmom
 _atom_site_hse06_10hf_bader_spin_density
 _atom_site_hse06_10hf_ddec_charge
 _atom_site_hse06_10hf_ddec_spin_density
 _atom_site_hse06_10hf_ddec_sum_bond_order
 _atom_site_hse06_10hf_magmom
 _atom_site_hse06_bader_spin_density
 _atom_site_hse06_ddec_charge
 _atom_site_hse06_ddec_spin_density
 _atom_site_hse06_ddec_sum_bond_order
 _atom_site_hse06_magmom
 _atom_site_pbe_bader_spin_density
 _atom_site_pbe_cm5_charge
 _atom_site_pbe_ddec_charge
 _atom_site_pbe_ddec_spin_density
 _atom_site_pbe_ddec_sum_bond_order
 _atom_site_pbe_magmom
Cd  Cd0  1  0.73543986  0.90003314  0.55241786  1  0  1.329948  0  1.519121  0  0  1.163359  0  1.961379  0  0  1.219302  0  1.899599  0  0  0.799384  1.122772  0  2.004396  0
Cd  Cd1  1  0.26456248  0.09997385  0.44758089  1  0  1.32992  0  1.519216  0  0  1.163331  0  1.961477  0  0  1.219275  0  1.899693  0  0  0.799371  1.122744  0  2.004495  0
H  H2  1  0.37070143  0.57520245  0.52420663  1  0  0.438839  0  0.855737  0  0  0.408402  0  0.916893  0  0  0.419955  0  0.900201  0  0  0.290651  0.400158  0  0.928786  0
H  H3  1  0.62929957  0.42480046  0.47579452  1  0  0.438784  0  0.855806  0  0  0.408348  0  0.916963  0  0  0.419902  0  0.90027  0  0  0.290628  0.400105  0  0.928854  0
H  H4  1  0.39922946  0.75568656  0.45740918  1  0  0.423071  0  0.877865  0  0  0.390681  0  0.944642  0  0  0.402089  0  0.927917  0  0  0.288826  0.38261  0  0.95645  0
H  H5  1  0.60077329  0.24431773  0.54259029  1  0  0.423073  0  0.877868  0  0  0.390665  0  0.94468  0  0  0.402074  0  0.927956  0  0  0.28881  0.382593  0  0.956492  0
H  H6  1  0.02352565  0.91570479  0.71084724  1  0  0.436999  0  0.85276  0  0  0.399783  0  0.929386  0  0  0.411598  0  0.91216  0  0  0.294549  0.391322  0  0.941701  0
H  H7  1  0.97646667  0.08429535  0.28915723  1  0  0.437069  0  0.852788  0  0  0.399842  0  0.929337  0  0  0.41166  0  0.912105  0  0  0.294596  0.391379  0  0.941653  0
H  H8  1  0.85746691  0.74390899  0.73744623  1  0  0.424315  0  0.865576  0  0  0.386712  0  0.946517  0  0  0.397229  0  0.930899  0  0  0.29879  0.379189  0  0.957676  0
H  H9  1  0.14252589  0.25608849  0.26255445  1  0  0.424313  0  0.865626  0  0  0.386734  0  0.946494  0  0  0.397252  0  0.930873  0  0  0.298804  0.379211  0  0.957653  0
H  H10  1  0.42944894  0.78188585  0.77158497  1  0  0.095062  0  0.944883  0  0  0.101174  0  1.017167  0  0  0.102877  0  1.015157  0  0  0.110064  0.099962  0  1.018699  0
H  H11  1  0.57054689  0.21811300  0.22841495  1  0  0.095073  0  0.944869  0  0  0.101175  0  1.017163  0  0  0.102878  0  1.015155  0  0  0.110062  0.099961  0  1.018694  0
H  H12  1  0.51804650  0.99355791  0.86210736  1  0  0.088138  0  0.952275  0  0  0.098582  0  1.015964  0  0  0.099062  0  1.016928  0  0  0.104681  0.098252  0  1.015371  0
H  H13  1  0.48195185  0.00643286  0.13789383  1  0  0.088122  0  0.952298  0  0  0.09862  0  1.015923  0  0  0.099106  0  1.01688  0  0  0.104697  0.098288  0  1.015333  0
H  H14  1  0.95255931  0.83632944  0.98260997  1  0  0.123793  0  0.92029  0  0  0.134526  0  0.977695  0  0  0.138073  0  0.974975  0  0  0.116193  0.131946  0  0.979739  0
H  H15  1  0.04743823  0.16366673  0.01738978  1  0  0.123803  0  0.920266  0  0  0.134532  0  0.977694  0  0  0.138083  0  0.97497  0  0  0.116171  0.131951  0  0.979742  0
H  H16  1  0.88432983  0.68290555  0.16643919  1  0  0.127516  0  0.976396  0  0  0.135029  0  1.037  0  0  0.138651  0  1.034606  0  0  0.111744  0.13245  0  1.0388  0
H  H17  1  0.11566853  0.31709327  0.83356436  1  0  0.127484  0  0.976437  0  0  0.13498  0  1.037048  0  0  0.138604  0  1.034651  0  0  0.111742  0.132403  0  1.03885  0
H  H18  1  0.46666738  0.73409387  0.96674747  1  0  0.130767  0  0.966153  0  0  0.132601  0  1.038369  0  0  0.13631  0  1.035323  0  0  0.114128  0.129938  0  1.040617  0
H  H19  1  0.53332975  0.26590097  0.03325038  1  0  0.130783  0  0.966196  0  0  0.132623  0  1.038394  0  0  0.136332  0  1.035347  0  0  0.11414  0.129961  0  1.040642  0
H  H20  1  0.90407828  0.38113368  0.38055049  1  0  0.115454  0  0.924633  0  0  0.124611  0  0.986546  0  0  0.12674  0  0.985133  0  0  0.120265  0.123052  0  0.987703  0
H  H21  1  0.09592833  0.61886658  0.61944875  1  0  0.115448  0  0.924549  0  0  0.124625  0  0.986429  0  0  0.126753  0  0.985014  0  0  0.120275  0.123063  0  0.987598  0
H  H22  1  0.81085638  0.46173390  0.26002444  1  0  0.095744  0  0.943921  0  0  0.101472  0  1.017483  0  0  0.103006  0  1.015613  0  0  0.11327  0.100338  0  1.019025  0
H  H23  1  0.18914799  0.53826359  0.73998089  1  0  0.095799  0  0.943785  0  0  0.1015  0  1.017387  0  0  0.103014  0  1.015535  0  0  0.113269  0.100384  0  1.018912  0
C  C24  1  0.40388059  0.00470934  0.68728330  1  0  0.704038  0  3.854157  0  0  0.646005  0  4.160933  0  0  0.680374  0  4.153669  0  0  0.21131  0.622535  0  4.165206  0
C  C25  1  0.59611826  0.99529088  0.31271674  1  0  0.703999  0  3.853972  0  0  0.645947  0  4.160789  0  0  0.680317  0  4.153527  0  0  0.211278  0.622476  0  4.165061  0
C  C26  1  0.40435474  0.90991408  0.80014031  1  0  -0.080405  0  3.627992  0  0  -0.135273  0  3.886088  0  0  -0.132869  0  3.88868  0  0  -0.071848  -0.136938  0  3.884177  0
C  C27  1  0.59564367  0.09008478  0.19985963  1  0  -0.080373  0  3.627924  0  0  -0.135286  0  3.885993  0  0  -0.132861  0  3.888582  0  0  -0.071848  -0.136948  0  3.88408  0
C  C28  1  0.21200003  0.79320599  0.95989845  1  0  0.252914  0  3.827846  0  0  0.242192  0  4.094278  0  0  0.249346  0  4.11141  0  0  0.076649  0.23692  0  4.08278  0
C  C29  1  0.78799194  0.20678480  0.04009724  1  0  0.252917  0  3.827992  0  0  0.24215  0  4.094465  0  0  0.249324  0  4.111598  0  0  0.076654  0.236878  0  4.082961  0
C  C30  1  0.04884748  0.77754464  0.01938909  1  0  -0.091207  0  3.676038  0  0  -0.121727  0  3.938903  0  0  -0.120618  0  3.954434  0  0  -0.077198  -0.122172  0  3.928326  0
C  C31  1  0.95114749  0.22244750  0.98060763  1  0  -0.091154  0  3.67615  0  0  -0.121679  0  3.939045  0  0  -0.120573  0  3.954577  0  0  -0.077128  -0.12213  0  3.928482  0
C  C32  1  0.01068891  0.68942739  0.12286597  1  0  -0.152842  0  3.723768  0  0  -0.174084  0  3.980727  0  0  -0.180276  0  4.001317  0  0  -0.094655  -0.170026  0  3.96694  0
C  C33  1  0.98930518  0.31056607  0.87713264  1  0  -0.152844  0  3.723713  0  0  -0.174061  0  3.980742  0  0  -0.180256  0  4.001334  0  0  -0.094664  -0.170008  0  3.966957  0
C  C34  1  0.13020361  0.60799341  0.17009214  1  0  0.255056  0  3.748627  0  0  0.234547  0  4.019435  0  0  0.248288  0  4.034467  0  0  0.102842  0.225157  0  4.009288  0
C  C35  1  0.86979912  0.39201086  0.82990914  1  0  0.255209  0  3.748308  0  0  0.234633  0  4.019163  0  0  0.248373  0  4.03419  0  0  0.102842  0.225245  0  4.009018  0
C  C36  1  0.29604754  0.62960693  0.11161042  1  0  0.000705  0  3.687546  0  0  -0.025572  0  3.949292  0  0  -0.032736  0  3.971129  0  0  0.071674  -0.021059  0  3.934855  0
C  C37  1  0.70395605  0.37040406  0.88839314  1  0  0.000559  0  3.687478  0  0  -0.025669  0  3.949282  0  0  -0.032835  0  3.971122  0  0  0.071625  -0.021156  0  3.934845  0
C  C38  1  0.33717068  0.72248715  0.00762674  1  0  -0.233991  0  3.770638  0  0  -0.2686  0  4.044584  0  0  -0.269084  0  4.062527  0  0  -0.106668  -0.268087  0  4.032695  0
C  C39  1  0.66282563  0.27751309  0.99236966  1  0  -0.234066  0  3.77084  0  0  -0.268655  0  4.044763  0  0  -0.26913  0  4.062688  0  0  -0.106719  -0.268144  0  4.032874  0
C  C40  1  0.92592415  0.49563020  0.32668940  1  0  -0.075613  0  3.586717  0  0  -0.129486  0  3.845978  0  0  -0.125658  0  3.845964  0  0  -0.066458  -0.1323  0  3.846245  0
C  C41  1  0.07407771  0.50437137  0.67331167  1  0  -0.075583  0  3.586425  0  0  -0.12948  0  3.845711  0  0  -0.125627  0  3.845687  0  0  -0.066452  -0.132312  0  3.84597  0
C  C42  1  0.92563635  0.66295265  0.40894609  1  0  0.684876  0  3.884489  0  0  0.629004  0  4.193234  0  0  0.662495  0  4.186437  0  0  0.208173  0.606184  0  4.197096  0
C  C43  1  0.07436940  0.33704894  0.59105413  1  0  0.684871  0  3.884497  0  0  0.628963  0  4.193299  0  0  0.66245  0  4.186498  0  0  0.208119  0.606157  0  4.197143  0
N  N44  1  0.43531745  0.56387081  0.15674079  1  0  0.484794  0  3.925769  0  0  0.542766  0  4.182184  0  0  0.566396  0  4.187189  0  0  0.046674  0.526876  0  4.178931  0
N  N45  1  0.56468228  0.43613211  0.84325855  1  0  0.484985  0  3.92534  0  0  0.542726  0  4.182061  0  0  0.566351  0  4.187068  0  0  0.046653  0.526837  0  4.178808  0
O  O46  1  0.55955504  0.07123152  0.64335393  1  0  -0.67883  0  2.052093  0  0  -0.611777  0  2.307014  0  0  -0.641838  0  2.295869  0  0  -0.327272  -0.590478  0  2.313852  0
O  O47  1  0.44043906  0.92877001  0.35664705  1  0  -0.678838  0  2.051945  0  0  -0.6118  0  2.306901  0  0  -0.641847  0  2.295723  0  0  -0.327266  -0.590503  0  2.313733  0
O  O48  1  0.25433670  0.01223349  0.64422920  1  0  -0.6477  0  2.029433  0  0  -0.577164  0  2.279165  0  0  -0.60694  0  2.267436  0  0  -0.30654  -0.556192  0  2.286444  0
O  O49  1  0.74566216  0.98777076  0.35577113  1  0  -0.647663  0  2.029459  0  0  -0.577102  0  2.279158  0  0  -0.606882  0  2.267435  0  0  -0.306496  -0.556134  0  2.286436  0
O  O50  1  0.23424420  0.87952420  0.85705128  1  0  -0.257927  0  2.369646  0  0  -0.187766  0  2.601931  0  0  -0.205253  0  2.606059  0  0  -0.178766  -0.175272  0  2.598675  0
O  O51  1  0.76575551  0.12047065  0.14294660  1  0  -0.257945  0  2.369662  0  0  -0.187713  0  2.601911  0  0  -0.205253  0  2.606073  0  0  -0.178772  -0.17522  0  2.598652  0
O  O52  1  0.59464647  0.63532844  0.12519447  1  0  -0.365903  0  1.772289  0  0  -0.352903  0  1.97064  0  0  -0.364818  0  1.966076  0  0  -0.137683  -0.344976  0  1.973849  0
O  O53  1  0.40535243  0.36467585  0.87480315  1  0  -0.365876  0  1.772202  0  0  -0.352845  0  1.970662  0  0  -0.364759  0  1.966094  0  0  -0.137637  -0.344922  0  1.97388  0
O  O54  1  0.39458510  0.43882264  0.22380311  1  0  -0.365039  0  1.779176  0  0  -0.348481  0  1.976221  0  0  -0.358063  0  1.968471  0  0  -0.132463  -0.342346  0  1.981885  0
O  O55  1  0.60541812  0.56117093  0.77619020  1  0  -0.365204  0  1.779055  0  0  -0.34846  0  1.976108  0  0  -0.358035  0  1.968355  0  0  -0.132459  -0.342323  0  1.981772  0
O  O56  1  0.09362723  0.51283228  0.26792548  1  0  -0.244585  0  2.409309  0  0  -0.178085  0  2.645142  0  0  -0.197011  0  2.647873  0  0  -0.164091  -0.164614  0  2.642894  0
O  O57  1  0.90636776  0.48716389  0.73207243  1  0  -0.244733  0  2.409226  0  0  -0.17812  0  2.64501  0  0  -0.197045  0  2.647723  0  0  -0.164102  -0.16465  0  2.642768  0
O  O58  1  0.05717394  0.80564391  0.40994949  1  0  -0.64196  0  2.056589  0  0  -0.580463  0  2.323816  0  0  -0.607926  0  2.31171  0  0  -0.320488  -0.56106  0  2.331527  0
O  O59  1  0.94284171  0.19436042  0.59005195  1  0  -0.64201  0  2.056632  0  0  -0.580497  0  2.323867  0  0  -0.607956  0  2.311759  0  0  -0.320508  -0.561099  0  2.331574  0
O  O60  1  0.78217312  0.63908516  0.47053404  1  0  -0.675875  0  2.05633  0  0  -0.603727  0  2.304565  0  0  -0.634929  0  2.292458  0  0  -0.322674  -0.581685  0  2.312155  0
O  O61  1  0.21784464  0.36092183  0.52947212  1  0  -0.675795  0  2.056279  0  0  -0.603623  0  2.30449  0  0  -0.634829  0  2.29239  0  0  -0.322586  -0.581582  0  2.31207  0
O  O62  1  0.43084266  0.70837326  0.53118312  1  0  -0.867425  0  1.885058  0  0  -0.804558  0  2.084628  0  0  -0.828898  0  2.050074  0  0  -0.593553  -0.787156  0  2.108625  0
O  O63  1  0.56915836  0.29162966  0.46881713  1  0  -0.867342  0  1.885122  0  0  -0.804469  0  2.084689  0  0  -0.82881  0  2.050131  0  0  -0.593501  -0.787067  0  2.108687  0
O  O64  1  0.89040792  0.87159168  0.72338031  1  0  -0.832706  0  1.878444  0  0  -0.77182  0  2.091223  0  0  -0.794919  0  2.056124  0  0  -0.579524  -0.755332  0  2.115769  0
O  O65  1  0.10958443  0.12840848  0.27662236  1  0  -0.832806  0  1.878554  0  0  -0.771897  0  2.091192  0  0  -0.795002  0  2.05609  0  0  -0.579585  -0.755408  0  2.115734  0
