# generated using pymatgen
data_CuH10C7(NO)3
_symmetry_space_group_name_H-M   'P 1'
_cell_length_a   6.60722310
_cell_length_b   8.11393337
_cell_length_c   18.27286023
_cell_angle_alpha   89.99964403
_cell_angle_beta   89.99939792
_cell_angle_gamma   91.94911464
_symmetry_Int_Tables_number   1
_chemical_formula_structural   CuH10C7(NO)3
_chemical_formula_sum   'Cu4 H40 C28 N12 O12'
_cell_volume   979.05163499
_cell_formula_units_Z   4
loop_
 _symmetry_equiv_pos_site_id
 _symmetry_equiv_pos_as_xyz
  1  'x, y, z'
loop_
 _atom_site_type_symbol
 _atom_site_label
 _atom_site_symmetry_multiplicity
 _atom_site_fract_x
 _atom_site_fract_y
 _atom_site_fract_z
 _atom_site_occupancy
 _atom_site_hle17_bader_spin_density
 _atom_site_hle17_ddec_charge
 _atom_site_hle17_ddec_spin_density
 _atom_site_hle17_ddec_sum_bond_order
 _atom_site_hle17_magmom
 _atom_site_hse06_10hf_bader_spin_density
 _atom_site_hse06_10hf_ddec_charge
 _atom_site_hse06_10hf_ddec_spin_density
 _atom_site_hse06_10hf_ddec_sum_bond_order
 _atom_site_hse06_10hf_magmom
 _atom_site_hse06_bader_spin_density
 _atom_site_hse06_ddec_charge
 _atom_site_hse06_ddec_spin_density
 _atom_site_hse06_ddec_sum_bond_order
 _atom_site_hse06_magmom
 _atom_site_pbe_bader_spin_density
 _atom_site_pbe_cm5_charge
 _atom_site_pbe_ddec_charge
 _atom_site_pbe_ddec_spin_density
 _atom_site_pbe_ddec_sum_bond_order
 _atom_site_pbe_magmom
Cu  Cu0  1  0.94094753  0.22443010  0.51169995  1  0  0.668359  0  1.962137  0  0  0.629288  0  2.415438  0  0  0.631376  0  2.37284  0  0  0.607442  0.62833  0  2.444175  0
Cu  Cu1  1  0.05904844  0.27557099  0.01169883  1  0  0.668329  0  1.962171  0  0  0.629263  0  2.41545  0  0  0.631354  0  2.372856  0  0  0.607406  0.628287  0  2.444196  0
Cu  Cu2  1  0.05905031  0.77556680  0.48829949  1  0  0.668345  0  1.96218  0  0  0.629267  0  2.415484  0  0  0.631353  0  2.372886  0  0  0.60745  0.628303  0  2.444216  0
Cu  Cu3  1  0.94094957  0.72442961  0.98830171  1  0  0.668352  0  1.962182  0  0  0.629293  0  2.415483  0  0  0.631391  0  2.372882  0  0  0.607435  0.628338  0  2.444234  0
H  H4  1  0.57945955  0.10988297  0.50480313  1  0  0.137704  0  0.967169  0  0  0.151004  0  1.027939  0  0  0.15316  0  1.027354  0  0  0.096071  0.149443  0  1.028387  0
H  H5  1  0.42054542  0.39011203  0.00479922  1  0  0.137747  0  0.967202  0  0  0.151056  0  1.027949  0  0  0.15321  0  1.027371  0  0  0.096096  0.149495  0  1.028394  0
H  H6  1  0.42053212  0.89011148  0.49519521  1  0  0.13774  0  0.967116  0  0  0.15105  0  1.027865  0  0  0.153204  0  1.027286  0  0  0.096103  0.149489  0  1.028315  0
H  H7  1  0.57946167  0.60988855  0.99520076  1  0  0.137774  0  0.967153  0  0  0.151086  0  1.027891  0  0  0.153241  0  1.027307  0  0  0.096103  0.149527  0  1.028333  0
H  H8  1  0.62659379  0.26381871  0.43144978  1  0  0.140952  0  0.965678  0  0  0.150122  0  1.033076  0  0  0.152513  0  1.031997  0  0  0.095495  0.148455  0  1.033793  0
H  H9  1  0.37341251  0.23617733  0.93144920  1  0  0.141035  0  0.965553  0  0  0.150186  0  1.032972  0  0  0.152581  0  1.031887  0  0  0.09551  0.14852  0  1.033685  0
H  H10  1  0.37340254  0.73617820  0.56854802  1  0  0.140967  0  0.965717  0  0  0.150124  0  1.033135  0  0  0.152517  0  1.03205  0  0  0.095475  0.148458  0  1.033847  0
H  H11  1  0.62659464  0.76382448  0.06855133  1  0  0.141045  0  0.965541  0  0  0.1502  0  1.032955  0  0  0.152594  0  1.031868  0  0  0.095492  0.148533  0  1.033674  0
H  H12  1  0.72794191  0.47521818  0.52525016  1  0  0.100276  0  0.974847  0  0  0.106273  0  1.045743  0  0  0.108075  0  1.045533  0  0  0.098158  0.10495  0  1.045995  0
H  H13  1  0.27204453  0.02478149  0.02525001  1  0  0.100279  0  0.974901  0  0  0.106235  0  1.045841  0  0  0.108037  0  1.04563  0  0  0.098144  0.104913  0  1.046095  0
H  H14  1  0.27205280  0.52477626  0.47474928  1  0  0.100371  0  0.974826  0  0  0.106353  0  1.045724  0  0  0.108154  0  1.045515  0  0  0.098173  0.105028  0  1.045975  0
H  H15  1  0.72795203  0.97522034  0.97474888  1  0  0.100292  0  0.974942  0  0  0.106291  0  1.045836  0  0  0.108094  0  1.045624  0  0  0.098167  0.104966  0  1.046093  0
H  H16  1  0.65341630  0.19153506  0.63697266  1  0  0.086683  0  0.949718  0  0  0.097175  0  1.015686  0  0  0.099597  0  1.012852  0  0  0.105489  0.095267  0  1.017883  0
H  H17  1  0.34656497  0.30845556  0.13697419  1  0  0.086648  0  0.94984  0  0  0.097182  0  1.015794  0  0  0.099602  0  1.012956  0  0  0.105456  0.095275  0  1.017988  0
H  H18  1  0.34657689  0.80845938  0.36302623  1  0  0.086673  0  0.949761  0  0  0.097186  0  1.015717  0  0  0.099599  0  1.012893  0  0  0.105507  0.09528  0  1.017914  0
H  H19  1  0.65342844  0.69154382  0.86302799  1  0  0.086655  0  0.9498  0  0  0.097179  0  1.015733  0  0  0.0996  0  1.012899  0  0  0.10546  0.095272  0  1.01793  0
H  H20  1  0.77061415  0.38978676  0.65489328  1  0  0.099419  0  0.91606  0  0  0.115296  0  0.974177  0  0  0.116111  0  0.974153  0  0  0.119698  0.11469  0  0.974198  0
H  H21  1  0.22937718  0.11020357  0.15489361  1  0  0.099323  0  0.916138  0  0  0.115251  0  0.974254  0  0  0.116066  0  0.974227  0  0  0.119672  0.114626  0  0.974305  0
H  H22  1  0.22938509  0.61020767  0.34510452  1  0  0.099376  0  0.916091  0  0  0.115267  0  0.974224  0  0  0.116082  0  0.974197  0  0  0.119705  0.114662  0  0.974248  0
H  H23  1  0.77062509  0.88979085  0.84510638  1  0  0.099359  0  0.91607  0  0  0.115266  0  0.974185  0  0  0.116081  0  0.974159  0  0  0.119692  0.114652  0  0.97422  0
H  H24  1  0.57175155  0.59210523  0.70353054  1  0  0.085131  0  0.926959  0  0  0.096868  0  0.996714  0  0  0.098676  0  0.994026  0  0  0.110192  0.095496  0  0.99864  0
H  H25  1  0.42824763  0.90789420  0.20353202  1  0  0.085078  0  0.927011  0  0  0.0968  0  0.996766  0  0  0.098608  0  0.994081  0  0  0.110177  0.095431  0  0.998694  0
H  H26  1  0.42826143  0.40789163  0.29646836  1  0  0.085137  0  0.927031  0  0  0.096812  0  0.996825  0  0  0.098617  0  0.99414  0  0  0.110149  0.095439  0  0.998753  0
H  H27  1  0.57175626  0.09210269  0.79646468  1  0  0.085154  0  0.926904  0  0  0.096894  0  0.996654  0  0  0.098701  0  0.993962  0  0  0.110213  0.095522  0  0.998584  0
H  H28  1  0.47638346  0.42186483  0.75668410  1  0  0.084762  0  0.945476  0  0  0.100092  0  1.007363  0  0  0.10101  0  1.006765  0  0  0.107016  0.099313  0  1.007894  0
H  H29  1  0.52361024  0.07814248  0.25668394  1  0  0.084693  0  0.94549  0  0  0.100031  0  1.007341  0  0  0.100949  0  1.006746  0  0  0.106995  0.099255  0  1.007873  0
H  H30  1  0.52361001  0.57813578  0.24331479  1  0  0.084764  0  0.945519  0  0  0.100095  0  1.007352  0  0  0.10101  0  1.006759  0  0  0.107017  0.099317  0  1.007885  0
H  H31  1  0.47639539  0.92185933  0.74331550  1  0  0.08469  0  0.945492  0  0  0.100035  0  1.007339  0  0  0.100949  0  1.006744  0  0  0.106985  0.099258  0  1.007869  0
H  H32  1  0.20135803  0.65471778  0.66860340  1  0  0.077341  0  0.975434  0  0  0.089445  0  1.037852  0  0  0.091707  0  1.037399  0  0  0.095903  0.087736  0  1.038361  0
H  H33  1  0.79863933  0.84528587  0.16860584  1  0  0.077301  0  0.975412  0  0  0.089404  0  1.037833  0  0  0.091668  0  1.037382  0  0  0.095892  0.087696  0  1.038344  0
H  H34  1  0.79864637  0.34529020  0.33139385  1  0  0.077316  0  0.975377  0  0  0.089413  0  1.037802  0  0  0.091677  0  1.037349  0  0  0.095873  0.087705  0  1.038313  0
H  H35  1  0.20136945  0.15471840  0.83139470  1  0  0.077338  0  0.975424  0  0  0.089448  0  1.037826  0  0  0.091712  0  1.037375  0  0  0.095913  0.08774  0  1.038333  0
H  H36  1  0.16869077  0.48964224  0.82045512  1  0  0.12307  0  0.961433  0  0  0.137878  0  1.019202  0  0  0.140284  0  1.019309  0  0  0.094782  0.136114  0  1.019209  0
H  H37  1  0.83130307  0.01037522  0.32045179  1  0  0.123049  0  0.961514  0  0  0.137867  0  1.01927  0  0  0.140274  0  1.019379  0  0  0.094813  0.136111  0  1.019279  0
H  H38  1  0.83132607  0.51037311  0.17954541  1  0  0.123062  0  0.961459  0  0  0.13787  0  1.019233  0  0  0.140277  0  1.019338  0  0  0.094765  0.13611  0  1.019238  0
H  H39  1  0.16869320  0.98962046  0.67955038  1  0  0.123062  0  0.961327  0  0  0.137887  0  1.019081  0  0  0.140292  0  1.019191  0  0  0.09481  0.136129  0  1.019089  0
H  H40  1  0.98683488  0.62918839  0.77686469  1  0  0.126531  0  0.960701  0  0  0.139049  0  1.022314  0  0  0.141994  0  1.021442  0  0  0.095685  0.1369  0  1.023021  0
H  H41  1  0.01316112  0.87082105  0.27686402  1  0  0.126547  0  0.960671  0  0  0.139075  0  1.022283  0  0  0.142021  0  1.021411  0  0  0.095675  0.136928  0  1.022992  0
H  H42  1  0.01317743  0.37082697  0.22313585  1  0  0.126549  0  0.960678  0  0  0.139073  0  1.022274  0  0  0.142016  0  1.021405  0  0  0.095749  0.136925  0  1.022982  0
H  H43  1  0.98683515  0.12917462  0.72313706  1  0  0.126559  0  0.960735  0  0  0.139077  0  1.022355  0  0  0.142021  0  1.021486  0  0  0.09571  0.136929  0  1.023063  0
C  C44  1  0.64504169  0.22965220  0.48869808  1  0  -0.330415  0  3.667125  0  0  -0.393881  0  3.967755  0  0  -0.39301  0  3.972761  0  0  -0.248795  -0.39421  0  3.964097  0
C  C45  1  0.35496000  0.27034546  0.98869693  1  0  -0.330537  0  3.667114  0  0  -0.393988  0  3.967708  0  0  -0.393122  0  3.972716  0  0  -0.248808  -0.394308  0  3.964035  0
C  C46  1  0.35495912  0.77034346  0.51130081  1  0  -0.330451  0  3.667095  0  0  -0.393903  0  3.967712  0  0  -0.393033  0  3.972716  0  0  -0.2488  -0.394228  0  3.964042  0
C  C47  1  0.64504261  0.72965636  0.01130306  1  0  -0.330619  0  3.667098  0  0  -0.394081  0  3.967738  0  0  -0.393213  0  3.972743  0  0  -0.248842  -0.394411  0  3.964081  0
C  C48  1  0.69694118  0.34725307  0.54161674  1  0  -0.105435  0  3.777064  0  0  -0.127795  0  4.084511  0  0  -0.125464  0  4.095249  0  0  -0.16194  -0.129141  0  4.076842  0
C  C49  1  0.30305228  0.15274511  0.04161777  1  0  -0.105499  0  3.777149  0  0  -0.127795  0  4.084632  0  0  -0.12546  0  4.095364  0  0  -0.161936  -0.129145  0  4.076968  0
C  C50  1  0.30305352  0.65274137  0.45838215  1  0  -0.10556  0  3.777057  0  0  -0.127894  0  4.08453  0  0  -0.12556  0  4.095264  0  0  -0.161951  -0.129245  0  4.076872  0
C  C51  1  0.69694584  0.84725795  0.95838222  1  0  -0.105453  0  3.777118  0  0  -0.127814  0  4.084581  0  0  -0.125484  0  4.095318  0  0  -0.161926  -0.129163  0  4.07693  0
C  C52  1  0.65612182  0.32286037  0.62194418  1  0  -0.003882  0  3.641582  0  0  -0.064736  0  3.897941  0  0  -0.059233  0  3.905641  0  0  -0.05999  -0.068352  0  3.892563  0
C  C53  1  0.34385872  0.17713788  0.12194389  1  0  -0.003551  0  3.641411  0  0  -0.064584  0  3.897958  0  0  -0.059071  0  3.905642  0  0  -0.05993  -0.068174  0  3.892551  0
C  C54  1  0.34387288  0.67713407  0.37805581  1  0  -0.003778  0  3.641559  0  0  -0.064705  0  3.898045  0  0  -0.059194  0  3.905735  0  0  -0.060036  -0.068318  0  3.892662  0
C  C55  1  0.65613330  0.82286397  0.87805720  1  0  -0.003697  0  3.641432  0  0  -0.064629  0  3.897875  0  0  -0.059121  0  3.905567  0  0  -0.059972  -0.068241  0  3.892491  0
C  C56  1  0.44726713  0.49879820  0.70862042  1  0  0.001904  0  3.667466  0  0  -0.064356  0  3.925783  0  0  -0.0586  0  3.935611  0  0  -0.055381  -0.068083  0  3.919002  0
C  C57  1  0.55273046  0.00119749  0.20862091  1  0  0.002032  0  3.667333  0  0  -0.064153  0  3.925557  0  0  -0.058407  0  3.935401  0  0  -0.055332  -0.067873  0  3.918751  0
C  C58  1  0.55273536  0.50120116  0.29137629  1  0  0.001809  0  3.66733  0  0  -0.064319  0  3.925534  0  0  -0.058564  0  3.935358  0  0  -0.055364  -0.068053  0  3.91877  0
C  C59  1  0.44727674  0.99880556  0.79137853  1  0  0.001941  0  3.667235  0  0  -0.064282  0  3.92548  0  0  -0.058519  0  3.935298  0  0  -0.05539  -0.068003  0  3.91868  0
C  C60  1  0.24781976  0.57888659  0.71472920  1  0  -0.05888  0  3.801054  0  0  -0.06209  0  4.058027  0  0  -0.06641  0  4.082778  0  0  -0.102619  -0.059127  0  4.041137  0
C  C61  1  0.75218666  0.92111265  0.21473106  1  0  -0.058817  0  3.800951  0  0  -0.062054  0  4.057921  0  0  -0.066374  0  4.082676  0  0  -0.102611  -0.059087  0  4.041038  0
C  C62  1  0.75219495  0.42111520  0.28526696  1  0  -0.058622  0  3.800663  0  0  -0.061849  0  4.057589  0  0  -0.066173  0  4.082341  0  0  -0.102472  -0.058884  0  4.040702  0
C  C63  1  0.24780990  0.07888919  0.78526674  1  0  -0.058784  0  3.801109  0  0  -0.062015  0  4.058072  0  0  -0.06634  0  4.082825  0  0  -0.102532  -0.05905  0  4.041186  0
C  C64  1  0.12811266  0.56439799  0.77336668  1  0  -0.242934  0  3.635745  0  0  -0.289347  0  3.874466  0  0  -0.293232  0  3.892937  0  0  -0.174387  -0.286507  0  3.861844  0
C  C65  1  0.87188350  0.93561274  0.27336476  1  0  -0.242892  0  3.635863  0  0  -0.289318  0  3.874596  0  0  -0.2932  0  3.893058  0  0  -0.174358  -0.286486  0  3.861982  0
C  C66  1  0.87189651  0.43561491  0.22663166  1  0  -0.243071  0  3.635665  0  0  -0.289497  0  3.874441  0  0  -0.29338  0  3.89291  0  0  -0.174515  -0.286659  0  3.861821  0
C  C67  1  0.12811288  0.06438540  0.72663796  1  0  -0.242994  0  3.636013  0  0  -0.289413  0  3.874757  0  0  -0.293298  0  3.893228  0  0  -0.174481  -0.286582  0  3.862141  0
C  C68  1  0.29736597  0.34487260  0.60684265  1  0  0.456306  0  3.881528  0  0  0.428601  0  4.138303  0  0  0.44849  0  4.155338  0  0  0.322685  0.414827  0  4.127149  0
C  C69  1  0.70262712  0.15512585  0.10683777  1  0  0.456306  0  3.881564  0  0  0.428577  0  4.138369  0  0  0.448463  0  4.155408  0  0  0.322704  0.414798  0  4.127217  0
C  C70  1  0.70263512  0.65512923  0.39315898  1  0  0.456215  0  3.881489  0  0  0.428497  0  4.138296  0  0  0.448384  0  4.155325  0  0  0.322655  0.41472  0  4.12714  0
C  C71  1  0.29737537  0.84487351  0.89316058  1  0  0.456314  0  3.881593  0  0  0.428605  0  4.138371  0  0  0.448493  0  4.15541  0  0  0.3227  0.414832  0  4.127211  0
N  N72  1  0.45953206  0.39606024  0.64172625  1  0  -0.185682  0  3.435512  0  0  -0.094338  0  3.658403  0  0  -0.113896  0  3.678631  0  0  -0.260106  -0.081036  0  3.644549  0
N  N73  1  0.54045546  0.10393769  0.14172650  1  0  -0.185936  0  3.435321  0  0  -0.094573  0  3.65827  0  0  -0.114132  0  3.678498  0  0  -0.260125  -0.081263  0  3.644414  0
N  N74  1  0.54047043  0.60393911  0.35827155  1  0  -0.185687  0  3.435206  0  0  -0.09436  0  3.658126  0  0  -0.113911  0  3.678338  0  0  -0.260037  -0.081056  0  3.644274  0
N  N75  1  0.45953958  0.89606415  0.85827403  1  0  -0.1858  0  3.435389  0  0  -0.094474  0  3.658318  0  0  -0.114039  0  3.678549  0  0  -0.260101  -0.081163  0  3.644461  0
N  N76  1  0.15896876  0.29779367  0.57131981  1  0  -0.545387  0  3.042637  0  0  -0.507659  0  3.363168  0  0  -0.519698  0  3.359698  0  0  -0.413186  -0.500183  0  3.366168  0
N  N77  1  0.84101682  0.20221642  0.07131755  1  0  -0.54535  0  3.042773  0  0  -0.507565  0  3.363238  0  0  -0.519624  0  3.359815  0  0  -0.413219  -0.500085  0  3.366236  0
N  N78  1  0.84102651  0.70221310  0.42868018  1  0  -0.545324  0  3.042798  0  0  -0.507564  0  3.36329  0  0  -0.519613  0  3.359851  0  0  -0.413219  -0.500083  0  3.366285  0
N  N79  1  0.15897553  0.79779283  0.92868189  1  0  -0.545404  0  3.042733  0  0  -0.507629  0  3.363189  0  0  -0.519684  0  3.359751  0  0  -0.413205  -0.500164  0  3.366211  0
N  N80  1  0.18828750  0.16136047  0.39269492  1  0  0.683989  0  4.14135  0  0  0.718996  0  4.429185  0  0  0.746351  0  4.43709  0  0  0.097877  0.716026  0  4.401801  0
N  N81  1  0.81171243  0.33863740  0.89269403  1  0  0.683978  0  4.141201  0  0  0.719105  0  4.428829  0  0  0.746461  0  4.436724  0  0  0.09794  0.716024  0  4.401582  0
N  N82  1  0.81171651  0.83863888  0.60730616  1  0  0.684029  0  4.141215  0  0  0.719154  0  4.428863  0  0  0.746509  0  4.436766  0  0  0.097937  0.716123  0  4.401557  0
N  N83  1  0.18827936  0.66135952  0.10730869  1  0  0.684024  0  4.141291  0  0  0.719126  0  4.428955  0  0  0.746479  0  4.436857  0  0  0.097982  0.716091  0  4.401662  0
O  O84  1  0.15870404  0.31268427  0.38664208  1  0  -0.451156  0  1.777086  0  0  -0.441218  0  1.997382  0  0  -0.454568  0  1.990599  0  0  -0.172222  -0.437313  0  1.995799  0
O  O85  1  0.84129478  0.18731862  0.88664204  1  0  -0.451069  0  1.777156  0  0  -0.441184  0  1.997431  0  0  -0.454529  0  1.990635  0  0  -0.172166  -0.43724  0  1.995891  0
O  O86  1  0.84130148  0.68731507  0.61335682  1  0  -0.451179  0  1.777085  0  0  -0.441285  0  1.997343  0  0  -0.454639  0  1.990563  0  0  -0.17223  -0.437358  0  1.995785  0
O  O87  1  0.15869880  0.81268446  0.11335795  1  0  -0.451139  0  1.777252  0  0  -0.44124  0  1.997516  0  0  -0.454583  0  1.990726  0  0  -0.17221  -0.437313  0  1.995962  0
O  O88  1  0.31576674  0.08820114  0.35536893  1  0  -0.440845  0  1.763856  0  0  -0.427352  0  1.966151  0  0  -0.44257  0  1.96231  0  0  -0.172579  -0.421933  0  1.962198  0
O  O89  1  0.68423755  0.41180221  0.85536723  1  0  -0.440835  0  1.763659  0  0  -0.427358  0  1.965882  0  0  -0.442581  0  1.962039  0  0  -0.172626  -0.4219  0  1.961973  0
O  O90  1  0.68424315  0.91179450  0.64463489  1  0  -0.440845  0  1.763771  0  0  -0.427385  0  1.966015  0  0  -0.442601  0  1.962169  0  0  -0.172624  -0.421943  0  1.962087  0
O  O91  1  0.31574090  0.58820091  0.14464261  1  0  -0.440856  0  1.763552  0  0  -0.427351  0  1.965754  0  0  -0.442573  0  1.961914  0  0  -0.172647  -0.421909  0  1.961837  0
O  O92  1  0.08014308  0.07641850  0.44037908  1  0  -0.507776  0  1.950001  0  0  -0.487307  0  2.231958  0  0  -0.502644  0  2.215304  0  0  -0.225282  -0.481658  0  2.237657  0
O  O93  1  0.91985247  0.42357990  0.94037863  1  0  -0.50788  0  1.949968  0  0  -0.487475  0  2.231895  0  0  -0.502809  0  2.215231  0  0  -0.225378  -0.481794  0  2.237627  0
O  O94  1  0.91985325  0.92357840  0.55962091  1  0  -0.507835  0  1.950011  0  0  -0.487406  0  2.231916  0  0  -0.502744  0  2.215262  0  0  -0.225324  -0.481747  0  2.237632  0
O  O95  1  0.08015310  0.57642068  0.05962135  1  0  -0.507825  0  1.950068  0  0  -0.487446  0  2.232048  0  0  -0.502783  0  2.215395  0  0  -0.225341  -0.481779  0  2.23777  0
