# generated using pymatgen
data_Cu2H14C19S2(IN3)2
_symmetry_space_group_name_H-M   'P 1'
_cell_length_a   8.51860999
_cell_length_b   9.22791509
_cell_length_c   15.78986987
_cell_angle_alpha   100.75418614
_cell_angle_beta   90.04267657
_cell_angle_gamma   117.47130562
_symmetry_Int_Tables_number   1
_chemical_formula_structural   Cu2H14C19S2(IN3)2
_chemical_formula_sum   'Cu4 H28 C38 S4 I4 N12'
_cell_volume   1076.54556626
_cell_formula_units_Z   2
loop_
 _symmetry_equiv_pos_site_id
 _symmetry_equiv_pos_as_xyz
  1  'x, y, z'
loop_
 _atom_site_type_symbol
 _atom_site_label
 _atom_site_symmetry_multiplicity
 _atom_site_fract_x
 _atom_site_fract_y
 _atom_site_fract_z
 _atom_site_occupancy
 _atom_site_hle17_bader_spin_density
 _atom_site_hle17_ddec_charge
 _atom_site_hle17_ddec_spin_density
 _atom_site_hle17_ddec_sum_bond_order
 _atom_site_hle17_magmom
 _atom_site_hse06_10hf_bader_spin_density
 _atom_site_hse06_10hf_ddec_charge
 _atom_site_hse06_10hf_ddec_spin_density
 _atom_site_hse06_10hf_ddec_sum_bond_order
 _atom_site_hse06_10hf_magmom
 _atom_site_hse06_bader_spin_density
 _atom_site_hse06_ddec_charge
 _atom_site_hse06_ddec_spin_density
 _atom_site_hse06_ddec_sum_bond_order
 _atom_site_hse06_magmom
 _atom_site_pbe_bader_spin_density
 _atom_site_pbe_cm5_charge
 _atom_site_pbe_ddec_charge
 _atom_site_pbe_ddec_spin_density
 _atom_site_pbe_ddec_sum_bond_order
 _atom_site_pbe_magmom
Cu  Cu0  1  0.99323574  0.85966179  0.97328254  1  0  0.279672  0  2.230341  0  0  0.190507  0  2.727032  0  0  0.197548  0  2.672954  0  0  0.331451  0.188895  0  2.760454  0
Cu  Cu1  1  0.13354278  0.14030914  0.52679434  1  0  0.279987  0  2.230017  0  0  0.191139  0  2.726502  0  0  0.198068  0  2.672708  0  0  0.331825  0.189474  0  2.759886  0
Cu  Cu2  1  0.00676555  0.14033137  0.02671759  1  0  0.279631  0  2.23023  0  0  0.190465  0  2.72693  0  0  0.197484  0  2.672855  0  0  0.33141  0.188863  0  2.76032  0
Cu  Cu3  1  0.86645889  0.85969652  0.47320775  1  0  0.280063  0  2.229924  0  0  0.191154  0  2.726519  0  0  0.198132  0  2.672715  0  0  0.331867  0.189537  0  2.759822  0
H  H4  1  0.73774082  0.23128529  0.90680780  1  0  0.098293  0  0.999412  0  0  0.107996  0  1.066264  0  0  0.111878  0  1.064193  0  0  0.088999  0.105124  0  1.067932  0
H  H5  1  0.50648447  0.76867266  0.59298523  1  0  0.098978  0  0.999378  0  0  0.108461  0  1.066412  0  0  0.112439  0  1.064196  0  0  0.08935  0.105541  0  1.068116  0
H  H6  1  0.26225935  0.76871032  0.09318943  1  0  0.09826  0  0.999389  0  0  0.107967  0  1.066279  0  0  0.111838  0  1.064235  0  0  0.088973  0.105092  0  1.067941  0
H  H7  1  0.49351597  0.23133052  0.40701850  1  0  0.099014  0  0.9993  0  0  0.108497  0  1.06634  0  0  0.112488  0  1.064103  0  0  0.089362  0.10558  0  1.068035  0
H  H8  1  0.52984969  0.17055301  0.02182751  1  0  0.087481  0  0.975508  0  0  0.09164  0  1.050215  0  0  0.095151  0  1.047763  0  0  0.091107  0.089007  0  1.052081  0
H  H9  1  0.35890110  0.82923162  0.47789597  1  0  0.087294  0  0.975673  0  0  0.091513  0  1.050175  0  0  0.094966  0  1.047857  0  0  0.091198  0.08892  0  1.051958  0
H  H10  1  0.47014224  0.82944258  0.97816718  1  0  0.087525  0  0.975367  0  0  0.091659  0  1.050068  0  0  0.095179  0  1.047613  0  0  0.091114  0.089026  0  1.051935  0
H  H11  1  0.64109932  0.17077155  0.52210649  1  0  0.087305  0  0.975682  0  0  0.091528  0  1.050173  0  0  0.094981  0  1.047855  0  0  0.091208  0.088932  0  1.051957  0
H  H12  1  0.71712270  0.70151210  0.10393911  1  0  0.07531  0  0.945754  0  0  0.080307  0  1.017201  0  0  0.083586  0  1.01434  0  0  0.106493  0.077823  0  1.019453  0
H  H13  1  0.01508051  0.29826332  0.39603316  1  0  0.075506  0  0.945954  0  0  0.080377  0  1.017444  0  0  0.083671  0  1.014542  0  0  0.10653  0.077876  0  1.019732  0
H  H14  1  0.28287103  0.29848474  0.89605571  1  0  0.075329  0  0.945586  0  0  0.080307  0  1.017045  0  0  0.083586  0  1.014184  0  0  0.106485  0.077822  0  1.019303  0
H  H15  1  0.98492468  0.70174234  0.60396893  1  0  0.075632  0  0.946009  0  0  0.080496  0  1.017477  0  0  0.08379  0  1.014575  0  0  0.106589  0.077998  0  1.019767  0
H  H16  1  0.52142808  0.40771224  0.12336553  1  0  0.094217  0  0.983987  0  0  0.102294  0  1.050601  0  0  0.104803  0  1.050675  0  0  0.095727  0.100452  0  1.050736  0
H  H17  1  0.11306316  0.59202342  0.37647422  1  0  0.093767  0  0.985938  0  0  0.101504  0  1.052962  0  0  0.103985  0  1.053112  0  0  0.095387  0.09965  0  1.053112  0
H  H18  1  0.47856204  0.59228208  0.87662776  1  0  0.0942  0  0.98401  0  0  0.102308  0  1.050596  0  0  0.104806  0  1.0507  0  0  0.095713  0.100466  0  1.050737  0
H  H19  1  0.88694132  0.40797847  0.62352557  1  0  0.093785  0  0.985873  0  0  0.101514  0  1.052911  0  0  0.103992  0  1.053055  0  0  0.095392  0.099658  0  1.053057  0
H  H20  1  0.90031219  0.29821787  0.80514637  1  0  0.122218  0  0.966754  0  0  0.12954  0  1.03293  0  0  0.134531  0  1.030446  0  0  0.100006  0.125885  0  1.035016  0
H  H21  1  0.60228130  0.70176276  0.69486664  1  0  0.121908  0  0.967526  0  0  0.12925  0  1.033738  0  0  0.134205  0  1.031352  0  0  0.100012  0.125617  0  1.035753  0
H  H22  1  0.09968986  0.70178152  0.19485252  1  0  0.122194  0  0.96673  0  0  0.129517  0  1.032916  0  0  0.134511  0  1.030427  0  0  0.099995  0.125863  0  1.035001  0
H  H23  1  0.39772498  0.29824039  0.30513455  1  0  0.121874  0  0.96748  0  0  0.129254  0  1.03366  0  0  0.13421  0  1.031274  0  0  0.100033  0.125618  0  1.035673  0
H  H24  1  0.12027607  0.41404714  0.70114744  1  0  0.072607  0  0.958788  0  0  0.078875  0  1.02685  0  0  0.082012  0  1.023115  0  0  0.104563  0.07645  0  1.029638  0
H  H25  1  0.70617210  0.58591495  0.79906016  1  0  0.073191  0  0.958878  0  0  0.079173  0  1.027139  0  0  0.082252  0  1.023584  0  0  0.10451  0.076779  0  1.02986  0
H  H26  1  0.87973429  0.58595478  0.29885489  1  0  0.072634  0  0.958815  0  0  0.078889  0  1.026865  0  0  0.082044  0  1.023122  0  0  0.104529  0.07646  0  1.02966  0
H  H27  1  0.29382653  0.41408698  0.20094343  1  0  0.073216  0  0.958861  0  0  0.079192  0  1.027133  0  0  0.082275  0  1.023567  0  0  0.104543  0.076795  0  1.029852  0
H  H28  1  0.56536541  0.11199009  0.76890192  1  0  0.126031  0  0.965836  0  0  0.133553  0  1.036048  0  0  0.136138  0  1.034308  0  0  0.101604  0.131598  0  1.037456  0
H  H29  1  0.45285358  0.88752121  0.73133956  1  0  0.126019  0  0.965791  0  0  0.133515  0  1.036063  0  0  0.13611  0  1.03435  0  0  0.101688  0.13158  0  1.037437  0
H  H30  1  0.43463547  0.88800931  0.23109888  1  0  0.126013  0  0.965865  0  0  0.133537  0  1.036076  0  0  0.136127  0  1.034336  0  0  0.101584  0.131581  0  1.037484  0
H  H31  1  0.54714199  0.11247695  0.26866110  1  0  0.126025  0  0.965771  0  0  0.133519  0  1.036052  0  0  0.136116  0  1.034341  0  0  0.1017  0.131581  0  1.037426  0
C  C32  1  0.95804392  0.54711582  0.87708057  1  0  0.23326  0  3.714954  0  0  0.225229  0  3.955878  0  0  0.238283  0  3.970659  0  0  0.128734  0.216578  0  3.946115  0
C  C33  1  0.41097790  0.45292942  0.62293537  1  0  0.233413  0  3.713352  0  0  0.226038  0  3.952967  0  0  0.239095  0  3.967766  0  0  0.129126  0.217387  0  3.943187  0
C  C34  1  0.04195624  0.45287978  0.12291538  1  0  0.233082  0  3.715051  0  0  0.225023  0  3.95599  0  0  0.238075  0  3.970772  0  0  0.128626  0.21637  0  3.946222  0
C  C35  1  0.58902250  0.54707371  0.37706392  1  0  0.233282  0  3.713738  0  0  0.226086  0  3.953145  0  0  0.239133  0  3.967942  0  0  0.12915  0.217446  0  3.943379  0
C  C36  1  0.72664074  0.33278681  0.94953759  1  0  -0.118428  0  3.685003  0  0  -0.139945  0  3.93271  0  0  -0.144885  0  3.951608  0  0  -0.080963  -0.136869  0  3.920344  0
C  C37  1  0.39377965  0.66713926  0.55029130  1  0  -0.119328  0  3.684924  0  0  -0.141118  0  3.932858  0  0  -0.14604  0  3.951606  0  0  -0.08137  -0.138072  0  3.920657  0
C  C38  1  0.27336068  0.66721130  0.05045927  1  0  -0.118328  0  3.684829  0  0  -0.139849  0  3.932399  0  0  -0.144817  0  3.951348  0  0  -0.080915  -0.136762  0  3.920039  0
C  C39  1  0.60622148  0.33286766  0.44971219  1  0  -0.119421  0  3.684999  0  0  -0.141188  0  3.932943  0  0  -0.146142  0  3.951704  0  0  -0.081406  -0.138102  0  3.920701  0
C  C40  1  0.83099556  0.49883791  0.94274069  1  0  0.152908  0  3.732664  0  0  0.152733  0  3.969872  0  0  0.155735  0  3.989641  0  0  0.108042  0.150699  0  3.956808  0
C  C41  1  0.33200714  0.50112605  0.55720923  1  0  0.153701  0  3.730708  0  0  0.15439  0  3.967027  0  0  0.157415  0  3.986859  0  0  0.108845  0.152345  0  3.953857  0
C  C42  1  0.16900172  0.50115896  0.05725666  1  0  0.152838  0  3.732654  0  0  0.152771  0  3.969796  0  0  0.155773  0  3.989538  0  0  0.10807  0.150739  0  3.956727  0
C  C43  1  0.66798780  0.49887085  0.44279130  1  0  0.153827  0  3.730293  0  0  0.154392  0  3.966713  0  0  0.157451  0  3.986495  0  0  0.108771  0.152292  0  3.953628  0
C  C44  1  0.61320665  0.29866227  0.01480347  1  0  -0.012602  0  3.727344  0  0  -0.029693  0  3.975723  0  0  -0.02688  0  3.993817  0  0  -0.076586  -0.031511  0  3.963813  0
C  C45  1  0.31425893  0.70116363  0.48498426  1  0  -0.011751  0  3.725899  0  0  -0.028649  0  3.974253  0  0  -0.025838  0  3.992403  0  0  -0.076525  -0.030469  0  3.962334  0
C  C46  1  0.38678872  0.70133081  0.98518969  1  0  -0.012684  0  3.727176  0  0  -0.029749  0  3.975643  0  0  -0.026942  0  3.993733  0  0  -0.076633  -0.031569  0  3.963737  0
C  C47  1  0.68574376  0.29883702  0.51501667  1  0  -0.011814  0  3.725917  0  0  -0.02869  0  3.974224  0  0  -0.02588  0  3.992375  0  0  -0.076525  -0.030505  0  3.962304  0
C  C48  1  0.71571578  0.59361335  0.06086689  1  0  0.126867  0  3.694797  0  0  0.099664  0  3.943982  0  0  0.104908  0  3.960783  0  0  0.043826  0.096331  0  3.932918  0
C  C49  1  0.12170917  0.40620748  0.43902979  1  0  0.126177  0  3.695752  0  0  0.099728  0  3.94487  0  0  0.105027  0  3.961696  0  0  0.044184  0.096355  0  3.933736  0
C  C50  1  0.28427687  0.40638602  0.93913073  1  0  0.126748  0  3.694705  0  0  0.099617  0  3.943923  0  0  0.104853  0  3.960714  0  0  0.043793  0.096281  0  3.932861  0
C  C51  1  0.87829533  0.59379444  0.56097254  1  0  0.12599  0  3.695983  0  0  0.099557  0  3.94508  0  0  0.104858  0  3.961911  0  0  0.04413  0.09618  0  3.933958  0
C  C52  1  0.60831616  0.43124692  0.07160452  1  0  -0.100916  0  3.717499  0  0  -0.112689  0  3.96083  0  0  -0.118428  0  3.983004  0  0  -0.084783  -0.109155  0  3.946161  0
C  C53  1  0.17665059  0.56853621  0.42822358  1  0  -0.100458  0  3.719469  0  0  -0.112218  0  3.962608  0  0  -0.117973  0  3.984789  0  0  -0.084933  -0.108667  0  3.947919  0
C  C54  1  0.39167390  0.56874492  0.92838977  1  0  -0.100848  0  3.717714  0  0  -0.112671  0  3.961035  0  0  -0.118411  0  3.983205  0  0  -0.084728  -0.10914  0  3.946373  0
C  C55  1  0.82334976  0.43146447  0.57177925  1  0  -0.100411  0  3.719328  0  0  -0.11217  0  3.962472  0  0  -0.117921  0  3.984648  0  0  -0.084951  -0.108618  0  3.947786  0
C  C56  1  0.17862632  0.76370140  0.82438288  1  0  0.343055  0  3.788141  0  0  0.326531  0  4.065815  0  0  0.343702  0  4.077166  0  0  0.23823  0.315065  0  4.05831  0
C  C57  1  0.41501530  0.23630354  0.67572902  1  0  0.341934  0  3.79055  0  0  0.32583  0  4.067277  0  0  0.343002  0  4.078652  0  0  0.238223  0.314361  0  4.059769  0
C  C58  1  0.82137277  0.23629675  0.17561778  1  0  0.343104  0  3.788042  0  0  0.326591  0  4.065703  0  0  0.343761  0  4.077057  0  0  0.238266  0.315124  0  4.058196  0
C  C59  1  0.58498339  0.76370086  0.32427167  1  0  0.341934  0  3.790487  0  0  0.325774  0  4.067288  0  0  0.342946  0  4.078664  0  0  0.238135  0.314304  0  4.059785  0
C  C60  1  0.97725199  0.43285980  0.81162633  1  0  -0.202456  0  3.681042  0  0  -0.224351  0  3.935288  0  0  -0.234717  0  3.951285  0  0  -0.087944  -0.218158  0  3.925313  0
C  C61  1  0.54447297  0.56713100  0.68842841  1  0  -0.201591  0  3.681735  0  0  -0.223882  0  3.935634  0  0  -0.234249  0  3.951627  0  0  -0.087974  -0.217676  0  3.925663  0
C  C62  1  0.02274943  0.56713834  0.18837243  1  0  -0.202315  0  3.680947  0  0  -0.224228  0  3.935206  0  0  -0.234591  0  3.951206  0  0  -0.087906  -0.218034  0  3.925231  0
C  C63  1  0.45553403  0.43287593  0.31157508  1  0  -0.201557  0  3.68195  0  0  -0.223926  0  3.935783  0  0  -0.234294  0  3.951779  0  0  -0.088042  -0.217717  0  3.925804  0
C  C64  1  0.10141957  0.49808996  0.75384892  1  0  0.176299  0  3.714719  0  0  0.149376  0  3.97419  0  0  0.162907  0  3.984406  0  0  0.052916  0.140561  0  3.967419  0
C  C65  1  0.60334339  0.50187014  0.74629935  1  0  0.175337  0  3.715713  0  0  0.1485  0  3.975453  0  0  0.162008  0  3.985637  0  0  0.052757  0.139676  0  3.968697  0
C  C66  1  0.89858554  0.50191319  0.24615164  1  0  0.17621  0  3.714813  0  0  0.149329  0  3.974259  0  0  0.162835  0  3.984464  0  0  0.052945  0.140512  0  3.967493  0
C  C67  1  0.39665766  0.49813430  0.25370451  1  0  0.175353  0  3.715815  0  0  0.148507  0  3.975538  0  0  0.162018  0  3.985724  0  0  0.052789  0.139684  0  3.968777  0
C  C68  1  0.43677741  0.99987696  0.75009193  1  0  -0.202155  0  3.632496  0  0  -0.234565  0  3.897828  0  0  -0.232658  0  3.90389  0  0  -0.148354  -0.23574  0  3.893604  0
C  C69  1  0.56322051  0.00012119  0.24990873  1  0  -0.20217  0  3.632438  0  0  -0.234595  0  3.897799  0  0  -0.232704  0  3.90388  0  0  -0.14835  -0.235769  0  3.893575  0
S  S70  1  0.31124574  0.98079042  0.84345039  1  0  0.02778  0  2.416721  0  0  0.020829  0  2.774303  0  0  0.017575  0  2.768974  0  0  0.046566  0.022603  0  2.778304  0
S  S71  1  0.33068066  0.01920972  0.65658982  1  0  0.027609  0  2.417139  0  0  0.020461  0  2.774477  0  0  0.01727  0  2.769096  0  0  0.046306  0.022194  0  2.778539  0
S  S72  1  0.68874989  0.01921021  0.15654863  1  0  0.027785  0  2.416652  0  0  0.020826  0  2.774255  0  0  0.017584  0  2.768925  0  0  0.046567  0.022597  0  2.778253  0
S  S73  1  0.66932209  0.98079340  0.34340883  1  0  0.027697  0  2.417076  0  0  0.020581  0  2.774424  0  0  0.017394  0  2.769049  0  0  0.046361  0.022303  0  2.778484  0
I  I74  1  0.81887441  0.96029718  0.88220645  1  0  -0.432435  0  1.463838  0  0  -0.386215  0  1.882621  0  0  -0.408443  0  1.849983  0  0  -0.213158  -0.369735  0  1.903014  0
I  I75  1  0.85859965  0.03959419  0.61769357  1  0  -0.432526  0  1.46372  0  0  -0.386521  0  1.8826  0  0  -0.408743  0  1.850023  0  0  -0.21322  -0.369997  0  1.902914  0
I  I76  1  0.18112248  0.03968719  0.11778894  1  0  -0.432426  0  1.463915  0  0  -0.386234  0  1.88278  0  0  -0.408459  0  1.850139  0  0  -0.213165  -0.369756  0  1.903167  0
I  I77  1  0.14140789  0.96041148  0.38230979  1  0  -0.432515  0  1.463703  0  0  -0.386514  0  1.882598  0  0  -0.408735  0  1.850028  0  0  -0.213193  -0.369988  0  1.902908  0
N  N78  1  0.82367310  0.62733980  0.99745258  1  0  -0.288367  0  3.309677  0  0  -0.22497  0  3.58702  0  0  -0.234759  0  3.596708  0  0  -0.346553  -0.219129  0  3.580617  0
N  N79  1  0.19608968  0.37259245  0.50251911  1  0  -0.289056  0  3.309135  0  0  -0.227132  0  3.587668  0  0  -0.237036  0  3.59748  0  0  -0.347783  -0.221133  0  3.581051  0
N  N80  1  0.17632230  0.37265332  0.00254438  1  0  -0.288266  0  3.309627  0  0  -0.224967  0  3.586967  0  0  -0.234722  0  3.596617  0  0  -0.346577  -0.219126  0  3.580557  0
N  N81  1  0.80391201  0.62741324  0.49748615  1  0  -0.289077  0  3.30889  0  0  -0.227112  0  3.587408  0  0  -0.23704  0  3.597228  0  0  -0.347739  -0.221099  0  3.580829  0
N  N82  1  0.05949411  0.71377367  0.88305053  1  0  -0.379729  0  3.292396  0  0  -0.315226  0  3.574555  0  0  -0.329294  0  3.578246  0  0  -0.352634  -0.306686  0  3.572071  0
N  N83  1  0.34577309  0.28626231  0.61701278  1  0  -0.379593  0  3.291574  0  0  -0.315056  0  3.572781  0  0  -0.329128  0  3.576481  0  0  -0.353102  -0.306526  0  3.570299  0
N  N84  1  0.94050436  0.28622323  0.11694936  1  0  -0.379681  0  3.292264  0  0  -0.315174  0  3.574409  0  0  -0.329243  0  3.5781  0  0  -0.352596  -0.306633  0  3.571917  0
N  N85  1  0.65422671  0.71373961  0.38298955  1  0  -0.379603  0  3.291686  0  0  -0.31508  0  3.572825  0  0  -0.329163  0  3.576552  0  0  -0.353061  -0.306551  0  3.570349  0
N  N86  1  0.20219188  0.66283367  0.75903703  1  0  -0.380102  0  3.048826  0  0  -0.338723  0  3.312598  0  0  -0.354968  0  3.325539  0  0  -0.321238  -0.32803  0  3.303882  0
N  N87  1  0.53938826  0.33713135  0.74114906  1  0  -0.379333  0  3.050262  0  0  -0.338011  0  3.313661  0  0  -0.354238  0  3.326621  0  0  -0.321091  -0.327307  0  3.304923  0
N  N88  1  0.79780909  0.33716823  0.24096402  1  0  -0.380071  0  3.048847  0  0  -0.338695  0  3.312586  0  0  -0.354943  0  3.32555  0  0  -0.321225  -0.328001  0  3.30387  0
N  N89  1  0.46061265  0.66286809  0.25885490  1  0  -0.379355  0  3.050523  0  0  -0.338006  0  3.313926  0  0  -0.35423  0  3.326874  0  0  -0.321085  -0.327302  0  3.305186  0
