# generated using pymatgen
data_CoH9C8NO7
_symmetry_space_group_name_H-M   'P 1'
_cell_length_a   8.78590502
_cell_length_b   10.16438447
_cell_length_c   11.10218747
_cell_angle_alpha   90.07277693
_cell_angle_beta   109.24199115
_cell_angle_gamma   90.09098282
_symmetry_Int_Tables_number   1
_chemical_formula_structural   CoH9C8NO7
_chemical_formula_sum   'Co4 H36 C32 N4 O28'
_cell_volume   936.07135401
_cell_formula_units_Z   4
loop_
 _symmetry_equiv_pos_site_id
 _symmetry_equiv_pos_as_xyz
  1  'x, y, z'
loop_
 _atom_site_type_symbol
 _atom_site_label
 _atom_site_symmetry_multiplicity
 _atom_site_fract_x
 _atom_site_fract_y
 _atom_site_fract_z
 _atom_site_occupancy
 _atom_site_hle17_ddec_charge
 _atom_site_hle17_ddec_spin_density
 _atom_site_hle17_ddec_sum_bond_order
 _atom_site_hle17_magmom
 _atom_site_hse06_10hf_ddec_charge
 _atom_site_hse06_10hf_ddec_spin_density
 _atom_site_hse06_10hf_ddec_sum_bond_order
 _atom_site_hse06_10hf_magmom
 _atom_site_hse06_ddec_charge
 _atom_site_hse06_ddec_spin_density
 _atom_site_hse06_ddec_sum_bond_order
 _atom_site_hse06_magmom
 _atom_site_pbe_cm5_charge
 _atom_site_pbe_ddec_charge
 _atom_site_pbe_ddec_spin_density
 _atom_site_pbe_ddec_sum_bond_order
 _atom_site_pbe_magmom
Co  Co0  1  0.87973294  0.61279193  0.52676137  1  1.151977  2.862779  1.775294  2.614  1.132372  2.858989  2.167442  2.68  1.206168  2.8985  2.096108  2.749  0.64471  1.073481  2.819112  2.220884  2.61
Co  Co1  1  0.11853782  0.11170456  0.97328205  1  1.144137  2.863802  1.784767  2.614  1.127261  2.861261  2.175341  2.681  1.2006  2.899569  2.104291  2.749  0.643245  1.067924  2.823676  2.229506  2.613
Co  Co2  1  0.12065559  0.38716876  0.47325186  1  1.147475  -2.966591  1.779082  -2.613  1.12781  -2.905978  2.171579  -2.68  1.201873  -2.951356  2.10006  -2.749  0.643072  1.068642  -2.864555  2.22515  -2.609
Co  Co3  1  0.88178807  0.88836622  0.02665925  1  1.147163  2.864196  1.78204  2.614  1.130403  2.861741  2.17241  2.682  1.203593  2.899918  2.10139  2.749  0.644326  1.071157  2.824448  2.226572  2.613
H  H4  1  0.61866665  0.42437139  0.53596080  1  0.406145  0.000684  0.856283  0.001  0.389054  0.000915  0.917405  0.001  0.396658  0.000673  0.908716  0.001  0.304773  0.383634  0.001149  0.923483  0.001
H  H5  1  0.36953187  0.91764432  0.96567100  1  0.400637  0.000424  0.864308  0.001  0.383903  0.000653  0.925638  0.001  0.391479  0.000451  0.917005  0.001  0.302795  0.378462  0.00085  0.931751  0.001
H  H6  1  0.37120778  0.58404259  0.46385156  1  0.399818  -0.000426  0.863365  -0.001  0.382765  -0.000673  0.925716  -0.001  0.390339  -0.000487  0.917081  -0.001  0.301974  0.377345  -0.000784  0.931812  -0.001
H  H7  1  0.62359650  0.07673272  0.03411061  1  0.404615  0.000517  0.858986  0.001  0.388058  0.00073  0.91943  0.001  0.395642  0.000511  0.910762  0.001  0.304513  0.382601  0.000896  0.925555  0.001
H  H8  1  0.76673690  0.43171426  0.66403247  1  0.428209  -7e-06  0.874371  0.0  0.394533  0.00015  0.943056  0.0  0.406269  6.6e-05  0.926092  0.0  0.2882  0.386141  0.000223  0.955082  0.0
H  H9  1  0.23086188  0.93508878  0.83469555  1  0.427192  -6.9e-05  0.876128  0.0  0.39404  0.000103  0.944198  0.0  0.405869  1.8e-05  0.927107  0.0  0.288083  0.385601  0.000177  0.95628  0.0
H  H10  1  0.23156628  0.56500756  0.33371443  1  0.426163  5.1e-05  0.87752  0.0  0.392758  -0.000108  0.946138  0.0  0.404531  -3.4e-05  0.929135  0.0  0.28751  0.384348  -0.000166  0.958174  0.0
H  H11  1  0.76814953  0.06714744  0.16379847  1  0.427162  -4.2e-05  0.875908  0.0  0.393799  0.000122  0.944278  0.0  0.405605  3.5e-05  0.927214  0.0  0.287855  0.385362  0.000192  0.956368  0.0
H  H12  1  0.79041951  0.71982762  0.70961586  1  0.433457  -9.8e-05  0.866079  0.0  0.404513  0.000178  0.926674  0.0  0.415582  1.8e-05  0.910918  0.0  0.293955  0.396469  0.000337  0.938  0.001
H  H13  1  0.20948203  0.21982672  0.79095640  1  0.434045  -3.1e-05  0.864548  0.0  0.40513  0.000194  0.92517  0.0  0.416178  4.2e-05  0.909426  0.0  0.294021  0.397088  0.000377  0.936501  0.001
H  H14  1  0.21009472  0.27971699  0.29038898  1  0.433606  2e-05  0.865765  0.0  0.404938  -0.000198  0.925986  0.0  0.416038  -4e-05  0.910189  0.0  0.29429  0.396901  -0.000382  0.937279  -0.001
H  H15  1  0.79093532  0.78051963  0.20903516  1  0.434856  -0.000112  0.863408  0.0  0.40573  0.000164  0.924397  0.0  0.416781  1.8e-05  0.908633  0.0  0.294304  0.397685  0.000316  0.935743  0.001
H  H16  1  0.97702573  0.75465015  0.72334873  1  0.41845  -0.000124  0.889389  0.0  0.386217  0.000254  0.957485  0.001  0.397903  9.2e-05  0.940759  0.0  0.292637  0.377805  0.000413  0.969449  0.001
H  H17  1  0.02291159  0.25416141  0.77719596  1  0.418674  -0.000112  0.888992  0.0  0.386153  0.000273  0.957351  0.001  0.397756  0.000128  0.940743  0.0  0.29266  0.377779  0.000413  0.969257  0.001
H  H18  1  0.02315317  0.24586123  0.27651770  1  0.419217  9.5e-05  0.887932  0.0  0.386579  -0.000308  0.956817  -0.001  0.398252  -0.000161  0.940114  0.0  0.292924  0.37819  -0.000449  0.968744  -0.001
H  H19  1  0.97713746  0.74535228  0.22267511  1  0.418383  -0.000121  0.88992  0.0  0.386337  0.000247  0.957101  0.001  0.397934  9e-05  0.940499  0.0  0.292783  0.37797  0.000406  0.969006  0.001
H  H20  1  0.50634539  0.30934476  0.96314500  1  0.125715  9.5e-05  0.985047  0.0  0.127527  2.1e-05  1.059862  0.0  0.132316  -1.2e-05  1.054979  0.0  0.126226  0.12399  3.7e-05  1.063347  0.0
H  H21  1  0.49324797  0.80980393  0.53748044  1  0.12615  -0.000246  0.984939  -0.001  0.127651  3.2e-05  1.05996  0.0  0.132511  -1.6e-05  1.055  0.0  0.126268  0.123861  0.000185  1.063831  0.0
H  H22  1  0.49393665  0.69037505  0.03720395  1  0.126119  1.3e-05  0.984977  0.0  0.127623  1.1e-05  1.060061  0.0  0.132544  -2e-05  1.055035  0.0  0.126042  0.123975  7e-05  1.063728  0.0
H  H23  1  0.50712178  0.19062526  0.46283152  1  0.125988  -0.000349  0.985093  -0.001  0.127414  6.6e-05  1.060202  0.0  0.132315  6.5e-05  1.055189  0.0  0.126239  0.123657  0.000146  1.063969  0.0
H  H24  1  0.62547240  0.38605180  0.36650127  1  0.113607  -2.8e-05  0.966023  0.0  0.121805  -9.1e-05  1.034109  0.0  0.125854  -8.1e-05  1.029916  0.0  0.11252  0.118664  -5.2e-05  1.03765  0.0
H  H25  1  0.37537427  0.88719573  0.13497661  1  0.111016  -0.000417  0.968593  -0.001  0.120134  -8.4e-05  1.035661  0.0  0.124226  -0.000102  1.031295  0.0  0.112137  0.116976  -7.3e-05  1.039368  0.0
H  H26  1  0.37605434  0.61314388  0.63435626  1  0.111413  0.000124  0.967919  0.0  0.120271  9.7e-05  1.035176  0.0  0.124359  9e-05  1.030932  0.0  0.112233  0.117157  9.5e-05  1.03867  0.0
H  H27  1  0.62586160  0.11314866  0.86559345  1  0.11229  -0.000531  0.966901  -0.001  0.120864  -9.9e-05  1.034462  0.0  0.12496  -0.000121  1.03008  0.0  0.112492  0.117685  -9.9e-05  1.038195  0.0
H  H28  1  0.92736249  0.51852463  0.15300330  1  0.124968  -4.2e-05  0.968968  0.0  0.129416  -3.5e-05  1.031209  0.0  0.133368  -1.8e-05  1.027661  0.0  0.131914  0.126199  -7.2e-05  1.034674  0.0
H  H29  1  0.07353597  0.01951714  0.34862625  1  0.125667  -0.000236  0.965735  0.0  0.129805  -1.7e-05  1.028542  0.0  0.133751  -3.3e-05  1.024987  0.0  0.132288  0.126558  -2.3e-05  1.032078  0.0
H  H30  1  0.07281664  0.48129820  0.84704746  1  0.125411  7e-05  0.96706  0.0  0.129791  -4.6e-05  1.029395  0.0  0.13374  -5.2e-05  1.025836  0.0  0.132162  0.126564  -5.8e-05  1.032859  0.0
H  H31  1  0.92670437  0.98072767  0.65124142  1  0.125353  -0.000413  0.966367  -0.001  0.129455  -8.9e-05  1.029457  0.0  0.133449  -9.7e-05  1.025873  0.0  0.132058  0.12619  -5.5e-05  1.033009  0.0
H  H32  1  0.79140723  0.53372290  0.92878137  1  0.132596  -0.000206  0.913855  0.0  0.144422  -0.000122  0.971941  0.0  0.147009  -0.00013  0.970803  0.0  0.128572  0.142673  -0.000178  0.972769  0.0
H  H33  1  0.20968394  0.03441695  0.57292699  1  0.131713  -5.4e-05  0.913346  0.0  0.143471  8.8e-05  0.97192  0.0  0.146017  6.4e-05  0.970816  0.0  0.128519  0.141799  5.8e-05  0.97267  0.0
H  H34  1  0.20871951  0.46581548  0.07114508  1  0.132129  -0.000201  0.913789  0.0  0.144392  -0.000156  0.971515  0.0  0.147019  -0.000144  0.970316  0.0  0.128694  0.142637  -0.000231  0.972372  0.0
H  H35  1  0.79006162  0.96594053  0.42678182  1  0.131981  -0.000111  0.913121  0.0  0.144172  -0.000107  0.971326  0.0  0.146668  -0.000104  0.970221  0.0  0.128686  0.142518  -6.1e-05  0.972092  0.0
H  H36  1  0.63141042  0.42282482  0.85495011  1  0.122217  4.7e-05  0.932308  0.0  0.132188  0.000173  0.996923  0.0  0.134026  0.000124  0.996968  0.0  0.124087  0.131161  0.000158  0.996685  0.0
H  H37  1  0.36900596  0.92329495  0.64619924  1  0.123128  1.8e-05  0.931157  0.0  0.132875  0.000172  0.995826  0.0  0.13476  0.000123  0.995826  0.0  0.124189  0.131798  0.000207  0.995669  0.0
H  H38  1  0.36876003  0.57664685  0.14520800  1  0.122799  -4.9e-05  0.931516  0.0  0.132634  3.1e-05  0.996309  0.0  0.134473  3.5e-05  0.996361  0.0  0.124448  0.131617  4.9e-05  0.996081  0.0
H  H39  1  0.63108616  0.07744474  0.35383649  1  0.122507  -1e-05  0.931865  0.0  0.132915  -4.5e-05  0.996043  0.0  0.134817  -3.9e-05  0.995961  0.0  0.12433  0.131818  -5.5e-05  0.995922  0.0
C  C40  1  0.58396966  0.34903792  0.05397123  1  0.017157  -0.002365  3.58493  -0.003  -0.045753  -0.001063  3.855017  -0.001  -0.038251  -0.000933  3.868227  -0.001  0.036972  -0.04931  -0.001421  3.844916  -0.002
C  C41  1  0.41574291  0.84940488  0.44676920  1  0.015187  0.011299  3.585064  0.014  -0.046486  0.007722  3.854365  0.009  -0.038793  0.006106  3.867158  0.008  0.036317  -0.050599  0.011083  3.845099  0.013
C  C42  1  0.41628849  0.65080283  0.94630824  1  0.014301  7.9e-05  3.585805  0.0  -0.0478  0.00076  3.8559  0.001  -0.040464  0.00059  3.868963  0.001  0.03668  -0.051275  0.001043  3.84593  0.001
C  C43  1  0.58454520  0.15078411  0.55342943  1  0.018338  0.013782  3.582356  0.018  -0.043722  0.008202  3.851854  0.01  -0.035975  0.006529  3.864758  0.008  0.036992  -0.047783  0.01184  3.842424  0.014
C  C44  1  0.55100271  0.33728531  0.16764412  1  -0.081224  0.004524  3.791524  0.007  -0.056778  0.002344  4.037185  0.004  -0.066048  0.001849  4.059391  0.003  -0.014576  -0.051353  0.002332  4.023462  0.004
C  C45  1  0.44859559  0.83768419  0.33300506  1  -0.08015  -0.001859  3.79061  -0.002  -0.057169  0.000447  4.038014  0.0  -0.066315  -0.000406  4.05985  -0.001  -0.014845  -0.051802  0.00078  4.024868  0.001
C  C46  1  0.44937658  0.66252212  0.83269620  1  -0.079877  0.00454  3.78999  0.007  -0.0565  0.002521  4.036506  0.004  -0.065583  0.001758  4.058587  0.003  -0.015013  -0.05119  0.00297  4.022881  0.005
C  C47  1  0.55179543  0.16237701  0.66725122  1  -0.080988  -0.011217  3.790197  -0.017  -0.057914  -0.004033  4.03748  -0.007  -0.067302  -0.003763  4.059493  -0.006  -0.014779  -0.052465  -0.004058  4.024308  -0.008
C  C48  1  0.65336886  0.39502564  0.27870184  1  -0.125969  -0.003096  3.638187  -0.003  -0.173178  -0.001151  3.899612  -0.001  -0.172612  -0.000856  3.914675  -0.001  -0.073282  -0.174259  -0.001537  3.891327  -0.001
C  C49  1  0.34673119  0.89591528  0.22245865  1  -0.126084  0.010682  3.639503  0.015  -0.173153  0.006841  3.901106  0.009  -0.172408  0.005733  3.915996  0.008  -0.073637  -0.174675  0.007664  3.893196  0.01
C  C50  1  0.34721403  0.60453310  0.72174328  1  -0.126817  -0.000988  3.640509  -0.002  -0.173317  0.00015  3.901874  0.0  -0.172925  0.000494  3.916943  0.0  -0.073409  -0.174352  -0.001111  3.893567  -0.002
C  C51  1  0.65379545  0.10419424  0.77780663  1  -0.125771  0.014815  3.63779  0.02  -0.172494  0.007803  3.899087  0.01  -0.171647  0.00601  3.91401  0.008  -0.073636  -0.174082  0.010855  3.891189  0.014
C  C52  1  0.79534078  0.45981067  0.27875670  1  0.340509  0.000826  3.87294  0.0  0.337119  1e-05  4.141382  -0.001  0.350354  1.4e-05  4.156645  0.0  0.099366  0.325723  -7.2e-05  4.132276  -0.001
C  C53  1  0.20502441  0.96064958  0.22258818  1  0.343635  -0.005605  3.871779  -0.009  0.339738  0.000997  4.140421  0.001  0.35312  -0.0005  4.155304  -0.001  0.100285  0.328072  0.002528  4.131657  0.002
C  C54  1  0.20501319  0.53993857  0.72139384  1  0.342084  0.001329  3.874524  0.003  0.337821  0.000623  4.143638  0.002  0.351147  0.000429  4.158809  0.001  0.09968  0.326383  0.000853  4.134606  0.003
C  C55  1  0.79535474  0.03940850  0.77741624  1  0.342568  -0.008203  3.871544  -0.013  0.339317  0.00031  4.139841  -0.001  0.352669  -0.000997  4.154805  -0.002  0.100434  0.327692  0.001606  4.130995  0.0
C  C56  1  0.82165320  0.46849954  0.16042417  1  0.012189  0.000502  3.46352  0.001  -0.033555  0.000767  3.7088  0.001  -0.025843  0.000664  3.716016  0.001  0.061176  -0.039764  0.000384  3.706409  0.001
C  C57  1  0.17889601  0.96937466  0.34101489  1  0.012566  0.00735  3.462835  0.011  -0.032779  0.003307  3.708362  0.005  -0.024883  0.002832  3.715314  0.004  0.061713  -0.039209  0.002989  3.706197  0.004
C  C58  1  0.17857661  0.53131354  0.83969712  1  0.012648  -0.004902  3.461707  -0.006  -0.032657  -0.002482  3.706905  -0.003  -0.024937  -0.001589  3.71408  -0.002  0.061893  -0.038878  -0.003761  3.704513  -0.005
C  C59  1  0.82135051  0.03077479  0.65896071  1  0.012075  0.012337  3.463169  0.017  -0.034194  0.00526  3.709968  0.007  -0.026434  0.003852  3.717109  0.006  0.060853  -0.040592  0.007372  3.707723  0.01
C  C60  1  0.40399996  0.26012320  0.16774679  1  0.650028  -0.003759  3.927375  -0.005  0.604744  -0.000212  4.220863  0.0  0.641225  0.00029  4.211959  0.001  0.210493  0.577772  -0.001654  4.228837  -0.002
C  C61  1  0.59486140  0.76024262  0.33222499  1  0.650308  -0.003999  3.928986  -0.005  0.604747  -0.000467  4.223456  0.0  0.641246  0.000159  4.214497  0.001  0.209902  0.57761  -0.002085  4.2317  -0.002
C  C62  1  0.59638378  0.73970089  0.83249477  1  0.650656  -0.003855  3.92584  -0.005  0.605691  -0.000184  4.219133  0.0  0.642124  0.000304  4.210208  0.001  0.210946  0.578761  -0.00161  4.227116  -0.002
C  C63  1  0.40563043  0.23994163  0.66802816  1  0.649038  0.004215  3.930105  0.006  0.603704  0.000422  4.224369  0.0  0.640272  -0.000163  4.215375  -0.001  0.209213  0.576482  0.002073  4.232703  0.002
C  C64  1  0.74698043  0.43319932  0.93197082  1  -0.186662  0.003317  3.5822  0.005  -0.246768  0.002139  3.832131  0.003  -0.248677  0.001522  3.83928  0.002  -0.053761  -0.245193  0.002861  3.826996  0.004
C  C65  1  0.25351027  0.93387607  0.56922775  1  -0.185476  0.003488  3.581935  0.006  -0.245584  0.002232  3.832003  0.003  -0.24742  0.001621  3.838954  0.002  -0.053455  -0.244134  0.002977  3.827059  0.004
C  C66  1  0.25323669  0.56632643  0.06810002  1  -0.186583  0.002928  3.582424  0.004  -0.246876  0.001814  3.83242  0.003  -0.248757  0.00131  3.839398  0.002  -0.054341  -0.2454  0.002381  3.827464  0.003
C  C67  1  0.74661148  0.06656743  0.43070326  1  -0.185352  -0.003081  3.580173  -0.004  -0.246471  -0.001919  3.830549  -0.003  -0.248143  -0.001383  3.837239  -0.002  -0.054072  -0.245028  -0.002508  3.825632  -0.003
C  C68  1  0.86723802  0.33689256  0.90643924  1  0.66842  -0.003227  3.877049  -0.005  0.619931  -0.00069  4.18842  -0.002  0.652485  -0.000621  4.184233  -0.001  0.211847  0.597383  -0.001067  4.190031  -0.002
C  C69  1  0.13252990  0.83770281  0.59415977  1  0.668625  -0.003545  3.877649  -0.006  0.620396  -0.000846  4.188724  -0.002  0.653007  -0.00076  4.184477  -0.001  0.211976  0.597859  -0.001203  4.19037  -0.002
C  C70  1  0.13299712  0.66266461  0.09352212  1  0.670032  -0.003204  3.875539  -0.005  0.621186  -0.000704  4.18736  -0.001  0.653711  -0.000622  4.183143  -0.001  0.21268  0.598698  -0.001084  4.188988  -0.002
C  C71  1  0.86787348  0.16249884  0.40573422  1  0.668411  0.002892  3.878415  0.005  0.620125  0.000669  4.18997  0.001  0.65269  0.000572  4.185764  0.001  0.212397  0.597577  0.001069  4.191568  0.002
N  N72  1  0.71709412  0.41618148  0.05361488  1  0.052913  0.000955  3.605768  0.002  0.145346  0.000517  3.817677  0.001  0.134565  0.000466  3.844268  0.001  -0.210918  0.152282  0.000419  3.799733  0.001
N  N73  1  0.28320628  0.91693332  0.44750155  1  0.051821  -0.003462  3.607479  -0.007  0.144146  -0.000809  3.818996  -0.002  0.133354  -0.00128  3.8455  -0.003  -0.211123  0.151089  -0.000532  3.801329  -0.002
N  N74  1  0.28317376  0.58350768  0.94653382  1  0.053187  0.000323  3.606501  0.0  0.145681  -7e-06  3.818143  0.0  0.134926  -0.000122  3.844761  0.0  -0.210832  0.152581  0.000178  3.800215  0.0
N  N75  1  0.71704786  0.08338638  0.55252757  1  0.051711  -0.005027  3.605434  -0.01  0.144474  -0.001339  3.817154  -0.003  0.13362  -0.00163  3.843653  -0.003  -0.210741  0.151444  -0.001161  3.799434  -0.003
O  O76  1  0.90535139  0.50853847  0.38098361  1  -0.653274  0.021696  2.213171  0.036  -0.629338  0.015236  2.517867  0.023  -0.670972  0.010793  2.508671  0.015  -0.331495  -0.593949  0.020956  2.521562  0.033
O  O77  1  0.09524412  0.00926867  0.12062050  1  -0.652409  0.063368  2.222432  0.106  -0.630209  0.045644  2.528377  0.066  -0.671713  0.036682  2.519057  0.052  -0.3316  -0.594277  0.056196  2.53257  0.084
O  O78  1  0.09516248  0.49125418  0.61917442  1  -0.652972  -0.022303  2.214615  -0.035  -0.628477  -0.015227  2.518987  -0.023  -0.669886  -0.010956  2.509565  -0.015  -0.331415  -0.593339  -0.020862  2.522832  -0.032
O  O79  1  0.90526464  0.99073637  0.87938402  1  -0.652954  0.0638  2.221147  0.107  -0.631422  0.046238  2.527556  0.067  -0.672982  0.037084  2.518074  0.052  -0.332408  -0.595292  0.056936  2.531679  0.085
O  O80  1  0.38527946  0.23698369  0.27375483  1  -0.62236  -0.002199  1.99992  -0.003  -0.56776  -0.00128  2.223978  -0.002  -0.591683  -0.000962  2.21428  -0.002  -0.313548  -0.551116  -0.001838  2.231324  -0.003
O  O81  1  0.61425781  0.73841088  0.22626630  1  -0.621789  -0.001931  1.998445  -0.003  -0.566986  -0.000954  2.222463  -0.001  -0.590633  -0.00098  2.212512  -0.001  -0.312976  -0.550914  -0.00132  2.230232  -0.002
O  O82  1  0.61490193  0.76281070  0.72642175  1  -0.623  -0.0015  1.999388  -0.002  -0.568347  -0.000804  2.223392  -0.001  -0.592232  -0.000839  2.213705  -0.001  -0.313642  -0.551722  -0.000967  2.230713  -0.001
O  O83  1  0.38598515  0.26157541  0.77393435  1  -0.621184  0.002026  1.999418  0.003  -0.566517  0.00149  2.223341  0.002  -0.590135  0.001062  2.213416  0.002  -0.312721  -0.550382  0.002195  2.231001  0.003
O  O84  1  0.31187667  0.22557657  0.05744216  1  -0.641753  0.035176  2.129365  0.06  -0.605846  0.027323  2.408694  0.043  -0.640307  0.021923  2.394023  0.033  -0.319269  -0.580764  0.033188  2.419616  0.053
O  O85  1  0.68558306  0.72404591  0.44227119  1  -0.64353  0.034881  2.130245  0.06  -0.607491  0.026957  2.41092  0.042  -0.642042  0.02158  2.395841  0.033  -0.319694  -0.582378  0.032831  2.422128  0.052
O  O86  1  0.68862274  0.77418560  0.94276957  1  -0.64149  0.035134  2.127999  0.06  -0.60576  0.027244  2.407245  0.042  -0.640198  0.021846  2.39261  0.033  -0.319114  -0.580735  0.033117  2.418161  0.052
O  O87  1  0.31519849  0.27657736  0.55800787  1  -0.643526  -0.037581  2.131337  -0.062  -0.607591  -0.028122  2.412421  -0.043  -0.642199  -0.022638  2.397246  -0.034  -0.31993  -0.582414  -0.034126  2.423726  -0.054
O  O88  1  0.94432201  0.25779580  0.99186709  1  -0.595161  0.028835  2.024717  0.052  -0.565239  0.022402  2.289805  0.037  -0.594368  0.017969  2.279307  0.03  -0.296011  -0.543013  0.027263  2.29644  0.046
O  O89  1  0.05464404  0.75884219  0.50835565  1  -0.595928  0.029246  2.024253  0.052  -0.566094  0.022874  2.289257  0.037  -0.595184  0.018448  2.278581  0.029  -0.295953  -0.543844  0.027704  2.295819  0.045
O  O90  1  0.05681329  0.74244800  0.00845576  1  -0.596406  0.028584  2.024177  0.051  -0.566252  0.022368  2.289104  0.037  -0.595268  0.01793  2.278575  0.029  -0.296402  -0.544115  0.027267  2.295722  0.045
O  O91  1  0.94672621  0.24064809  0.49186944  1  -0.59436  -0.030447  2.024281  -0.052  -0.564383  -0.02298  2.289036  -0.037  -0.593673  -0.018632  2.278583  -0.029  -0.295676  -0.541962  -0.027675  2.295436  -0.045
O  O92  1  0.87876910  0.35058468  0.79550622  1  -0.641296  -0.000784  2.055355  -0.001  -0.570307  -0.000553  2.268444  0.0  -0.59814  -0.000701  2.261467  -0.001  -0.30218  -0.550367  -0.000336  2.272757  0.0
O  O93  1  0.12114274  0.85136126  0.70516189  1  -0.640657  -0.00101  2.058194  -0.001  -0.570611  -0.000662  2.272074  0.0  -0.598618  -0.00081  2.265203  -0.001  -0.302255  -0.55066  -0.000418  2.276335  0.0
O  O94  1  0.12062479  0.64828298  0.20411689  1  -0.642269  -0.000867  2.058529  -0.001  -0.570974  -0.000611  2.271429  -0.001  -0.598829  -0.000693  2.264464  -0.001  -0.302427  -0.550964  -0.000454  2.275541  0.0
O  O95  1  0.87861560  0.14937397  0.29447855  1  -0.641028  0.000806  2.057593  0.001  -0.570565  0.000605  2.271263  0.001  -0.598563  0.000626  2.264463  0.001  -0.302545  -0.55063  0.000492  2.275553  0.0
O  O96  1  0.70491121  0.48197028  0.58587960  1  -0.815193  0.015749  1.866986  0.026  -0.780565  0.015776  2.067638  0.023  -0.801405  0.013005  2.036572  0.019  -0.574751  -0.764343  0.018868  2.089053  0.028
O  O97  1  0.29475847  0.98252856  0.91455998  1  -0.808972  0.01669  1.868221  0.028  -0.77612  0.016282  2.06697  0.025  -0.797299  0.013294  2.036394  0.02  -0.573588  -0.759454  0.019663  2.088208  0.03
O  O98  1  0.29630303  0.51840577  0.41354686  1  -0.808338  -0.01701  1.86333  -0.027  -0.774907  -0.016323  2.061483  -0.024  -0.795963  -0.013422  2.031009  -0.02  -0.573182  -0.758467  -0.019525  2.082577  -0.029
O  O99  1  0.70612585  0.01715777  0.08513396  1  -0.812053  0.016296  1.870924  0.027  -0.778755  0.016087  2.070452  0.024  -0.799853  0.013189  2.039679  0.02  -0.573959  -0.762189  0.019288  2.091815  0.029
O  O100  1  0.89231829  0.68457839  0.70038746  1  -0.832086  0.037294  1.982477  0.06  -0.790472  0.031674  2.200014  0.047  -0.822259  0.025443  2.165397  0.037  -0.576273  -0.765104  0.037426  2.224291  0.055
O  O101  1  0.10748943  0.18426955  0.79986145  1  -0.832157  0.037045  1.980286  0.059  -0.789701  0.031699  2.196692  0.047  -0.821222  0.02548  2.162209  0.037  -0.576017  -0.764614  0.037237  2.221181  0.055
O  O102  1  0.10843143  0.31550263  0.29969347  1  -0.832642  -0.038903  1.981216  -0.06  -0.79062  -0.032355  2.199489  -0.047  -0.822329  -0.026083  2.164683  -0.037  -0.576503  -0.765299  -0.038175  2.223852  -0.055
O  O103  1  0.89310599  0.81564801  0.20016750  1  -0.832816  0.036815  1.980616  0.059  -0.790888  0.031509  2.196237  0.047  -0.822379  0.025304  2.161726  0.037  -0.576594  -0.765842  0.036982  2.220751  0.055
