# generated using pymatgen
data_MnP2H23C29Br2NO2
_symmetry_space_group_name_H-M   'P 1'
_cell_length_a   10.39141631
_cell_length_b   12.35174675
_cell_length_c   12.49790000
_cell_angle_alpha   85.41193099
_cell_angle_beta   68.46375626
_cell_angle_gamma   82.49469289
_symmetry_Int_Tables_number   1
_chemical_formula_structural   MnP2H23C29Br2NO2
_chemical_formula_sum   'Mn2 P4 H46 C58 Br4 N2 O4'
_cell_volume   1478.46386222
_cell_formula_units_Z   2
loop_
 _symmetry_equiv_pos_site_id
 _symmetry_equiv_pos_as_xyz
  1  'x, y, z'
loop_
 _atom_site_type_symbol
 _atom_site_label
 _atom_site_symmetry_multiplicity
 _atom_site_fract_x
 _atom_site_fract_y
 _atom_site_fract_z
 _atom_site_occupancy
 _atom_site_hle17_ddec_charge
 _atom_site_hle17_ddec_spin_density
 _atom_site_hle17_ddec_sum_bond_order
 _atom_site_hle17_magmom
 _atom_site_hse06_10hf_ddec_charge
 _atom_site_hse06_10hf_ddec_spin_density
 _atom_site_hse06_10hf_ddec_sum_bond_order
 _atom_site_hse06_10hf_magmom
 _atom_site_hse06_ddec_charge
 _atom_site_hse06_ddec_spin_density
 _atom_site_hse06_ddec_sum_bond_order
 _atom_site_hse06_magmom
 _atom_site_pbe_bader_charge
 _atom_site_pbe_bader_spin_density
 _atom_site_pbe_cm5_charge
 _atom_site_pbe_ddec_charge
 _atom_site_pbe_ddec_spin_density
 _atom_site_pbe_ddec_sum_bond_order
 _atom_site_pbe_magmom
Mn  Mn0  1  0.93585804  0.85935305  0.88735897  1  1.049435  4.749044  2.051717  4.596  0.89505  4.679308  2.619515  4.451  0.965373  4.740479  2.538213  4.533  1.307729  4.514472  0.432901  0.838403  4.619472  2.680562  4.373
Mn  Mn1  1  0.06413885  0.14064922  0.11264621  1  1.049385  -4.749067  2.051817  -4.596  0.895005  -4.679322  2.619597  -4.451  0.965201  -4.74045  2.538493  -4.533  1.307239  -4.51457  0.432377  0.837854  -4.619634  2.680552  -4.373
P  P2  1  0.78627897  0.68477410  0.78344242  1  0.950541  0.00912  4.346884  0.007  0.846637  0.012914  4.755355  0.008  0.880158  0.00997  4.746064  0.007  2.659235  0.011094  0.279095  0.822852  0.015902  4.761098  0.01
P  P3  1  0.21371930  0.31522571  0.21655613  1  0.950376  -0.009141  4.346678  -0.007  0.846443  -0.012917  4.755204  -0.008  0.879963  -0.009973  4.745905  -0.007  2.659891  -0.011108  0.278961  0.822576  -0.015923  4.760984  -0.01
P  P4  1  0.28632460  0.76983087  0.74883565  1  0.968421  0.010739  4.328252  0.008  0.863021  0.014259  4.735654  0.009  0.897296  0.011098  4.725484  0.008  2.655878  0.012454  0.290422  0.838194  0.017744  4.742742  0.011
P  P5  1  0.71367286  0.23016731  0.25116327  1  0.96827  -0.010761  4.328283  -0.008  0.862904  -0.014258  4.735656  -0.009  0.897158  -0.011102  4.725475  -0.008  2.65614  -0.012471  0.290326  0.837989  -0.017768  4.742813  -0.011
H  H6  1  0.24899199  0.91505989  0.93547078  1  0.114109  0.000127  0.972532  0.0  0.118594  0.000187  1.043153  0.0  0.122028  0.000189  1.041243  0.0  0.149166  -0.000105  0.106084  0.116043  0.000141  1.044685  0.0
H  H7  1  0.75100651  0.08493829  0.06453102  1  0.114117  -0.000138  0.972517  0.0  0.118604  -0.000187  1.043132  0.0  0.122038  -0.000189  1.041223  0.0  0.149149  0.000103  0.106101  0.116025  -0.000143  1.044694  0.0
H  H8  1  0.40383187  0.93658126  0.04291417  1  0.0955  0.000106  0.969499  0.0  0.104299  -1e-05  1.032734  0.0  0.107127  8.8e-05  1.031536  0.0  0.130866  -0.000604  0.099149  0.102023  -0.000129  1.033985  0.0
H  H9  1  0.59616604  0.06341365  0.95708967  1  0.095523  -0.000104  0.969433  0.0  0.104297  1e-05  1.032684  0.0  0.107131  -8.8e-05  1.031468  0.0  0.130754  0.000602  0.099139  0.101987  0.000128  1.033975  0.0
H  H10  1  0.64437198  0.83268073  0.97992736  1  0.096674  0.001502  0.983991  0.0  0.102078  0.002318  1.056773  0.0  0.105458  0.001929  1.054422  0.0  0.111894  0.002908  0.102881  0.099304  0.002734  1.058963  0.0
H  H11  1  0.35562627  0.16731173  0.02007497  1  0.096714  -0.001522  0.983997  0.0  0.10211  -0.002318  1.056785  0.0  0.105492  -0.001927  1.05443  0.0  0.111889  -0.002916  0.10289  0.099349  -0.002739  1.058939  0.0
H  H12  1  0.94501720  0.77410998  0.30214742  1  0.09015  0.000116  0.973819  0.0  0.096844  0.000259  1.043312  0.0  0.099897  0.000185  1.041288  0.0  0.068141  0.000495  0.09431  0.094535  0.000353  1.044926  0.0
H  H13  1  0.05498347  0.22588738  0.69785299  1  0.090112  -0.000128  0.97383  0.0  0.096802  -0.000259  1.043327  0.0  0.099854  -0.000185  1.04131  0.0  0.068164  -0.000494  0.094285  0.094489  -0.000353  1.044949  0.0
H  H14  1  0.15524586  0.61948850  0.93160026  1  0.089895  -3e-06  0.973518  0.0  0.100909  0.000129  1.036728  0.0  0.102964  5.7e-05  1.036468  0.0  0.078721  0.000288  0.103918  0.099459  0.000213  1.037038  0.0
H  H15  1  0.84474757  0.38050886  0.06840156  1  0.089891  6e-06  0.97358  0.0  0.100936  -0.000129  1.036753  0.0  0.102992  -5.7e-05  1.036492  0.0  0.07876  -0.00029  0.103958  0.099491  -0.000214  1.037043  0.0
H  H16  1  0.47760976  0.92153289  0.28160999  1  0.088031  5e-06  0.943835  0.0  0.098161  5.7e-05  1.003808  0.0  0.101223  3.5e-05  1.002304  0.0  0.102042  0.00013  0.098602  0.095763  5.8e-05  1.005148  0.0
H  H17  1  0.52238920  0.07846938  0.71838655  1  0.088065  -2e-06  0.943793  0.0  0.098184  -5.8e-05  1.003772  0.0  0.101233  -3.4e-05  1.002281  0.0  0.102073  -0.000132  0.098581  0.095765  -5.9e-05  1.005133  0.0
H  H18  1  0.57456609  0.53880889  0.79441023  1  0.094267  -3.1e-05  0.973727  0.0  0.099633  -2.3e-05  1.044044  0.0  0.102241  -2.2e-05  1.04344  0.0  0.114017  4e-06  0.099434  0.097467  -2.3e-05  1.045138  0.0
H  H19  1  0.42543758  0.46118929  0.20559000  1  0.094336  3.5e-05  0.973634  0.0  0.099671  2.3e-05  1.04397  0.0  0.102279  2.3e-05  1.043367  0.0  0.113942  -4e-06  0.099465  0.097495  2.3e-05  1.045068  0.0
H  H20  1  0.16972526  0.41609646  0.94785300  1  0.094687  0.000203  0.954803  0.0  0.103715  0.000264  1.017838  0.0  0.106167  0.000284  1.017685  0.0  0.083929  -5e-06  0.101249  0.101964  0.000236  1.018078  0.0
H  H21  1  0.83027760  0.58390008  0.05215000  1  0.094692  -0.000214  0.954872  0.0  0.103733  -0.000264  1.017874  0.0  0.106185  -0.000284  1.01773  0.0  0.083868  4e-06  0.101241  0.101952  -0.000236  1.018152  0.0
H  H22  1  0.64949627  0.86803056  0.37708898  1  0.095077  9.4e-05  0.954688  0.0  0.105101  0.000224  1.014405  0.0  0.107696  0.000134  1.014284  0.0  0.08203  0.000755  0.099252  0.102684  0.000457  1.015589  0.0
H  H23  1  0.35049718  0.13197416  0.62291064  1  0.095021  -0.000101  0.954695  0.0  0.105052  -0.000224  1.014408  0.0  0.107646  -0.000135  1.014287  0.0  0.081961  -0.000756  0.099195  0.102619  -0.000458  1.015601  0.0
H  H24  1  0.96890862  0.31840256  0.87473307  1  0.087844  6.8e-05  0.978179  0.0  0.09468  -1.2e-05  1.047503  0.0  0.097694  8.3e-05  1.046164  0.0  0.089712  -0.000554  0.092265  0.092422  -0.000112  1.04874  0.0
H  H25  1  0.03109379  0.68159725  0.12527062  1  0.087851  -8e-05  0.978169  0.0  0.09468  1.1e-05  1.047508  0.0  0.097692  -8.3e-05  1.046168  0.0  0.0895  0.000554  0.092241  0.092388  0.000111  1.048772  0.0
H  H26  1  0.57296421  0.33834776  0.83216239  1  0.08877  2.6e-05  0.95181  0.0  0.100541  5.2e-05  1.008087  0.0  0.102922  3.9e-05  1.008244  0.0  0.081113  7e-05  0.099455  0.09875  6.9e-05  1.008287  0.0
H  H27  1  0.42704130  0.66165205  0.16783635  1  0.088749  -3.4e-05  0.951784  0.0  0.100551  -5.2e-05  1.008037  0.0  0.102929  -4e-05  1.008199  0.0  0.081036  -7.1e-05  0.09942  0.09873  -6.9e-05  1.008255  0.0
H  H28  1  0.57067109  0.80016294  0.58100808  1  0.093893  -3e-05  0.98198  0.0  0.099001  -1.6e-05  1.05348  0.0  0.101339  -1.5e-05  1.053463  0.0  0.078241  2.9e-05  0.099057  0.096907  -1e-06  1.054231  0.0
H  H29  1  0.42932121  0.19984259  0.41899103  1  0.093964  2.4e-05  0.981864  0.0  0.099067  1.7e-05  1.053357  0.0  0.101407  1.5e-05  1.053336  0.0  0.078101  -3e-05  0.099069  0.096951  1e-06  1.054122  0.0
H  H30  1  0.91902934  0.58175848  0.37808997  1  0.086221  1.4e-05  0.962692  0.0  0.097322  1e-06  1.02184  0.0  0.099485  1e-06  1.022533  0.0  0.079946  7e-06  0.097509  0.095742  2e-06  1.021507  0.0
H  H31  1  0.08097433  0.41823969  0.62191185  1  0.086191  -4e-06  0.962769  0.0  0.097293  -1e-06  1.021907  0.0  0.099456  -1e-06  1.022602  0.0  0.079938  -7e-06  0.097498  0.095687  -2e-06  1.021605  0.0
H  H32  1  0.43335334  0.60130249  0.57750674  1  0.082747  -8e-06  0.984729  0.0  0.092728  8e-06  1.049103  0.0  0.09526  6e-06  1.048055  0.0  0.058047  2.4e-05  0.098788  0.090991  1.1e-05  1.049729  0.0
H  H33  1  0.56664159  0.39869895  0.42249430  1  0.082731  1.5e-05  0.984727  0.0  0.092739  -9e-06  1.049066  0.0  0.095271  -6e-06  1.048019  0.0  0.057978  -2.5e-05  0.098813  0.090996  -1.1e-05  1.049691  0.0
H  H34  1  0.77266363  0.22816543  0.86911371  1  0.088324  0.000153  0.992454  0.0  0.097713  0.000392  1.057141  0.0  0.100368  0.000229  1.055973  0.0  0.10007  0.00113  0.088602  0.095607  0.000545  1.058176  0.0
H  H35  1  0.22733774  0.77183438  0.13088789  1  0.088276  -0.000153  0.992438  0.0  0.097671  -0.000392  1.057117  0.0  0.100322  -0.000229  1.055958  0.0  0.100076  -0.00113  0.088575  0.095551  -0.000545  1.058191  0.0
H  H36  1  0.14456180  0.84385772  0.59541986  1  0.096752  -0.000144  0.950664  0.0  0.106043  -9.4e-05  1.014364  0.0  0.10851  -0.000146  1.013473  0.0  0.126577  7.1e-05  0.105584  0.10381  -3.2e-05  1.015967  0.0
H  H37  1  0.85543313  0.15614372  0.40457477  1  0.096767  0.000149  0.950608  0.0  0.106036  9.4e-05  1.014334  0.0  0.108503  0.000146  1.013446  0.0  0.126828  -7.3e-05  0.105582  0.10381  3e-05  1.015913  0.0
H  H38  1  0.83523043  0.88296045  0.64596700  1  0.08283  -0.0002  1.006847  0.0  0.088978  -5.9e-05  1.080709  0.0  0.092148  -0.000168  1.079059  0.0  0.107925  0.000669  0.086871  0.086661  6.5e-05  1.081895  0.0
H  H39  1  0.16476853  0.11704181  0.35403194  1  0.082852  0.000187  1.00689  0.0  0.089017  5.9e-05  1.080731  0.0  0.092191  0.000168  1.079073  0.0  0.107906  -0.00067  0.086859  0.086705  -6.5e-05  1.081901  0.0
H  H40  1  0.96996900  0.52033935  0.83922989  1  0.092452  -0.000169  0.968442  0.0  0.101769  -0.000157  1.032836  0.0  0.104194  -0.000186  1.032361  0.0  0.096408  0.000217  0.101254  0.099926  -0.000113  1.033543  0.0
H  H41  1  0.03003329  0.47966127  0.16077056  1  0.09249  0.000162  0.968398  0.0  0.101798  0.000156  1.032797  0.0  0.104223  0.000186  1.032322  0.0  0.096459  -0.000217  0.101259  0.099946  0.000112  1.033506  0.0
H  H42  1  0.90434612  0.92300529  0.43492090  1  0.092217  6.6e-05  0.961812  0.0  0.101029  -2.3e-05  1.024576  0.0  0.103797  3.8e-05  1.023963  0.0  0.079985  -0.000477  0.096078  0.09899  -7.8e-05  1.025197  0.0
H  H43  1  0.09565422  0.07699453  0.56507781  1  0.092193  -6.6e-05  0.961848  0.0  0.101012  2.3e-05  1.024605  0.0  0.103781  -3.8e-05  1.023991  0.0  0.07999  0.000477  0.096057  0.09895  7.8e-05  1.025239  0.0
H  H44  1  0.22576302  0.90794956  0.38986984  1  0.093505  -0.000282  0.982058  0.0  0.103384  -0.000573  1.044228  0.0  0.10669  -0.000352  1.042747  0.0  0.102628  -0.00141  0.089776  0.100578  -0.000789  1.046097  0.0
H  H45  1  0.77423698  0.09205270  0.61012398  1  0.093456  0.000282  0.982165  0.0  0.103379  0.000573  1.044268  0.0  0.106687  0.000352  1.042784  0.0  0.101025  0.001409  0.089769  0.10057  0.000789  1.046126  0.0
H  H46  1  0.85141657  0.53985640  0.58806245  1  0.089359  -2.4e-05  0.964653  0.0  0.10027  1.5e-05  1.024476  0.0  0.102634  1e-05  1.024366  0.0  0.074848  5.8e-05  0.100523  0.098608  2.3e-05  1.024596  0.0
H  H47  1  0.14858584  0.46014341  0.41193963  1  0.089369  1e-05  0.964652  0.0  0.100273  -1.5e-05  1.024486  0.0  0.102636  -1e-05  1.024376  0.0  0.074803  -5.9e-05  0.100509  0.098588  -2.3e-05  1.024616  0.0
H  H48  1  0.31257031  0.30612331  0.77947135  1  0.089164  -5.5e-05  0.984984  0.0  0.095835  -0.000253  1.054102  0.0  0.099227  -0.000105  1.051893  0.0  0.097862  -0.001041  0.089781  0.093362  -0.000403  1.055686  0.0
H  H49  1  0.68743738  0.69387569  0.22053078  1  0.089109  4.8e-05  0.984891  0.0  0.095766  0.000253  1.054046  0.0  0.099161  0.000105  1.051829  0.0  0.097844  0.001041  0.089741  0.093271  0.000404  1.055653  0.0
H  H50  1  0.44531091  0.39737935  0.59439595  1  0.083967  2.1e-05  0.972553  0.0  0.095963  2.6e-05  1.03099  0.0  0.09837  1.8e-05  1.03086  0.0  0.050786  6.2e-05  0.098615  0.094285  4.3e-05  1.031087  0.0
H  H51  1  0.55469138  0.60262128  0.40560450  1  0.083974  -1.6e-05  0.972607  0.0  0.09598  -2.7e-05  1.031032  0.0  0.098391  -1.8e-05  1.030894  0.0  0.050758  -6.2e-05  0.098619  0.094284  -4.4e-05  1.031149  0.0
C  C52  1  0.61303022  0.75834093  0.84093328  1  -0.013386  0.000629  3.736305  0.001  0.011137  0.00103  3.987125  0.001  0.009025  0.000773  4.008041  0.001  -0.015928  0.002152  0.10799  0.0127  0.001115  3.972867  0.001
C  C53  1  0.38696643  0.24165561  0.15906601  1  -0.013417  -0.000706  3.736272  -0.001  0.011167  -0.001024  3.987005  -0.001  0.009061  -0.000787  4.007909  -0.001  -0.021139  -0.002154  0.108  0.012753  -0.001116  3.972694  -0.001
C  C54  1  0.35279120  0.87075637  0.91114451  1  -0.071078  -0.000536  3.689415  0.0  -0.093571  -0.000457  3.930699  0.0  -0.095393  -0.000405  3.950236  0.0  -0.070119  -0.00049  -0.062996  -0.092373  -0.000459  3.917587  0.0
C  C55  1  0.64720615  0.12924262  0.08885598  1  -0.071048  0.000647  3.689517  0.0  -0.093548  0.000456  3.930765  0.0  -0.095374  0.000406  3.950299  0.0  -0.070138  0.000487  -0.063033  -0.09239  0.000457  3.917748  0.0
C  C56  1  0.40116251  0.79845277  0.82074869  1  -0.012483  0.00166  3.725048  0.002  0.011966  0.001943  3.977181  0.002  0.009945  0.001601  3.996876  0.002  0.039464  0.004052  0.108704  0.013353  0.002426  3.964131  0.002
C  C57  1  0.59883587  0.20154623  0.17924989  1  -0.012528  -0.001734  3.725211  -0.002  0.011983  -0.001941  3.977248  -0.002  0.009969  -0.0016  3.996935  -0.002  0.039315  -0.004057  0.108695  0.013375  -0.002428  3.964212  -0.002
C  C58  1  0.44102224  0.88344744  0.96960844  1  -0.009016  3.7e-05  3.687466  0.0  -0.02071  -1.6e-05  3.928534  0.0  -0.021077  0.000102  3.947918  0.0  -0.070034  9.8e-05  -0.062563  -0.020387  5.2e-05  3.915479  0.0
C  C59  1  0.55897488  0.11655319  0.03039279  1  -0.009013  -0.000138  3.687361  0.0  -0.020677  2e-05  3.92845  0.0  -0.021041  -0.000108  3.947837  0.0  -0.070051  -0.000104  -0.062579  -0.020414  -5.6e-05  3.915508  0.0
C  C60  1  0.57337822  0.82573545  0.93511293  1  -0.085172  0.000454  3.707605  0.0  -0.104533  0.0014  3.946563  0.001  -0.107373  0.001103  3.96733  0.001  0.029087  0.001863  -0.066404  -0.10241  0.001711  3.93262  0.001
C  C61  1  0.42661648  0.17426027  0.06488703  1  -0.085242  -0.000315  3.707668  0.0  -0.104626  -0.001405  3.946624  -0.001  -0.107467  -0.001095  3.967386  -0.001  0.034052  -0.001869  -0.066447  -0.102491  -0.001715  3.93264  -0.001
C  C62  1  0.91559781  0.75497043  0.39411432  1  -0.043523  0.000696  3.728937  0.001  -0.05769  0.000619  3.970754  0.0  -0.057217  0.000495  3.990899  0.0  -0.031351  0.001033  -0.080236  -0.05795  0.000853  3.957564  0.001
C  C63  1  0.08440482  0.24502775  0.60588622  1  -0.043496  -0.000598  3.72882  0.0  -0.057658  -0.000623  3.970645  0.0  -0.057186  -0.00049  3.990786  0.0  -0.031468  -0.001038  -0.080262  -0.057962  -0.000857  3.957511  -0.001
C  C64  1  0.21874776  0.57086502  0.85773172  1  -0.044697  -6.8e-05  3.736176  0.0  -0.065851  0.000196  3.975782  0.0  -0.065463  7.7e-05  3.99777  0.0  -0.053225  0.000469  -0.076906  -0.066283  0.000232  3.961587  0.0
C  C65  1  0.78124855  0.42913397  0.14227149  1  -0.044786  -3.3e-05  3.736253  0.0  -0.065949  -0.000194  3.975879  0.0  -0.065564  -8.5e-05  3.997871  0.0  -0.05311  -0.000472  -0.076973  -0.066366  -0.000235  3.96163  0.0
C  C66  1  0.44235339  0.89195091  0.37128796  1  -0.047498  0.000248  3.736293  0.0  -0.061054  0.000237  3.979429  0.0  -0.061143  0.000183  3.999736  0.0  -0.113835  0.000499  -0.081298  -0.060772  0.000413  3.965336  0.0
C  C67  1  0.55764350  0.10805136  0.62871001  1  -0.047447  -0.000243  3.736188  0.0  -0.060992  -0.000233  3.979323  0.0  -0.06107  -0.000189  3.999635  0.0  -0.113928  -0.000502  -0.081264  -0.060745  -0.000415  3.965305  0.0
C  C68  1  0.66018001  0.49071816  0.81294165  1  -0.052426  0.000323  3.746096  0.0  -0.074061  0.000571  3.988251  0.001  -0.073234  0.000421  4.00908  0.0  -0.045039  0.000978  -0.081457  -0.074271  0.000775  3.974133  0.001
C  C69  1  0.33982251  0.50928084  0.18705806  1  -0.052501  -0.000344  3.746165  0.0  -0.074095  -0.000569  3.988338  -0.001  -0.07327  -0.000427  4.009169  0.0  -0.044625  -0.00098  -0.081506  -0.07433  -0.000777  3.974225  -0.001
C  C70  1  0.22676957  0.45714632  0.86680748  1  -0.070363  3.3e-05  3.739424  0.0  -0.078219  -7.3e-05  3.981066  0.0  -0.082273  -5.6e-05  4.003697  0.0  -0.024412  -0.000161  -0.085675  -0.075805  -6.6e-05  3.966484  0.0
C  C71  1  0.77323088  0.54285268  0.13319446  1  -0.070357  8.6e-05  3.739469  0.0  -0.078214  7.1e-05  3.981097  0.0  -0.082274  6.1e-05  4.003731  0.0  -0.024077  0.00016  -0.085685  -0.075819  6.5e-05  3.966581  0.0
C  C72  1  0.53920205  0.86185580  0.42472876  1  -0.067607  8.1e-05  3.747348  0.0  -0.077779  0.000379  3.992858  0.0  -0.081582  0.000243  4.015528  0.0  -0.123624  0.000418  -0.086461  -0.075138  0.00038  3.977671  0.0
C  C73  1  0.46079358  0.13814810  0.57527026  1  -0.067451  -6.5e-05  3.747277  0.0  -0.077623  -0.000379  3.992753  0.0  -0.081425  -0.00024  4.015423  0.0  -0.12353  -0.000418  -0.086366  -0.074989  -0.00038  3.977566  0.0
C  C74  1  0.83960364  0.70858660  0.63017196  1  -0.203806  -6.7e-05  3.799063  0.0  -0.166094  0.000622  4.040963  0.001  -0.175478  0.000328  4.065925  0.001  -0.581091  0.00217  -0.031465  -0.159606  0.000983  4.024092  0.001
C  C75  1  0.16039658  0.29141403  0.36982752  1  -0.203678  -1.2e-05  3.798897  0.0  -0.165965  -0.000626  4.040809  -0.001  -0.175347  -0.000328  4.065773  -0.001  -0.581268  -0.002173  -0.031417  -0.159447  -0.000985  4.023869  -0.001
C  C76  1  0.88226177  0.36730712  0.85810485  1  -0.074574  -2.5e-05  3.758172  0.0  -0.081659  -0.000139  4.002829  0.0  -0.086094  -0.0001  4.024833  0.0  -0.084775  -0.000171  -0.087874  -0.078707  -0.000185  3.987936  0.0
C  C77  1  0.11774271  0.63269270  0.14189740  1  -0.074672  6e-05  3.758129  0.0  -0.081755  0.000137  4.002808  0.0  -0.086186  0.000106  4.024806  0.0  -0.084745  0.00017  -0.087901  -0.078842  0.000184  3.987999  0.0
C  C78  1  0.65989013  0.37806331  0.83395258  1  -0.068264  0.000142  3.750179  0.0  -0.07612  0.000219  3.99017  0.0  -0.079844  0.000152  4.01198  0.0  -0.084831  0.000369  -0.088054  -0.07352  0.000293  3.975264  0.0
C  C79  1  0.34011135  0.62193569  0.16604825  1  -0.068309  -0.000113  3.750449  0.0  -0.076196  -0.00022  3.990441  0.0  -0.079921  -0.000149  4.012251  0.0  -0.085265  -0.000372  -0.088084  -0.073619  -0.000295  3.975571  0.0
C  C80  1  0.49507919  0.82408738  0.53944217  1  -0.057699  0.000657  3.748349  0.001  -0.080477  0.000811  3.994498  0.001  -0.080378  0.000654  4.01674  0.001  0.014047  0.001073  -0.082373  -0.079947  0.000892  3.979236  0.001
C  C81  1  0.50491655  0.17591570  0.46055528  1  -0.057791  -0.000632  3.748371  -0.001  -0.08055  -0.000818  3.994531  -0.001  -0.080461  -0.000647  4.016764  -0.001  0.02273  -0.001072  -0.08239  -0.080024  -0.000894  3.979275  -0.001
C  C82  1  0.77268149  0.54144728  0.81462448  1  -0.203331  0.001696  3.799213  0.001  -0.164592  0.002001  4.040474  0.002  -0.17424  0.001551  4.065033  0.001  -0.543192  0.004064  -0.028742  -0.158094  0.00251  4.023599  0.002
C  C83  1  0.22732195  0.45855253  0.18537488  1  -0.203207  -0.0017  3.799087  -0.001  -0.164491  -0.002  4.040367  -0.002  -0.174141  -0.00155  4.064932  -0.001  -0.543464  -0.004068  -0.028722  -0.157974  -0.002512  4.023462  -0.002
C  C84  1  0.90089066  0.64748205  0.43685700  1  -0.074572  -0.00045  3.759668  0.0  -0.082984  -0.000151  4.001123  0.0  -0.087102  -0.000205  4.023901  0.0  -0.039453  -0.000151  -0.090383  -0.080104  -0.000117  3.985417  0.0
C  C85  1  0.09911208  0.35251531  0.56314437  1  -0.074548  0.000355  3.759568  0.0  -0.082952  0.000153  4.001015  0.0  -0.087068  0.000202  4.023791  0.0  -0.039475  0.000149  -0.090431  -0.080105  0.000116  3.985381  0.0
C  C86  1  0.29340919  0.62291783  0.75324280  1  -0.197864  0.000402  3.783817  0.001  -0.162182  0.00082  4.029366  0.001  -0.171517  0.000543  4.053959  0.001  -0.539118  0.002845  -0.027622  -0.155496  0.001417  4.012799  0.002
C  C87  1  0.70658275  0.37708280  0.24676081  1  -0.197731  -0.000285  3.783646  0.0  -0.162108  -0.000828  4.029285  -0.001  -0.171434  -0.000531  4.05386  -0.001  -0.538785  -0.00285  -0.027546  -0.155374  -0.00142  4.012633  -0.002
C  C88  1  0.37543864  0.56055251  0.65818611  1  -0.052243  0.000385  3.765562  0.0  -0.073456  0.000667  4.00665  0.001  -0.072867  0.000525  4.027916  0.0  -0.038961  0.000935  -0.080992  -0.073738  0.000798  3.991918  0.001
C  C89  1  0.62455664  0.43944648  0.34181421  1  -0.052219  -0.0005  3.765529  0.0  -0.073443  -0.000664  4.006645  -0.001  -0.072857  -0.000529  4.027912  0.0  -0.039496  -0.000936  -0.081032  -0.07373  -0.000799  3.991888  -0.001
C  C90  1  0.77086544  0.31650936  0.85581009  1  -0.043444  0.000298  3.727088  0.0  -0.059477  0.000736  3.969193  0.001  -0.059409  0.000539  3.990254  0.0  -0.027181  0.001169  -0.082914  -0.059256  0.000984  3.954701  0.001
C  C91  1  0.22913800  0.68349045  0.14419088  1  -0.043352  -0.00031  3.727182  0.0  -0.059374  -0.000734  3.969303  -0.001  -0.059304  -0.000543  3.990362  0.0  -0.027022  -0.001172  -0.082981  -0.059195  -0.000987  3.954868  -0.001
C  C92  1  0.35266453  0.81755146  0.60094611  1  -0.206079  0.00084  3.792398  0.001  -0.166085  0.001529  4.031097  0.002  -0.17575  0.001121  4.056106  0.001  -0.569735  0.003264  -0.027952  -0.159432  0.001787  4.013941  0.002
C  C93  1  0.64732948  0.18244917  0.39905127  1  -0.206003  -0.000876  3.792354  -0.001  -0.166067  -0.001514  4.031105  -0.002  -0.175697  -0.001139  4.056076  -0.001  -0.578395  -0.003271  -0.027921  -0.159399  -0.001788  4.013927  -0.002
C  C94  1  0.25530277  0.84795870  0.54717236  1  -0.047627  -3e-05  3.736465  0.0  -0.067761  -8e-06  3.973683  0.0  -0.067381  -6.5e-05  3.995514  0.0  -0.112457  0.000465  -0.07644  -0.067754  0.00018  3.959126  0.0
C  C95  1  0.74469228  0.15204192  0.45282230  1  -0.047669  3e-05  3.736235  0.0  -0.067769  2e-06  3.973471  0.0  -0.067403  7e-05  3.995295  0.0  -0.112886  -0.000468  -0.076485  -0.067769  -0.000182  3.958905  0.0
C  C96  1  0.85383617  0.81688390  0.58715894  1  -0.054755  0.000554  3.742936  0.001  -0.073752  0.00052  3.980747  0.0  -0.074394  0.000342  4.002905  0.0  -0.038267  0.00105  -0.082969  -0.073403  0.00074  3.966654  0.001
C  C97  1  0.14616417  0.18311591  0.41284058  1  -0.054872  -0.000455  3.742997  0.0  -0.073883  -0.000518  3.980802  0.0  -0.074527  -0.000339  4.002961  0.0  -0.038256  -0.001056  -0.083008  -0.073521  -0.000745  3.966649  -0.001
C  C98  1  0.88359200  0.47977158  0.83762598  1  -0.055735  -0.000138  3.749919  0.0  -0.077551  0.000155  3.99286  0.0  -0.076889  4.7e-05  4.013891  0.0  -0.085248  0.00053  -0.080044  -0.077694  0.000277  3.978506  0.0
C  C99  1  0.11641259  0.52022741  0.16237470  1  -0.055738  0.000142  3.749719  0.0  -0.077519  -0.000153  3.99267  0.0  -0.076858  -5.3e-05  4.013702  0.0  -0.085236  -0.000531  -0.08002  -0.077674  -0.000278  3.978322  0.0
C  C100  1  0.89230435  0.83947811  0.46927802  1  -0.064187  -0.000536  3.736104  0.0  -0.07175  -0.000423  3.974982  0.0  -0.075354  -0.000383  3.996715  0.0  -0.013256  -0.000642  -0.086886  -0.069442  -0.000485  3.961155  0.0
C  C101  1  0.10769702  0.16052170  0.53072117  1  -0.06412  0.00046  3.736116  0.0  -0.071688  0.000426  3.975001  0.0  -0.075292  0.00038  3.996737  0.0  -0.013313  0.000643  -0.086904  -0.06941  0.000486  3.961221  0.0
C  C102  1  0.30072487  0.88467961  0.43226603  1  -0.069757  -0.000561  3.750953  -0.001  -0.078453  -0.000778  3.990371  -0.001  -0.082511  -0.000616  4.012568  -0.001  0.040419  -0.001172  -0.088533  -0.075615  -0.000973  3.975476  -0.001
C  C103  1  0.69927006  0.11532183  0.56773020  1  -0.069905  0.000548  3.750981  0.001  -0.078632  0.000777  3.99041  0.001  -0.082688  0.000619  4.012602  0.001  0.04212  0.001171  -0.088667  -0.075846  0.000973  3.975597  0.001
C  C104  1  0.86319557  0.62375535  0.55482512  1  -0.055178  0.000711  3.762738  0.001  -0.075635  0.00065  4.002074  0.0  -0.075094  0.000534  4.023531  0.0  -0.084206  0.000994  -0.082862  -0.07572  0.000802  3.987119  0.001
C  C105  1  0.13680683  0.37624446  0.44517536  1  -0.055239  -0.000608  3.762668  0.0  -0.075692  -0.00065  4.002018  0.0  -0.075151  -0.000532  4.023474  0.0  -0.084232  -0.000996  -0.082895  -0.075801  -0.000804  3.987077  -0.001
C  C106  1  0.30840352  0.39502858  0.77174391  1  -0.050868  -2.9e-05  3.739427  0.0  -0.063544  -8.6e-05  3.979746  0.0  -0.063705  -5.6e-05  4.000062  0.0  -0.056174  -0.000293  -0.082186  -0.063183  -0.000191  3.966305  0.0
C  C107  1  0.69160015  0.60496960  0.22825711  1  -0.050812  -4.6e-05  3.739185  0.0  -0.06348  8.8e-05  3.979524  0.0  -0.06364  5.4e-05  3.999842  0.0  -0.056477  0.000291  -0.082221  -0.063151  0.00019  3.966166  0.0
C  C108  1  0.38233335  0.44675537  0.66780091  1  -0.070526  -6e-05  3.759783  0.0  -0.078445  -8.5e-05  3.998694  0.0  -0.082234  -0.000116  4.020826  0.0  -0.033905  -4.5e-05  -0.087287  -0.07584  -2.6e-05  3.983595  0.0
C  C109  1  0.61766480  0.55324526  0.33220080  1  -0.07056  0.000136  3.759734  0.0  -0.078481  8.5e-05  3.998636  0.0  -0.082269  0.000116  4.02077  0.0  -0.033907  4.4e-05  -0.087295  -0.075884  2.5e-05  3.983575  0.0
Br  Br110  1  0.86064412  0.02061767  0.78813573  1  -0.5735  0.073643  0.980238  0.039  -0.518701  0.089143  1.293828  0.042  -0.545986  0.07286  1.264213  0.03  -0.658016  0.123021  -0.23498  -0.495461  0.10423  1.314599  0.053
Br  Br111  1  0.13939992  0.97939522  0.21185501  1  -0.573518  -0.073648  0.980327  -0.039  -0.518705  -0.089121  1.293913  -0.042  -0.545943  -0.072875  1.264316  -0.03  -0.658282  -0.122949  -0.235205  -0.495773  -0.104157  1.314723  -0.053
Br  Br112  1  0.84037296  0.85999528  0.09831289  1  -0.57947  0.070005  0.905762  0.035  -0.522348  0.084829  1.207813  0.037  -0.549061  0.069375  1.176833  0.026  -0.654046  0.118109  -0.25105  -0.499649  0.100191  1.230317  0.048
Br  Br113  1  0.15963059  0.14000372  0.90169370  1  -0.579467  -0.070015  0.905839  -0.035  -0.522341  -0.084837  1.207909  -0.037  -0.549016  -0.069384  1.176959  -0.026  -0.654428  -0.118059  -0.251261  -0.499958  -0.100122  1.230463  -0.048
N  N114  1  0.52888309  0.74342983  0.78493978  1  -0.287205  0.000335  3.147238  0.0  -0.261188  0.000783  3.40286  0.001  -0.269371  0.000526  3.421842  0.0  -1.178515  0.001324  -0.292446  -0.25555  0.001005  3.390214  0.001
N  N115  1  0.47111311  0.25656998  0.21505859  1  -0.287256  -0.000269  3.147162  0.0  -0.261271  -0.000789  3.402744  -0.001  -0.269458  -0.000517  3.421723  0.0  -1.178469  -0.001328  -0.292506  -0.255648  -0.001007  3.390084  -0.001
O  O116  1  0.88211024  0.72345685  0.83627641  1  -0.735071  0.039117  2.072943  0.024  -0.652483  0.047618  2.365925  0.029  -0.683542  0.042709  2.34585  0.024  -1.456693  0.078976  -0.355136  -0.628572  0.052101  2.380106  0.033
O  O117  1  0.11788309  0.27654868  0.16372479  1  -0.734947  -0.039109  2.072814  -0.024  -0.652369  -0.047618  2.365819  -0.029  -0.683404  -0.042707  2.345755  -0.024  -1.456797  -0.078966  -0.35506  -0.628446  -0.052077  2.37999  -0.032
O  O118  1  0.14237151  0.82424589  0.81425680  1  -0.73178  0.042066  2.126193  0.024  -0.644195  0.050782  2.427348  0.029  -0.676293  0.045641  2.405278  0.024  -1.463059  0.083631  -0.354083  -0.619215  0.054865  2.443153  0.032
O  O119  1  0.85762676  0.17575392  0.18574334  1  -0.731627  -0.042068  2.126137  -0.024  -0.644042  -0.050781  2.427277  -0.029  -0.676101  -0.04564  2.405214  -0.024  -1.463095  -0.083599  -0.354037  -0.619043  -0.054831  2.443084  -0.032
