# generated using pymatgen
data_UH8C14(SO3)2
_symmetry_space_group_name_H-M   'P 1'
_cell_length_a   10.34602926
_cell_length_b   10.83364684
_cell_length_c   14.09820000
_cell_angle_alpha   88.58399472
_cell_angle_beta   84.42574938
_cell_angle_gamma   76.99680808
_symmetry_Int_Tables_number   1
_chemical_formula_structural   UH8C14(SO3)2
_chemical_formula_sum   'U4 H32 C56 S8 O24'
_cell_volume   1532.39217134
_cell_formula_units_Z   4
loop_
 _symmetry_equiv_pos_site_id
 _symmetry_equiv_pos_as_xyz
  1  'x, y, z'
loop_
 _atom_site_type_symbol
 _atom_site_label
 _atom_site_symmetry_multiplicity
 _atom_site_fract_x
 _atom_site_fract_y
 _atom_site_fract_z
 _atom_site_occupancy
 _atom_site_pbe_bader_charge
 _atom_site_pbe_bader_spin_density
 _atom_site_pbe_cm5_charge
 _atom_site_pbe_ddec_charge
 _atom_site_pbe_ddec_spin_density
 _atom_site_pbe_ddec_sum_bond_order
 _atom_site_pbe_magmom
U  U0  1  0.69881039  0.55229923  0.14207765  1  2.933594  0  2.217575  2.502378  0  4.851283  0
U  U1  1  0.30118918  0.44769986  0.85792148  1  2.933581  0  2.217602  2.502362  0  4.851358  0
U  U2  1  0.18182391  0.63076699  0.19734626  1  2.936916  0  2.222527  2.501363  0  4.871803  0
U  U3  1  0.81817769  0.36923588  0.80265407  1  2.93668  0  2.222551  2.501493  0  4.871604  0
H  H4  1  0.28427013  0.97679762  0.04505641  1  0.122549  0  0.104422  0.106256  0  1.02953  0
H  H5  1  0.71573095  0.02320336  0.95494258  1  0.122536  0  0.104408  0.106224  0  1.029563  0
H  H6  1  0.31211823  0.13101329  0.91383630  1  0.053397  0  0.107349  0.097448  0  1.036682  0
H  H7  1  0.68788262  0.86898864  0.08616410  1  0.053423  0  0.107337  0.097462  0  1.036688  0
H  H8  1  0.46992203  0.06299570  0.77192539  1  0.090354  0  0.105106  0.1114  0  1.011974  0
H  H9  1  0.53007860  0.93700718  0.22807430  1  0.090379  0  0.105102  0.111384  0  1.012049  0
H  H10  1  0.57928425  0.68711232  0.89188603  1  0.155961  0  0.117213  0.135829  0  1.026743  0
H  H11  1  0.42071466  0.31288961  0.10811309  1  0.155905  0  0.117206  0.135841  0  1.026697  0
H  H12  1  0.26409593  0.55179998  0.46380509  1  0.104089  0  0.108615  0.111181  0  1.012759  0
H  H13  1  0.73590454  0.44819532  0.53619263  1  0.104034  0  0.108602  0.111139  0  1.012773  0
H  H14  1  0.24470949  0.41545881  0.60827058  1  0.071411  0  0.106125  0.095598  0  1.02795  0
H  H15  1  0.75528934  0.58453933  0.39172791  1  0.07139  0  0.106114  0.095567  0  1.027953  0
H  H16  1  0.40696467  0.21472746  0.62611098  1  0.110899  0  0.107825  0.122998  0  0.994845  0
H  H17  1  0.59303416  0.78527068  0.37389106  1  0.110952  0  0.107834  0.12304  0  0.99478  0
H  H18  1  0.61307293  0.27799884  0.35391801  1  0.097251  0  0.097877  0.099686  0  1.066992  0
H  H19  1  0.38693120  0.72199741  0.64608439  1  0.097348  0  0.097872  0.099651  0  1.067017  0
H  H20  1  0.78887004  0.74936909  0.88029844  1  0.114032  0  0.106656  0.114313  0  1.055429  0
H  H21  1  0.21113007  0.25063189  0.11970274  1  0.114038  0  0.106624  0.114287  0  1.055439  0
H  H22  1  0.99050015  0.03045151  0.75366974  1  0.128398  0  0.105027  0.12506  0  1.019542  0
H  H23  1  0.00949638  0.96955232  0.24633306  1  0.128381  0  0.105011  0.12508  0  1.019491  0
H  H24  1  0.15324469  0.98227518  0.87377922  1  0.108523  0  0.0982  0.097539  0  1.037741  0
H  H25  1  0.84675444  0.01772580  0.12622132  1  0.108511  0  0.098229  0.097583  0  1.037771  0
H  H26  1  0.12960944  0.82503934  0.00236138  1  0.107451  0  0.109349  0.099189  0  1.056809  0
H  H27  1  0.87039111  0.17495974  0.99763838  1  0.107462  0  0.109353  0.099159  0  1.056849  0
H  H28  1  0.82359695  0.26874705  0.28357335  1  0.116989  0  0.114154  0.115217  0  1.016202  0
H  H29  1  0.17640077  0.73125583  0.71642725  1  0.116996  0  0.114166  0.115182  0  1.016224  0
H  H30  1  0.92655796  0.09808826  0.55376354  1  0.109869  0  0.102111  0.108146  0  1.019929  0
H  H31  1  0.07344364  0.90191462  0.44623607  1  0.109806  0  0.102086  0.108094  0  1.020006  0
H  H32  1  0.07059776  0.24892572  0.57134034  1  0.102604  0  0.108225  0.110239  0  1.004541  0
H  H33  1  0.92940167  0.75107811  0.42865871  1  0.102582  0  0.108226  0.110271  0  1.004514  0
H  H34  1  0.09286383  0.40990831  0.44369183  1  0.104645  0  0.104464  0.104104  0  1.033211  0
H  H35  1  0.90713344  0.59009646  0.55630735  1  0.104693  0  0.104468  0.104095  0  1.033209  0
C  C36  1  0.41633538  0.73348778  0.05483470  1  1.536614  0  0.269556  0.679173  0  4.075866  0
C  C37  1  0.58366375  0.26651321  0.94516300  1  1.536635  0  0.269482  0.678994  0  4.076001  0
C  C38  1  0.42851544  0.82307644  0.97529442  1  -0.022458  0  -0.008063  -0.039528  0  3.964063  0
C  C39  1  0.57148444  0.17692549  0.02470392  1  -0.022042  0  -0.008052  -0.039454  0  3.96406  0
C  C40  1  0.35292083  0.94766388  0.98193968  1  -0.074749  0  -0.073465  -0.075735  0  3.930008  0
C  C41  1  0.64707927  0.05233711  0.01805937  1  -0.0748  0  -0.073432  -0.075691  0  3.929924  0
C  C42  1  0.36906828  0.03346786  0.90885917  1  -0.018949  0  -0.083348  -0.072381  0  3.994501  0
C  C43  1  0.63092988  0.96653312  0.09114215  1  -0.018939  0  -0.08336  -0.07244  0  3.994432  0
C  C44  1  0.45789712  0.99525951  0.82866409  1  -0.026213  0  -0.078023  -0.107707  0  3.959604  0
C  C45  1  0.54210082  0.00474242  0.17133580  1  -0.026271  0  -0.078005  -0.107638  0  3.959656  0
C  C46  1  0.53342958  0.87031303  0.82234501  1  -0.114033  0  -0.013051  0.05516  0  4.015911  0
C  C47  1  0.46656956  0.12968795  0.17765411  1  -0.113996  0  -0.013057  0.055095  0  4.015823  0
C  C48  1  0.51967028  0.78400598  0.89572058  1  -0.011419  0  -0.069806  -0.123643  0  3.893646  0
C  C49  1  0.48032982  0.21599501  0.10427777  1  -0.011729  0  -0.069772  -0.123592  0  3.893502  0
C  C50  1  0.45183767  0.50006160  0.31338991  1  1.53683  0  0.259529  0.665136  0  4.096307  0
C  C51  1  0.54816660  0.49992991  0.68660903  1  1.536352  0  0.25952  0.665174  0  4.096362  0
C  C52  1  0.44042023  0.42251844  0.40074529  1  -0.004622  0  -0.016534  -0.046614  0  3.988993  0
C  C53  1  0.55958263  0.57747496  0.59925442  1  -0.004542  0  -0.016564  -0.046622  0  3.989191  0
C  C54  1  0.33510545  0.46198774  0.47161543  1  -0.028172  0  -0.080999  -0.094635  0  3.950902  0
C  C55  1  0.66489405  0.53800756  0.52838306  1  -0.027812  0  -0.081014  -0.094616  0  3.950998  0
C  C56  1  0.32471792  0.38591581  0.55190829  1  -0.041166  0  -0.083583  -0.066087  0  3.997057  0
C  C57  1  0.67528091  0.61408233  0.44809020  1  -0.041319  0  -0.083512  -0.066003  0  3.997026  0
C  C58  1  0.41674982  0.27175866  0.56212466  1  -0.009062  0  -0.080166  -0.101477  0  3.913401  0
C  C59  1  0.58324848  0.72823758  0.43787603  1  -0.008877  0  -0.080186  -0.101512  0  3.913591  0
C  C60  1  0.52153365  0.23213968  0.49069797  1  -0.175221  0  -0.012736  0.062007  0  4.032053  0
C  C61  1  0.47846727  0.76785372  0.50930330  1  -0.175237  0  -0.012749  0.061983  0  4.032042  0
C  C62  1  0.53370636  0.30819835  0.41052282  1  -0.023989  0  -0.089508  -0.145249  0  3.97275  0
C  C63  1  0.46629456  0.69179506  0.58947915  1  -0.024432  0  -0.089485  -0.145213  0  3.972787  0
C  C64  1  0.93960330  0.69062319  0.02979448  1  1.531909  0  0.267435  0.673495  0  4.069623  0
C  C65  1  0.06039703  0.30937685  0.97020528  1  1.531914  0  0.267445  0.6735  0  4.069516  0
C  C66  1  0.95661049  0.77950798  0.94993624  1  -0.019098  0  -0.008273  -0.043502  0  3.953745  0
C  C67  1  0.04338983  0.22049206  0.05006494  1  -0.01904  0  -0.008291  -0.043519  0  3.953656  0
C  C68  1  0.86667338  0.80248776  0.87929331  1  -0.006696  0  -0.08575  -0.145332  0  3.923641  0
C  C69  1  0.13332762  0.19750943  0.12070788  1  -0.006598  0  -0.085734  -0.145392  0  3.923772  0
C  C70  1  0.87921842  0.89320377  0.80895147  1  -0.182709  0  -0.013279  0.058223  0  4.030773  0
C  C71  1  0.12077660  0.10679816  0.19105006  1  -0.183316  0  -0.01323  0.058296  0  4.030725  0
C  C72  1  0.98249068  0.95826753  0.80779076  1  -0.072717  0  -0.081852  -0.111914  0  3.944279  0
C  C73  1  0.01750510  0.04173535  0.19221282  1  -0.07196  0  -0.081853  -0.111892  0  3.944217  0
C  C74  1  0.07267510  0.93245991  0.87636935  1  -0.090723  0  -0.08612  -0.068224  0  3.996607  0
C  C75  1  0.92732328  0.06754012  0.12363268  1  -0.091105  0  -0.086159  -0.068316  0  3.996689  0
C  C76  1  0.06006989  0.84399291  0.94798145  1  0.016973  0  -0.074718  -0.076771  0  3.948013  0
C  C77  1  0.93992947  0.15600713  0.05202051  1  0.017104  0  -0.07469  -0.07669  0  3.94797  0
C  C78  1  0.96495782  0.44743365  0.28272500  1  1.512908  0  0.259717  0.66959  0  4.10684  0
C  C79  1  0.03504206  0.55256828  0.71727476  1  1.512953  0  0.25973  0.669521  0  4.106847  0
C  C80  1  0.95777536  0.34983423  0.35717188  1  -0.022129  0  -0.01626  -0.057463  0  3.99008  0
C  C81  1  0.04222213  0.65016960  0.64282802  1  -0.022242  0  -0.016289  -0.057426  0  3.989897  0
C  C82  1  0.87728471  0.26396863  0.34674771  1  -0.030258  0  -0.075949  -0.125214  0  3.951838  0
C  C83  1  0.12271278  0.73603519  0.65325289  1  -0.030147  0  -0.075987  -0.125161  0  3.951795  0
C  C84  1  0.86868439  0.17188276  0.41644922  1  -0.146098  0  -0.013734  0.049956  0  4.016105  0
C  C85  1  0.13131310  0.82812106  0.58355138  1  -0.146056  0  -0.01373  0.049945  0  4.016198  0
C  C86  1  0.93697762  0.16765570  0.49807731  1  -0.012364  0  -0.069937  -0.090253  0  3.944054  0
C  C87  1  0.06302107  0.83234717  0.50192252  1  -0.012533  0  -0.06988  -0.090166  0  3.944051  0
C  C88  1  0.01715835  0.25349477  0.50805649  1  -0.025552  0  -0.083586  -0.080719  0  3.993565  0
C  C89  1  0.98284078  0.74650621  0.49194334  1  -0.025422  0  -0.083583  -0.080779  0  3.993567  0
C  C90  1  0.02918076  0.34360069  0.43741947  1  -0.038646  0  -0.075335  -0.077357  0  3.937801  0
C  C91  1  0.97081651  0.65640409  0.56258042  1  -0.038654  0  -0.075348  -0.077392  0  3.937777  0
S  S92  1  0.65091297  0.81679080  0.72240897  1  0.051788  0  0.035751  -0.005121  0  2.832735  0
S  S93  1  0.34908713  0.18321018  0.27759079  1  0.051767  0  0.035766  -0.005074  0  2.832689  0
S  S94  1  0.63270634  0.08535687  0.51089707  1  0.071405  0  0.033732  -0.011858  0  2.880243  0
S  S95  1  0.36729368  0.91464032  0.48910419  1  0.071464  0  0.033752  -0.011808  0  2.880204  0
S  S96  1  0.77087228  0.94215032  0.71835626  1  0.065726  0  0.036559  -0.008066  0  2.872532  0
S  S97  1  0.22912737  0.05785256  0.28164704  1  0.065748  0  0.0365  -0.008146  0  2.87244  0
S  S98  1  0.77047974  0.06110385  0.39566144  1  0.037228  0  0.030718  -0.004069  0  2.780997  0
S  S99  1  0.22952156  0.93889618  0.60433967  1  0.037148  0  0.030712  -0.004109  0  2.781026  0
O  O100  1  0.67603741  0.69557781  0.21111116  1  -0.870517  0  -0.758007  -0.709853  0  1.820766  0
O  O101  1  0.32396247  0.30442412  0.78888859  1  -0.870516  0  -0.758072  -0.709858  0  1.820873  0
O  O102  1  0.84259749  0.63483016  0.03385914  1  -1.148276  0  -0.361244  -0.617939  0  2.312691  0
O  O103  1  0.15740283  0.36516987  0.96614062  1  -1.148267  0  -0.36126  -0.617929  0  2.312666  0
O  O104  1  0.56004799  0.47686676  0.25852983  1  -1.164963  0  -0.364402  -0.629624  0  2.334387  0
O  O105  1  0.43995853  0.52312759  0.74147031  1  -1.164916  0  -0.36432  -0.629571  0  2.334379  0
O  O106  1  0.51473808  0.64108360  0.06680690  1  -1.165642  0  -0.368118  -0.63636  0  2.36647  0
O  O107  1  0.48526202  0.35891738  0.93319215  1  -1.165645  0  -0.368133  -0.636346  0  2.36654  0
O  O108  1  0.72049468  0.40797667  0.07542696  1  -0.841871  0  -0.742275  -0.683446  0  1.860824  0
O  O109  1  0.27950542  0.59202431  0.92457138  1  -0.841849  0  -0.742232  -0.683417  0  1.860863  0
O  O110  1  0.88265441  0.46256183  0.21910143  1  -1.171144  0  -0.379546  -0.656869  0  2.394791  0
O  O111  1  0.11734450  0.53744010  0.78089769  1  -1.17115  0  -0.379543  -0.656822  0  2.394779  0
O  O112  1  0.26485512  0.48999130  0.13127073  1  -0.853062  0  -0.743914  -0.704753  0  1.906412  0
O  O113  1  0.73514446  0.51000779  0.86872555  1  -0.852891  0  -0.743911  -0.704722  0  1.906529  0
O  O114  1  0.30799787  0.75300122  0.10968438  1  -1.151228  0  -0.365023  -0.625395  0  2.331738  0
O  O115  1  0.69200612  0.24699976  0.89031440  1  -1.151248  0  -0.364998  -0.625352  0  2.331709  0
O  O116  1  0.05221627  0.51324866  0.28520378  1  -1.155699  0  -0.370409  -0.628945  0  2.353934  0
O  O117  1  0.94778503  0.48675138  0.71479520  1  -1.155701  0  -0.370423  -0.628969  0  2.35398  0
O  O118  1  0.35067267  0.58734158  0.29597786  1  -1.166015  0  -0.376191  -0.644231  0  2.344037  0
O  O119  1  0.64933085  0.41264898  0.70401973  1  -1.165577  0  -0.376269  -0.644365  0  2.344044  0
O  O120  1  0.02109036  0.67449651  0.09400222  1  -1.17806  0  -0.376412  -0.651503  0  2.392942  0
O  O121  1  0.97891280  0.32549974  0.90599671  1  -1.178099  0  -0.376381  -0.6515  0  2.392936  0
O  O122  1  0.09997414  0.76736394  0.26906090  1  -0.866807  0  -0.756199  -0.702868  0  1.84863  0
O  O123  1  0.90002954  0.23263420  0.73093653  1  -0.866835  0  -0.756188  -0.702908  0  1.848391  0
