# generated using pymatgen
data_CuH11C19NO4
_symmetry_space_group_name_H-M   'P 1'
_cell_length_a   18.22572186
_cell_length_b   23.72019973
_cell_length_c   23.72021705
_cell_angle_alpha   61.18688430
_cell_angle_beta   67.41408378
_cell_angle_gamma   67.41411542
_symmetry_Int_Tables_number   1
_chemical_formula_structural   CuH11C19NO4
_chemical_formula_sum   'Cu8 H88 C152 N8 O32'
_cell_volume   8041.17916294
_cell_formula_units_Z   8
loop_
 _symmetry_equiv_pos_site_id
 _symmetry_equiv_pos_as_xyz
  1  'x, y, z'
loop_
 _atom_site_type_symbol
 _atom_site_label
 _atom_site_symmetry_multiplicity
 _atom_site_fract_x
 _atom_site_fract_y
 _atom_site_fract_z
 _atom_site_occupancy
 _atom_site_pbe_bader_charge
 _atom_site_pbe_bader_spin_density
 _atom_site_pbe_cm5_charge
 _atom_site_pbe_ddec_charge
 _atom_site_pbe_ddec_spin_density
 _atom_site_pbe_ddec_sum_bond_order
 _atom_site_pbe_magmom
Cu  Cu0  1  0.97145784  0.35558652  0.71420653  1  1.071705  0.573368  0.682332  0.763269  0.730792  2.377708  0.574
Cu  Cu1  1  0.54127484  0.14441490  0.78579959  1  1.074629  0.57332  0.682325  0.763466  0.729987  2.377822  0.574
Cu  Cu2  1  0.45872779  0.21419880  0.85558282  1  1.0722  0.573233  0.682348  0.763663  0.72998  2.37752  0.574
Cu  Cu3  1  0.02854103  0.28579375  0.64441482  1  1.067995  0.573255  0.682336  0.763301  0.730808  2.377849  0.574
Cu  Cu4  1  0.02854164  0.64441397  0.28579358  1  1.068028  0.573255  0.68233  0.763331  0.730807  2.377804  0.574
Cu  Cu5  1  0.45872628  0.85558410  0.21420032  1  1.074665  0.573316  0.682309  0.763537  0.729983  2.377643  0.574
Cu  Cu6  1  0.54127273  0.78580020  0.14441600  1  1.07218  0.573237  0.682345  0.763596  0.729984  2.377578  0.574
Cu  Cu7  1  0.97145919  0.71420624  0.35558615  1  1.071691  0.573369  0.682295  0.763212  0.730794  2.377801  0.574
H  H8  1  0.55930805  0.98994852  0.98994830  1  0.06944  0.00043  0.104991  0.110981  0.000172  1.018794  0.0
H  H9  1  0.03913519  0.51009465  0.51009451  1  0.063064  0.000437  0.104761  0.110653  0.000172  1.019825  0.0
H  H10  1  0.96086608  0.48990386  0.48990434  1  0.063434  0.000437  0.104755  0.110653  0.000172  1.01979  0.0
H  H11  1  0.44069143  0.01005197  0.01005096  1  0.070291  0.00043  0.10499  0.111012  0.000172  1.018812  0.0
H  H12  1  0.78835351  0.02336638  0.02336649  1  0.062942  0.000474  0.102491  0.104814  0.000187  1.012693  0.0
H  H13  1  0.33503735  0.47662844  0.47662860  1  0.063577  0.000475  0.102617  0.104459  0.000188  1.014038  0.0
H  H14  1  0.66496184  0.52337105  0.52336954  1  0.063532  0.000475  0.102599  0.104457  0.000188  1.014068  0.0
H  H15  1  0.21164671  0.97663361  0.97663363  1  0.062944  0.000474  0.10248  0.104841  0.000187  1.012714  0.0
H  H16  1  0.83574628  0.17506434  0.74475484  1  0.089554  0.000378  0.105902  0.108805  0.000285  1.002616  0.0
H  H17  1  0.25560559  0.32494237  0.75518152  1  0.092767  0.000375  0.105843  0.109139  0.000286  1.002383  0.0
H  H18  1  0.74439454  0.24481742  0.67505801  1  0.092704  0.000375  0.105814  0.109101  0.000286  1.002441  0.0
H  H19  1  0.16425614  0.25524473  0.82493497  1  0.089541  0.000378  0.105868  0.108748  0.000285  1.002692  0.0
H  H20  1  0.16425558  0.82493416  0.25524467  1  0.089567  0.000378  0.105901  0.108811  0.000285  1.002624  0.0
H  H21  1  0.74439492  0.67505861  0.24481678  1  0.092708  0.000375  0.105817  0.109085  0.000286  1.002447  0.0
H  H22  1  0.25560568  0.75518257  0.32494169  1  0.09273  0.000375  0.105831  0.109121  0.000286  1.002392  0.0
H  H23  1  0.83574527  0.74475526  0.17506438  1  0.089555  0.000378  0.105906  0.108797  0.000285  1.002602  0.0
H  H24  1  0.74927571  0.09734267  0.83008976  1  0.067761  0.000181  0.102935  0.109954  7.1e-05  1.002752  0.0
H  H25  1  0.17673153  0.40264015  0.66988702  1  0.078178  0.000178  0.103459  0.110475  7.1e-05  1.003252  0.0
H  H26  1  0.82326800  0.33011233  0.59735855  1  0.078166  0.000179  0.103461  0.110517  7.1e-05  1.003196  0.0
H  H27  1  0.25072637  0.16990824  0.90265752  1  0.067789  0.000181  0.102975  0.110035  7.1e-05  1.002713  0.0
H  H28  1  0.25072466  0.90265683  0.16990929  1  0.067795  0.000181  0.102922  0.109936  7.1e-05  1.002653  0.0
H  H29  1  0.82326810  0.59735984  0.33011159  1  0.078171  0.000179  0.103463  0.110525  7.1e-05  1.003205  0.0
H  H30  1  0.17673163  0.66988766  0.40264006  1  0.078177  0.000178  0.103469  0.110517  7.1e-05  1.003201  0.0
H  H31  1  0.74927489  0.83009026  0.09734301  1  0.067779  0.000181  0.102915  0.109902  7.1e-05  1.002667  0.0
H  H32  1  0.75273492  0.14930911  0.97978917  1  0.050552  0.000235  0.099281  0.098358  0.000111  1.001986  0.0
H  H33  1  0.38181397  0.35066695  0.52018467  1  0.027175  0.000239  0.099492  0.09895  0.000111  1.001484  0.0
H  H34  1  0.61818620  0.47981398  0.64933335  1  0.027218  0.000239  0.099495  0.09896  0.000111  1.001502  0.0
H  H35  1  0.24726475  0.02021136  0.85068926  1  0.050631  0.000235  0.099287  0.098357  0.000111  1.001953  0.0
H  H36  1  0.24726456  0.85069138  0.02021051  1  0.050533  0.000235  0.099288  0.098377  0.000111  1.001951  0.0
H  H37  1  0.61818685  0.64933304  0.47981359  1  0.027226  0.000239  0.099497  0.098968  0.000111  1.001512  0.0
H  H38  1  0.38181299  0.52018552  0.35066690  1  0.027198  0.000239  0.099483  0.098943  0.000111  1.001533  0.0
H  H39  1  0.75273473  0.97978912  0.14930916  1  0.050547  0.000235  0.099279  0.098345  0.000111  1.001994  0.0
H  H40  1  0.83588312  0.22950906  0.89295271  1  0.056348  0.000377  0.101512  0.102666  0.000285  1.007497  0.0
H  H41  1  0.45832399  0.27047139  0.60703413  1  0.058387  0.000377  0.102043  0.103371  0.000285  1.008373  0.0
H  H42  1  0.54167565  0.39296471  0.72952990  1  0.058392  0.000377  0.102019  0.103349  0.000285  1.008379  0.0
H  H43  1  0.16411844  0.10704781  0.77048969  1  0.056376  0.000377  0.101482  0.102609  0.000285  1.007382  0.0
H  H44  1  0.16411829  0.77049093  0.10704579  1  0.056532  0.000377  0.101505  0.102627  0.000285  1.007488  0.0
H  H45  1  0.54167593  0.72952959  0.39296476  1  0.058401  0.000377  0.102027  0.103365  0.000285  1.008362  0.0
H  H46  1  0.45832428  0.60703429  0.27047079  1  0.058385  0.000377  0.102039  0.103374  0.000285  1.008364  0.0
H  H47  1  0.83588192  0.89295367  0.22950883  1  0.056351  0.000377  0.101459  0.102543  0.000285  1.007445  0.0
H  H48  1  0.87226469  0.34079911  0.85486388  1  0.129631  3e-06  0.120374  0.095538  -2.8e-05  0.999371  0.0
H  H49  1  0.56791693  0.15916786  0.64514561  1  0.128957  2e-06  0.12038  0.096033  -2.7e-05  0.999131  0.0
H  H50  1  0.43208414  0.35485509  0.84083079  1  0.128898  2e-06  0.120359  0.096023  -2.7e-05  0.999119  0.0
H  H51  1  0.12773394  0.14513867  0.65919987  1  0.129679  3e-06  0.120382  0.095534  -2.8e-05  0.999415  0.0
H  H52  1  0.12773539  0.65919940  0.14513701  1  0.129661  3e-06  0.120344  0.09551  -2.8e-05  0.999426  0.0
H  H53  1  0.43208330  0.84083213  0.35485409  1  0.128957  2e-06  0.120377  0.096036  -2.7e-05  0.999136  0.0
H  H54  1  0.56791653  0.64514539  0.15916854  1  0.128947  2e-06  0.120368  0.096034  -2.7e-05  0.999107  0.0
H  H55  1  0.87226539  0.85486232  0.34080130  1  0.129682  3e-06  0.120376  0.095564  -2.8e-05  0.999362  0.0
H  H56  1  0.80962645  0.40576816  0.92655159  1  0.089417  3.9e-05  0.107593  0.111598  2.7e-05  1.002271  0.0
H  H57  1  0.64194704  0.09418085  0.57345261  1  0.080875  3.9e-05  0.107482  0.111179  2.7e-05  1.002242  0.0
H  H58  1  0.35805327  0.42654557  0.90581865  1  0.08092  3.9e-05  0.107504  0.111216  2.7e-05  1.002246  0.0
H  H59  1  0.19037433  0.07344979  0.59423197  1  0.089443  3.9e-05  0.107581  0.111559  2.7e-05  1.002338  0.0
H  H60  1  0.19037482  0.59423034  0.07344937  1  0.089435  3.9e-05  0.107559  0.111512  2.7e-05  1.002354  0.0
H  H61  1  0.35805259  0.90581915  0.42654727  1  0.080877  3.9e-05  0.107504  0.111214  2.7e-05  1.002265  0.0
H  H62  1  0.64194741  0.57345293  0.09418122  1  0.080891  3.9e-05  0.107499  0.111211  2.7e-05  1.002215  0.0
H  H63  1  0.80962559  0.92655120  0.40576903  1  0.08943  3.9e-05  0.107559  0.111515  2.7e-05  1.002363  0.0
H  H64  1  0.91281465  0.56483761  0.76099598  1  0.075898  4.8e-05  0.105839  0.109137  3.1e-05  1.004413  0.0
H  H65  1  0.73866501  0.93515384  0.73904731  1  0.072817  4.8e-05  0.105957  0.109266  3.1e-05  1.004832  0.0
H  H66  1  0.26133714  0.26095335  0.06484414  1  0.072918  4.8e-05  0.105969  0.109266  3.1e-05  1.00489  0.0
H  H67  1  0.08718429  0.23900409  0.43516343  1  0.075914  4.8e-05  0.105856  0.109153  3.1e-05  1.004406  0.0
H  H68  1  0.08718513  0.43516189  0.23900535  1  0.075844  4.8e-05  0.105821  0.109114  3.1e-05  1.00441  0.0
H  H69  1  0.26133596  0.06484565  0.26095283  1  0.072827  4.8e-05  0.105958  0.109236  3.1e-05  1.004845  0.0
H  H70  1  0.73866294  0.73904714  0.93515536  1  0.072907  4.8e-05  0.105967  0.109265  3.1e-05  1.004866  0.0
H  H71  1  0.91281489  0.76099541  0.56483766  1  0.075846  4.8e-05  0.105821  0.109115  3.1e-05  1.004417  0.0
H  H72  1  0.83358170  0.44942447  0.98324567  1  0.038635  0.0  0.104938  0.104084  1e-06  0.998829  0.0
H  H73  1  0.76620633  0.05057278  0.51682599  1  0.030202  0.0  0.105149  0.104381  1e-06  0.99802  0.0
H  H74  1  0.23379380  0.48317415  0.94942731  1  0.030047  0.0  0.105126  0.104332  1e-06  0.998007  0.0
H  H75  1  0.16641756  0.01675512  0.55057676  1  0.038593  0.0  0.104932  0.104098  1e-06  0.998839  0.0
H  H76  1  0.16641719  0.55057603  0.01675545  1  0.038611  0.0  0.104926  0.104058  1e-06  0.998886  0.0
H  H77  1  0.23379315  0.94942771  0.48317453  1  0.030064  0.0  0.105126  0.104352  1e-06  0.998056  0.0
H  H78  1  0.76620553  0.51682684  0.05057302  1  0.030379  0.0  0.105148  0.104396  1e-06  0.998031  0.0
H  H79  1  0.83358207  0.98324488  0.44942480  1  0.038625  0.0  0.104924  0.104087  1e-06  0.998864  0.0
H  H80  1  0.79470388  0.62543764  0.80716265  1  0.091141  1e-06  0.102984  0.101503  2e-06  1.003001  0.0
H  H81  1  0.72730176  0.87453810  0.69285057  1  0.023969  1e-06  0.102841  0.101319  2e-06  1.003341  0.0
H  H82  1  0.27269830  0.30714927  0.12546151  1  0.023918  1e-06  0.102844  0.101317  2e-06  1.003322  0.0
H  H83  1  0.20529486  0.19283927  0.37456347  1  0.091248  1e-06  0.102976  0.101483  2e-06  1.002991  0.0
H  H84  1  0.20529500  0.37456285  0.19283805  1  0.091127  1e-06  0.10299  0.101506  2e-06  1.003054  0.0
H  H85  1  0.27269697  0.12546289  0.30714993  1  0.023978  1e-06  0.102832  0.101304  2e-06  1.003372  0.0
H  H86  1  0.72730118  0.69285122  0.87453859  1  0.023886  1e-06  0.10283  0.10132  2e-06  1.003348  0.0
H  H87  1  0.79470387  0.80716172  0.62543745  1  0.091259  1e-06  0.102984  0.101502  2e-06  1.00299  0.0
H  H88  1  0.96936189  0.49313207  0.69640420  1  0.130913  -1e-05  0.120515  0.098001  -3.5e-05  0.989182  0.0
H  H89  1  0.65892860  0.00690092  0.80361215  1  0.121597  -1e-05  0.120349  0.098468  -3.6e-05  0.988995  0.0
H  H90  1  0.34107276  0.19638736  0.99309870  1  0.121569  -1e-05  0.12034  0.098421  -3.6e-05  0.988992  0.0
H  H91  1  0.03063519  0.30359545  0.50686895  1  0.130889  -1e-05  0.120499  0.098002  -3.5e-05  0.989159  0.0
H  H92  1  0.03063625  0.50686892  0.30359521  1  0.130905  -1e-05  0.120501  0.097981  -3.5e-05  0.989206  0.0
H  H93  1  0.34107147  0.99309957  0.19638777  1  0.121613  -1e-05  0.120339  0.098446  -3.5e-05  0.98899  0.0
H  H94  1  0.65892731  0.80361313  0.00690081  1  0.121568  -1e-05  0.120347  0.098462  -3.5e-05  0.988993  0.0
H  H95  1  0.96936458  0.69640405  0.49313196  1  0.130891  -1e-05  0.120507  0.097988  -3.5e-05  0.989185  0.0
C  C96  1  0.59406287  0.10334045  0.90005136  1  1.581026  -0.001369  0.215527  0.587437  -0.001595  4.184997  -0.004
C  C97  1  0.09738860  0.39669490  0.59997474  1  1.585654  -0.001474  0.214878  0.586636  -0.001592  4.182421  -0.004
C  C98  1  0.90260449  0.40002618  0.60331113  1  1.585863  -0.001474  0.214884  0.586603  -0.001592  4.182418  -0.004
C  C99  1  0.40594057  0.09994683  0.89665598  1  1.581  -0.00137  0.21549  0.58735  -0.001594  4.185082  -0.004
C  C100  1  0.40593899  0.89665806  0.09994689  1  1.58091  -0.00137  0.215546  0.587492  -0.001595  4.184921  -0.004
C  C101  1  0.90260610  0.60330956  0.40002569  1  1.586048  -0.001476  0.21497  0.586837  -0.001593  4.182171  -0.004
C  C102  1  0.09739112  0.59997332  0.39669185  1  1.585795  -0.001474  0.214931  0.586704  -0.001592  4.182382  -0.004
C  C103  1  0.59406025  0.90005316  0.10334228  1  1.580905  -0.001369  0.215518  0.58741  -0.001594  4.184996  -0.004
C  C104  1  0.63828940  0.05436223  0.95352070  1  -0.064035  0.014206  -0.008073  -0.049628  0.010068  3.931184  0.011
C  C105  1  0.14611470  0.44567503  0.54650308  1  -0.089639  0.014277  -0.00787  -0.04873  0.010073  3.930621  0.011
C  C106  1  0.85388402  0.45349577  0.55432651  1  -0.089855  0.014278  -0.00792  -0.048799  0.010073  3.930766  0.011
C  C107  1  0.36170900  0.04648127  0.94564030  1  -0.064127  0.014205  -0.007992  -0.049509  0.010068  3.931029  0.011
C  C108  1  0.36171082  0.94563975  0.04647973  1  -0.064204  0.014205  -0.008022  -0.049579  0.010068  3.931011  0.011
C  C109  1  0.85388464  0.55432396  0.45349694  1  -0.089796  0.01428  -0.007936  -0.048939  0.010075  3.930776  0.011
C  C110  1  0.14611487  0.54650273  0.44567515  1  -0.089736  0.014277  -0.0079  -0.048825  0.010073  3.930678  0.011
C  C111  1  0.63828914  0.95351971  0.05435996  1  -0.064192  0.014204  -0.00804  -0.049615  0.010067  3.931007  0.011
C  C112  1  0.60815983  0.99839790  0.99839627  1  0.031184  0.009431  -0.083655  -0.120618  0.006209  3.952676  0.006
C  C113  1  0.10487959  0.50164003  0.50164088  1  0.026502  0.009419  -0.083551  -0.120965  0.006186  3.954226  0.006
C  C114  1  0.89511810  0.49836046  0.49836144  1  0.026527  0.009416  -0.083527  -0.120922  0.006184  3.954324  0.006
C  C115  1  0.39184143  0.00160259  0.00160205  1  0.031129  0.009429  -0.083704  -0.120737  0.006208  3.952801  0.006
C  C116  1  0.70366985  0.06446265  0.96246248  1  0.00701  0.010705  -0.000986  0.053549  0.006969  3.981599  0.007
C  C117  1  0.23055598  0.43553938  0.53754639  1  0.057019  0.010627  -0.000527  0.053095  0.006943  3.983265  0.007
C  C118  1  0.76944259  0.46245433  0.56446034  1  0.057091  0.010627  -0.000565  0.053075  0.006943  3.98319  0.007
C  C119  1  0.29633338  0.03753662  0.93553663  1  0.007492  0.010705  -0.000977  0.053562  0.00697  3.981598  0.007
C  C120  1  0.29633156  0.93553735  0.03753687  1  0.007507  0.010704  -0.000999  0.053588  0.006969  3.981485  0.007
C  C121  1  0.76944380  0.56446012  0.46245284  1  0.057045  0.010627  -0.000562  0.053097  0.006943  3.983241  0.007
C  C122  1  0.23055511  0.53754616  0.43553818  1  0.057035  0.010628  -0.00053  0.053107  0.006944  3.983238  0.007
C  C123  1  0.70366759  0.96246288  0.06446309  1  0.007498  0.010705  -0.000992  0.053566  0.00697  3.981482  0.007
C  C124  1  0.73458498  0.01819263  0.01819302  1  0.00562  -0.000897  -0.085539  -0.177571  -0.001223  3.945762  -0.001
C  C125  1  0.27091740  0.48181576  0.48181575  1  -0.041122  -0.000862  -0.086628  -0.177098  -0.001214  3.948205  -0.001
C  C126  1  0.72907985  0.51818423  0.51818314  1  -0.041235  -0.000862  -0.086501  -0.176985  -0.001214  3.948125  -0.001
C  C127  1  0.26541614  0.98180637  0.98180605  1  0.005261  -0.000897  -0.085583  -0.177703  -0.001223  3.94585  -0.001
C  C128  1  0.89626881  0.25145144  0.76243913  1  1.551512  -0.001214  0.212561  0.579656  -0.001444  4.157105  -0.004
C  C129  1  0.41013273  0.24853943  0.73757393  1  1.555518  -0.001193  0.213391  0.580912  -0.001442  4.154718  -0.004
C  C130  1  0.58987058  0.26242149  0.75146158  1  1.555473  -0.001193  0.213496  0.581045  -0.001443  4.154306  -0.004
C  C131  1  0.10373197  0.23756525  0.74854722  1  1.551196  -0.001217  0.21258  0.579681  -0.001445  4.157226  -0.004
C  C132  1  0.10373112  0.74854756  0.23756283  1  1.55158  -0.001214  0.212586  0.579742  -0.001445  4.157006  -0.004
C  C133  1  0.58986779  0.75146156  0.26242394  1  1.555525  -0.001193  0.213449  0.581004  -0.001443  4.154502  -0.004
C  C134  1  0.41013233  0.73757553  0.24853834  1  1.555529  -0.001193  0.213415  0.58097  -0.001443  4.154529  -0.004
C  C135  1  0.89626973  0.76243772  0.25145188  1  1.551565  -0.001214  0.21257  0.579707  -0.001445  4.156971  -0.004
C  C136  1  0.81609465  0.16985644  0.79617820  1  -0.059475  0.000282  -0.080454  -0.080241  -0.00014  3.977985  0.0
C  C137  1  0.28214320  0.33010585  0.70377494  1  -0.006866  0.000252  -0.081202  -0.081289  -0.000137  3.976197  0.0
C  C138  1  0.71785657  0.29622363  0.66989458  1  -0.006777  0.000252  -0.081178  -0.081222  -0.000137  3.976222  0.0
C  C139  1  0.18390866  0.20382244  0.83014315  1  -0.059524  0.000282  -0.080478  -0.080196  -0.00014  3.978041  0.0
C  C140  1  0.18390632  0.83014305  0.20382194  1  -0.059515  0.000282  -0.080488  -0.080281  -0.00014  3.978096  0.0
C  C141  1  0.71785732  0.66989514  0.29622335  1  -0.006747  0.000252  -0.081172  -0.081162  -0.000137  3.976186  0.0
C  C142  1  0.28214321  0.70377587  0.33010549  1  -0.006786  0.000252  -0.081184  -0.081217  -0.000137  3.976162  0.0
C  C143  1  0.81609379  0.79617805  0.16985650  1  -0.059523  0.000282  -0.080453  -0.080203  -0.00014  3.977955  0.0
C  C144  1  0.74601158  0.11701761  0.91126559  1  0.011812  -0.001383  -0.003447  0.081032  -0.001658  3.99523  -0.001
C  C145  1  0.27429418  0.38298107  0.58870504  1  -0.038199  -0.001378  -0.002335  0.082058  -0.001661  3.994903  -0.001
C  C146  1  0.72570641  0.41129353  0.61701910  1  -0.038032  -0.001378  -0.002319  0.082046  -0.00166  3.994981  -0.001
C  C147  1  0.25398996  0.08873300  0.88298231  1  0.011905  -0.001383  -0.003497  0.080975  -0.001658  3.9953  -0.001
C  C148  1  0.25398850  0.88298288  0.08873349  1  0.011946  -0.001384  -0.003474  0.081001  -0.001658  3.995222  -0.001
C  C149  1  0.72570693  0.61701991  0.41129266  1  -0.038264  -0.001378  -0.002282  0.082143  -0.00166  3.994822  -0.001
C  C150  1  0.27429397  0.58870596  0.38298164  1  -0.038096  -0.001378  -0.002329  0.082096  -0.001661  3.994897  -0.001
C  C151  1  0.74600997  0.91126600  0.11701838  1  0.011928  -0.001384  -0.003463  0.081019  -0.001658  3.995186  -0.001
C  C152  1  0.84133495  0.20697069  0.81350833  1  -0.015858  0.017123  -0.018023  -0.029925  0.01201  3.963996  0.013
C  C153  1  0.36180507  0.29297860  0.68647521  1  -0.0732  0.017151  -0.017347  -0.029322  0.012013  3.96069  0.013
C  C154  1  0.63819499  0.31352323  0.70702288  1  -0.073281  0.017152  -0.017359  -0.029355  0.012014  3.960699  0.013
C  C155  1  0.15866706  0.18649217  0.79302775  1  -0.015818  0.017125  -0.017993  -0.030065  0.012012  3.964098  0.013
C  C156  1  0.15866543  0.79302881  0.18649114  1  -0.015787  0.017125  -0.017982  -0.029966  0.012012  3.963935  0.013
C  C157  1  0.63819530  0.70702288  0.31352331  1  -0.073281  0.017152  -0.017337  -0.029342  0.012014  3.960696  0.013
C  C158  1  0.36180494  0.68647577  0.29297781  1  -0.073266  0.017152  -0.01736  -0.029401  0.012014  3.960794  0.013
C  C159  1  0.84133524  0.81350881  0.20697044  1  -0.015799  0.017125  -0.018007  -0.029983  0.012012  3.963935  0.013
C  C160  1  0.76801034  0.12621164  0.84425082  1  -0.029874  0.002328  -0.087503  -0.122258  0.001441  3.951171  0.002
C  C161  1  0.23847877  0.37376071  0.65571837  1  -0.031402  0.002335  -0.088112  -0.122949  0.001439  3.952853  0.002
C  C162  1  0.76152022  0.34428077  0.62623848  1  -0.031391  0.002335  -0.088161  -0.123069  0.001439  3.952907  0.002
C  C163  1  0.23199066  0.15574779  0.87378855  1  -0.029982  0.002328  -0.087491  -0.122311  0.001441  3.95115  0.002
C  C164  1  0.23199018  0.87378736  0.15574885  1  -0.029865  0.002329  -0.087493  -0.122241  0.001441  3.951126  0.002
C  C165  1  0.76152130  0.62623978  0.34427987  1  -0.031474  0.002334  -0.088212  -0.123176  0.001439  3.952945  0.002
C  C166  1  0.23847941  0.65571923  0.37376140  1  -0.031418  0.002335  -0.088157  -0.123064  0.001439  3.952842  0.002
C  C167  1  0.76801002  0.84425071  0.12621258  1  -0.029869  0.002329  -0.087475  -0.122203  0.001442  3.951099  0.002
C  C168  1  0.77058269  0.15504118  0.92819016  1  -0.045561  0.002426  -0.091946  -0.136252  0.0015  3.998566  0.002
C  C169  1  0.35380205  0.34494891  0.57178059  1  0.030576  0.002402  -0.093391  -0.13831  0.001498  3.996597  0.002
C  C170  1  0.64619818  0.42821878  0.65504976  1  0.030577  0.002402  -0.093363  -0.138267  0.001498  3.996609  0.002
C  C171  1  0.22941849  0.07180891  0.84495872  1  -0.045835  0.002427  -0.091927  -0.136193  0.001501  3.998504  0.002
C  C172  1  0.22941769  0.84495831  0.07180931  1  -0.045742  0.002426  -0.091936  -0.136242  0.001501  3.9985  0.002
C  C173  1  0.64619907  0.65505009  0.42821849  1  0.030731  0.002402  -0.093406  -0.138349  0.001498  3.996572  0.002
C  C174  1  0.35380219  0.57178072  0.34495014  1  0.030583  0.002402  -0.093379  -0.138318  0.001498  3.996657  0.002
C  C175  1  0.77058263  0.92819010  0.15504204  1  -0.0457  0.002427  -0.091917  -0.136226  0.001501  3.998502  0.002
C  C176  1  0.81684769  0.20004284  0.87979272  1  -0.024853  2.5e-05  -0.085742  -0.088935  -0.000339  3.991482  0.0
C  C177  1  0.39666491  0.29992620  0.62018228  1  -0.032424  -6e-06  -0.086095  -0.088963  -0.000343  3.991992  0.0
C  C178  1  0.60333561  0.37981667  0.70007403  1  -0.032466  -6e-06  -0.086085  -0.088957  -0.000343  3.99202  0.0
C  C179  1  0.18315537  0.12020727  0.79995712  1  -0.024812  2.5e-05  -0.085768  -0.088841  -0.000339  3.991447  0.0
C  C180  1  0.18315431  0.79995715  0.12020603  1  -0.02505  2.5e-05  -0.085724  -0.088839  -0.000339  3.991488  0.0
C  C181  1  0.60333591  0.70007380  0.37981682  1  -0.032492  -6e-06  -0.086077  -0.088945  -0.000343  3.991997  0.0
C  C182  1  0.39666432  0.62018233  0.29992623  1  -0.032502  -6e-06  -0.086083  -0.088934  -0.000343  3.992029  0.0
C  C183  1  0.81684648  0.87979322  0.20004228  1  -0.024859  2.5e-05  -0.085756  -0.08883  -0.000339  3.991445  0.0
C  C184  1  0.85572544  0.49156588  0.85002528  1  -0.006738  -0.001035  0.008797  0.105336  -0.001138  4.005856  -0.001
C  C185  1  0.69733939  0.00840873  0.65000649  1  0.000268  -0.001032  0.007519  0.103172  -0.001136  4.007812  -0.001
C  C186  1  0.30266196  0.34999366  0.99159005  1  -0.000106  -0.001032  0.007517  0.103238  -0.001135  4.007744  -0.001
C  C187  1  0.14427445  0.14997559  0.50843488  1  -0.006958  -0.001035  0.008791  0.105359  -0.001138  4.005885  -0.001
C  C188  1  0.14427493  0.50843361  0.14997588  1  -0.006958  -0.001035  0.00882  0.104538  -0.001138  4.005427  -0.001
C  C189  1  0.30266023  0.99159126  0.34999423  1  0.000248  -0.001032  0.007499  0.103128  -0.001136  4.007845  -0.001
C  C190  1  0.69733811  0.65000683  0.00840988  1  -9.3e-05  -0.001032  0.007497  0.103169  -0.001136  4.00787  -0.001
C  C191  1  0.85572518  0.85002440  0.49156626  1  -0.006928  -0.001035  0.008835  0.105378  -0.001138  4.005804  -0.001
C  C192  1  0.81868500  0.53219965  0.89007684  1  -0.029996  -7.5e-05  -0.005742  0.063938  -9.8e-05  3.999552  0.0
C  C193  1  0.74096673  0.96777302  0.60995530  1  -0.058299  -7.7e-05  -0.00539  0.067207  -9.8e-05  3.995684  0.0
C  C194  1  0.25903388  0.39004461  0.03222641  1  -0.058278  -7.7e-05  -0.005366  0.067205  -9.8e-05  3.995601  0.0
C  C195  1  0.18131402  0.10992468  0.46780031  1  -0.029959  -7.5e-05  -0.005752  0.063902  -9.8e-05  3.999539  0.0
C  C196  1  0.18131344  0.46780035  0.10992423  1  -0.02996  -7.5e-05  -0.005785  0.066606  -9.7e-05  3.995597  0.0
C  C197  1  0.25903216  0.03222747  0.39004540  1  -0.058307  -7.7e-05  -0.005399  0.067174  -9.8e-05  3.995641  0.0
C  C198  1  0.74096560  0.60995588  0.96777369  1  -0.058324  -7.7e-05  -0.005384  0.067241  -9.8e-05  3.995603  0.0
C  C199  1  0.81868605  0.89007581  0.53220004  1  -0.029983  -7.5e-05  -0.005785  0.06387  -9.8e-05  3.999595  0.0
C  C200  1  0.87984697  0.39066696  0.83652527  1  0.498132  -0.000687  0.052398  0.106613  -0.0008  3.949914  0.0
C  C201  1  0.60704617  0.10931015  0.66346697  1  0.498889  -0.000686  0.051951  0.105602  -0.000799  3.95128  0.0
C  C202  1  0.39295441  0.33653286  0.89068999  1  0.498852  -0.000686  0.051925  0.105544  -0.000799  3.951351  0.0
C  C203  1  0.12015324  0.16347656  0.60933249  1  0.497921  -0.000687  0.052289  0.106488  -0.0008  3.950174  0.0
C  C204  1  0.12015415  0.60933204  0.16347549  1  0.497902  -0.000687  0.05241  0.106646  -0.0008  3.949838  0.0
C  C205  1  0.39295346  0.89068984  0.33653375  1  0.498914  -0.000686  0.051947  0.105579  -0.000799  3.951307  0.0
C  C206  1  0.60704582  0.66346713  0.10931013  1  0.498816  -0.000686  0.051913  0.105532  -0.000799  3.951303  0.0
C  C207  1  0.87984668  0.83652442  0.39066808  1  0.497902  -0.000687  0.052313  0.106479  -0.0008  3.949968  0.0
C  C208  1  0.84570481  0.42705449  0.87609679  1  -0.087183  0.000761  -0.086377  -0.184664  0.000495  3.964441  0.001
C  C209  1  0.64886154  0.07291199  0.62391065  1  -0.04698  0.000757  -0.085598  -0.183376  0.000492  3.963473  0.001
C  C210  1  0.35113821  0.37608830  0.92708767  1  -0.046692  0.000757  -0.085629  -0.183464  0.000492  3.963636  0.001
C  C211  1  0.15429603  0.12390496  0.57294483  1  -0.087029  0.00076  -0.086323  -0.18456  0.000494  3.96453  0.001
C  C212  1  0.15429646  0.57294401  0.12390417  1  -0.086946  0.000761  -0.086318  -0.184546  0.000494  3.964586  0.001
C  C213  1  0.35113734  0.92708850  0.37608962  1  -0.046999  0.000757  -0.085609  -0.183389  0.000492  3.963545  0.001
C  C214  1  0.64886157  0.62391120  0.07291240  1  -0.04667  0.000757  -0.085605  -0.183403  0.000492  3.963527  0.001
C  C215  1  0.84570390  0.87609603  0.42705574  1  -0.086942  0.000761  -0.08633  -0.184516  0.000495  3.964432  0.001
C  C216  1  0.90126956  0.51568987  0.78396953  1  0.013453  0.00074  -0.087332  -0.186074  0.000484  3.967105  0.001
C  C217  1  0.70095283  0.98429529  0.71606384  1  -0.02902  0.000735  -0.086827  -0.185835  0.000481  3.969991  0.001
C  C218  1  0.29904836  0.28393685  0.01570354  1  -0.028991  0.000734  -0.086792  -0.185827  0.000481  3.970024  0.001
C  C219  1  0.09873106  0.21603035  0.48431037  1  0.013618  0.00074  -0.087336  -0.186081  0.000484  3.96712  0.001
C  C220  1  0.09873007  0.48431012  0.21603076  1  0.013621  0.00074  -0.087346  -0.186139  0.000484  3.967335  0.001
C  C221  1  0.29904620  0.01570471  0.28393705  1  -0.029035  0.000735  -0.086751  -0.185668  0.000481  3.969885  0.001
C  C222  1  0.70095171  0.71606364  0.98429639  1  -0.029016  0.000735  -0.08681  -0.185816  0.000481  3.970077  0.001
C  C223  1  0.90126990  0.78396914  0.51569020  1  0.013602  0.00074  -0.087354  -0.186104  0.000484  3.967127  0.001
C  C224  1  0.80940533  0.50277262  0.95918647  1  0.011087  -0.000132  -0.086988  -0.122472  -0.000147  3.986476  0.0
C  C225  1  0.77134850  0.99721870  0.54084588  1  -0.087358  -0.000134  -0.087516  -0.124202  -0.000146  3.984243  0.0
C  C226  1  0.22864975  0.45915427  0.00278158  1  -0.087201  -0.000134  -0.087498  -0.124221  -0.000146  3.984298  0.0
C  C227  1  0.19059270  0.04081521  0.49722795  1  0.011158  -0.000132  -0.087012  -0.122543  -0.000147  3.986422  0.0
C  C228  1  0.19059252  0.49722737  0.04081477  1  0.011086  -0.000132  -0.086966  -0.1233  -0.000147  3.985654  0.0
C  C229  1  0.22864964  0.00278228  0.45915480  1  -0.087265  -0.000134  -0.087519  -0.124209  -0.000146  3.984091  0.0
C  C230  1  0.77134794  0.54084622  0.99721905  1  -0.08757  -0.000134  -0.087543  -0.124307  -0.000146  3.984226  0.0
C  C231  1  0.80940663  0.95918578  0.50277280  1  0.011069  -0.000132  -0.086973  -0.122511  -0.000147  3.986565  0.0
C  C232  1  0.78983022  0.60144924  0.86048033  1  -0.051862  -0.000134  -0.088544  -0.124341  -0.000147  3.989477  0.0
C  C233  1  0.75176659  0.89852672  0.63953679  1  0.091552  -0.00013  -0.0885  -0.124991  -0.000146  3.988707  0.0
C  C234  1  0.24823280  0.36046323  0.10147295  1  0.091549  -0.00013  -0.088486  -0.12499  -0.000146  3.988953  0.0
C  C235  1  0.21016623  0.13952111  0.39855093  1  -0.051969  -0.000134  -0.088588  -0.124402  -0.000147  3.98955  0.0
C  C236  1  0.21016777  0.39855026  0.13952026  1  -0.051875  -0.000134  -0.088597  -0.125312  -0.000147  3.988902  0.0
C  C237  1  0.24823215  0.10147426  0.36046372  1  0.091543  -0.00013  -0.088461  -0.124911  -0.000146  3.988736  0.0
C  C238  1  0.75176608  0.63953726  0.89852733  1  0.09162  -0.00013  -0.088513  -0.125042  -0.000146  3.988698  0.0
C  C239  1  0.78983146  0.86047938  0.60144928  1  -0.051944  -0.000134  -0.088578  -0.124388  -0.000147  3.989533  0.0
C  C240  1  0.93341160  0.47605135  0.74774382  1  0.434382  -0.000682  0.05016  0.103543  -0.000781  3.949179  0.0
C  C241  1  0.65724898  0.02395493  0.75227165  1  0.453504  -0.000684  0.050119  0.102591  -0.000781  3.951624  0.0
C  C242  1  0.34275175  0.24772858  0.97604498  1  0.45347  -0.000684  0.05008  0.102616  -0.000781  3.951594  0.0
C  C243  1  0.06658592  0.25225614  0.52394949  1  0.434465  -0.000682  0.050151  0.103535  -0.000781  3.949142  0.0
C  C244  1  0.06658669  0.52394914  0.25225621  1  0.434449  -0.000682  0.050182  0.103638  -0.000781  3.949225  0.0
C  C245  1  0.34275050  0.97604556  0.24772887  1  0.453577  -0.000684  0.050093  0.102553  -0.000781  3.951533  0.0
C  C246  1  0.65724832  0.75227191  0.02395494  1  0.453491  -0.000684  0.050097  0.102603  -0.000781  3.951662  0.0
C  C247  1  0.93341312  0.74774385  0.47605098  1  0.434462  -0.000682  0.05019  0.103621  -0.000781  3.949194  0.0
N  N248  1  0.92293915  0.41452657  0.77328236  1  -1.217974  0.006046  -0.329034  -0.225276  0.004428  3.491158  0.007
N  N249  1  0.61078061  0.08546915  0.72671234  1  -1.220766  0.006  -0.328664  -0.224701  0.004401  3.493458  0.007
N  N250  1  0.38922089  0.27328741  0.91453019  1  -1.220729  0.005999  -0.328619  -0.224659  0.0044  3.493248  0.007
N  N251  1  0.07705786  0.22671878  0.58547382  1  -1.218073  0.006041  -0.328991  -0.225248  0.004425  3.491321  0.007
N  N252  1  0.07705870  0.58547343  0.22671762  1  -1.21806  0.006042  -0.329062  -0.225429  0.004425  3.491242  0.007
N  N253  1  0.38921902  0.91453084  0.27328838  1  -1.220795  0.006001  -0.328655  -0.224707  0.004402  3.493344  0.007
N  N254  1  0.61078008  0.72671208  0.08546953  1  -1.220744  0.006001  -0.328619  -0.224682  0.004402  3.493382  0.007
N  N255  1  0.92294162  0.77328171  0.41452671  1  -1.218073  0.006044  -0.328985  -0.225268  0.004427  3.491283  0.007
O  O256  1  0.59817556  0.08287503  0.85762322  1  -1.104742  0.099467  -0.315229  -0.527589  0.063572  2.368016  0.09
O  O257  1  0.03858501  0.41716127  0.64238502  1  -1.111878  0.099474  -0.314483  -0.526907  0.063577  2.366723  0.09
O  O258  1  0.96141195  0.35761409  0.58284334  1  -1.112109  0.099481  -0.314512  -0.52694  0.063582  2.366431  0.09
O  O259  1  0.40182603  0.14237682  0.91712266  1  -1.104686  0.099485  -0.315233  -0.527649  0.063583  2.368011  0.09
O  O260  1  0.40182407  0.91712496  0.14237750  1  -1.104678  0.09949  -0.315235  -0.527643  0.063586  2.367888  0.09
O  O261  1  0.96141179  0.58284220  0.35761401  1  -1.111792  0.099481  -0.314543  -0.527041  0.063582  2.366485  0.09
O  O262  1  0.03858797  0.64238492  0.41715903  1  -1.111816  0.099478  -0.314513  -0.526946  0.06358  2.366542  0.09
O  O263  1  0.59817375  0.85762267  0.08287615  1  -1.104654  0.09949  -0.315225  -0.52761  0.063586  2.367933  0.09
O  O264  1  0.55279798  0.15881269  0.90361082  1  -1.102693  0.081636  -0.30752  -0.514736  0.051917  2.283313  0.074
O  O265  1  0.11520326  0.34119700  0.59645160  1  -1.094036  0.081695  -0.307759  -0.514764  0.051914  2.28228  0.074
O  O266  1  0.88479003  0.40354968  0.65880495  1  -1.09392  0.081664  -0.307724  -0.51469  0.051894  2.282547  0.074
O  O267  1  0.44720254  0.09638945  0.84118533  1  -1.102679  0.081605  -0.307519  -0.514637  0.051896  2.283402  0.074
O  O268  1  0.44720180  0.84118680  0.09638967  1  -1.102609  0.081611  -0.307545  -0.514753  0.0519  2.2834  0.074
O  O269  1  0.88479206  0.65880349  0.40355015  1  -1.094284  0.081668  -0.307768  -0.514763  0.051897  2.28237  0.074
O  O270  1  0.11520648  0.59645081  0.34119519  1  -1.094212  0.081679  -0.307758  -0.514748  0.051904  2.282391  0.074
O  O271  1  0.55279768  0.90361054  0.15881353  1  -1.102659  0.081609  -0.307545  -0.514719  0.051899  2.283375  0.074
O  O272  1  0.90748672  0.29045792  0.77981872  1  -1.104059  0.104514  -0.317122  -0.522596  0.066401  2.38111  0.094
O  O273  1  0.47780618  0.20959792  0.72019094  1  -1.112784  0.104392  -0.317614  -0.524052  0.066344  2.380849  0.094
O  O274  1  0.52219743  0.27980914  0.79040077  1  -1.112679  0.104384  -0.317658  -0.524119  0.066341  2.380529  0.094
O  O275  1  0.09251201  0.22018305  0.70953999  1  -1.103684  0.10452  -0.31712  -0.522611  0.066404  2.381052  0.094
O  O276  1  0.09251157  0.70954058  0.22018227  1  -1.104086  0.104514  -0.317129  -0.522622  0.066401  2.381007  0.094
O  O277  1  0.52219583  0.79040207  0.27980992  1  -1.112778  0.104383  -0.317623  -0.524075  0.06634  2.380684  0.094
O  O278  1  0.47780413  0.72019035  0.20959835  1  -1.112782  0.104377  -0.317618  -0.524065  0.066336  2.380712  0.094
O  O279  1  0.90748807  0.77981744  0.29045909  1  -1.104065  0.104513  -0.317091  -0.522545  0.0664  2.381  0.094
O  O280  1  0.92914735  0.24691359  0.70631340  1  -1.108824  0.087243  -0.312443  -0.527584  0.055199  2.316407  0.079
O  O281  1  0.38231190  0.25305165  0.79371106  1  -1.113815  0.087413  -0.312735  -0.527624  0.05531  2.316683  0.079
O  O282  1  0.61769057  0.20628508  0.74694929  1  -1.11397  0.087403  -0.312769  -0.527639  0.055304  2.316528  0.079
O  O283  1  0.07085695  0.29368710  0.75308612  1  -1.10875  0.087204  -0.312415  -0.527518  0.055174  2.316623  0.079
O  O284  1  0.07085510  0.75308690  0.29368625  1  -1.108872  0.087225  -0.312447  -0.527614  0.055188  2.316516  0.079
O  O285  1  0.61768906  0.74694983  0.20628686  1  -1.113889  0.087409  -0.312763  -0.527661  0.055308  2.31664  0.079
O  O286  1  0.38231026  0.79371293  0.25305078  1  -1.113876  0.087413  -0.312727  -0.527614  0.05531  2.3166  0.079
O  O287  1  0.92914832  0.70631389  0.24691288  1  -1.108876  0.087234  -0.312458  -0.527639  0.055194  2.316487  0.079
