# generated using pymatgen
data_AgPH23C23N2O3
_symmetry_space_group_name_H-M   'P 1'
_cell_length_a   9.99361828
_cell_length_b   10.53703351
_cell_length_c   11.28133989
_cell_angle_alpha   87.29360852
_cell_angle_beta   77.83893917
_cell_angle_gamma   64.14242955
_symmetry_Int_Tables_number   1
_chemical_formula_structural   AgPH23C23N2O3
_chemical_formula_sum   'Ag2 P2 H46 C46 N4 O6'
_cell_volume   1043.68544831
_cell_formula_units_Z   2
loop_
 _symmetry_equiv_pos_site_id
 _symmetry_equiv_pos_as_xyz
  1  'x, y, z'
loop_
 _atom_site_type_symbol
 _atom_site_label
 _atom_site_symmetry_multiplicity
 _atom_site_fract_x
 _atom_site_fract_y
 _atom_site_fract_z
 _atom_site_occupancy
 _atom_site_hle17_bader_spin_density
 _atom_site_hle17_ddec_charge
 _atom_site_hle17_ddec_spin_density
 _atom_site_hle17_ddec_sum_bond_order
 _atom_site_hle17_magmom
 _atom_site_hse06_10hf_bader_spin_density
 _atom_site_hse06_10hf_ddec_charge
 _atom_site_hse06_10hf_ddec_spin_density
 _atom_site_hse06_10hf_ddec_sum_bond_order
 _atom_site_hse06_10hf_magmom
 _atom_site_hse06_bader_spin_density
 _atom_site_hse06_ddec_charge
 _atom_site_hse06_ddec_spin_density
 _atom_site_hse06_ddec_sum_bond_order
 _atom_site_hse06_magmom
 _atom_site_pbe_bader_spin_density
 _atom_site_pbe_cm5_charge
 _atom_site_pbe_ddec_charge
 _atom_site_pbe_ddec_spin_density
 _atom_site_pbe_ddec_sum_bond_order
 _atom_site_pbe_magmom
Ag  Ag0  1  0.28004753  0.07380602  0.13058833  1  0  0.389274  0  1.67957  0  0  0.274411  0  2.130907  0  0  0.292128  0  2.090054  0  0  0.460178  0.262934  0  2.158109  0
Ag  Ag1  1  0.71995088  0.92619798  0.86941111  1  0  0.389252  0  1.679574  0  0  0.274387  0  2.130893  0  0  0.292106  0  2.090045  0  0  0.460157  0.26291  0  2.158094  0
P  P2  1  0.17219097  0.25909653  0.28120370  1  0  0.302029  0  3.785335  0  0  0.265194  0  4.230903  0  0  0.273316  0  4.230184  0  0  -0.013298  0.258886  0  4.231468  0
P  P3  1  0.82780791  0.74090644  0.71879837  1  0  0.301966  0  3.785337  0  0  0.265209  0  4.230883  0  0  0.273329  0  4.230165  0  0  -0.013284  0.2589  0  4.231448  0
H  H4  1  0.22821592  0.00048431  0.87148453  1  0  0.102121  0  0.947462  0  0  0.110284  0  1.008852  0  0  0.112791  0  1.007593  0  0  0.125364  0.108583  0  1.009575  0
H  H5  1  0.77178759  0.99951755  0.12851231  1  0  0.102119  0  0.947464  0  0  0.110304  0  1.008836  0  0  0.112812  0  1.007575  0  0  0.125386  0.108611  0  1.009548  0
H  H6  1  0.03313348  0.96561478  0.78235716  1  0  0.086913  0  0.933387  0  0  0.096204  0  0.995651  0  0  0.098524  0  0.994831  0  0  0.122713  0.094489  0  0.996313  0
H  H7  1  0.96686801  0.03438921  0.21764083  1  0  0.086925  0  0.93338  0  0  0.096167  0  0.995712  0  0  0.098486  0  0.994893  0  0  0.122693  0.094454  0  0.996378  0
H  H8  1  0.27923993  0.92058372  0.32942010  1  0  0.115859  0  0.973981  0  0  0.133966  0  1.044006  0  0  0.136063  0  1.042155  0  0  0.086277  0.132368  0  1.045456  0
H  H9  1  0.72075643  0.07942028  0.67057972  1  0  0.115849  0  0.974027  0  0  0.133934  0  1.044067  0  0  0.136029  0  1.042219  0  0  0.086272  0.132336  0  1.045515  0
H  H10  1  0.08505220  0.04077396  0.38131376  1  0  0.097609  0  0.981305  0  0  0.117669  0  1.047558  0  0  0.118725  0  1.04766  0  0  0.082958  0.116748  0  1.04759  0
H  H11  1  0.91494366  0.95923110  0.61868698  1  0  0.097535  0  0.981206  0  0  0.117605  0  1.047473  0  0  0.118674  0  1.047565  0  0  0.082928  0.116681  0  1.04751  0
H  H12  1  0.17802572  0.90231214  0.47310165  1  0  0.10947  0  0.977759  0  0  0.130654  0  1.038051  0  0  0.131721  0  1.039122  0  0  0.086827  0.130379  0  1.036515  0
H  H13  1  0.82196910  0.09769080  0.52689761  1  0  0.109458  0  0.97777  0  0  0.130637  0  1.038066  0  0  0.131702  0  1.03914  0  0  0.086837  0.130363  0  1.036526  0
H  H14  1  0.30621480  0.92699098  0.61036130  1  0  0.081893  0  0.963331  0  0  0.094213  0  1.024815  0  0  0.096446  0  1.025104  0  0  0.094221  0.092169  0  1.02555  0
H  H15  1  0.69378448  0.07300460  0.38964017  1  0  0.081898  0  0.963387  0  0  0.094222  0  1.024856  0  0  0.096456  0  1.025144  0  0  0.094211  0.092162  0  1.025605  0
H  H16  1  0.39595864  0.06744873  0.71476559  1  0  0.089524  0  0.979243  0  0  0.098076  0  1.045528  0  0  0.100534  0  1.044238  0  0  0.097615  0.096161  0  1.046605  0
H  H17  1  0.60404526  0.93254575  0.28523243  1  0  0.089527  0  0.979227  0  0  0.098083  0  1.045507  0  0  0.100542  0  1.044217  0  0  0.097628  0.096167  0  1.046587  0
H  H18  1  0.38082209  0.29746068  0.63333811  1  0  0.093423  0  0.950272  0  0  0.104714  0  1.008335  0  0  0.106956  0  1.008723  0  0  0.099864  0.102819  0  1.008698  0
H  H19  1  0.61918537  0.70253491  0.36666364  1  0  0.093426  0  0.950284  0  0  0.104716  0  1.008346  0  0  0.106956  0  1.008734  0  0  0.099855  0.102827  0  1.008693  0
H  H20  1  0.27899728  0.38105248  0.44766537  1  0  0.082595  0  0.988106  0  0  0.090585  0  1.056676  0  0  0.09233  0  1.057681  0  0  0.094477  0.089852  0  1.055009  0
H  H21  1  0.72100462  0.61894839  0.55233713  1  0  0.082635  0  0.988144  0  0  0.090622  0  1.056709  0  0  0.092367  0  1.057713  0  0  0.094494  0.089889  0  1.055042  0
H  H22  1  0.57365278  0.28836393  0.09884552  1  0  0.112066  0  0.947548  0  0  0.13274  0  1.009054  0  0  0.134229  0  1.009363  0  0  0.091216  0.131765  0  1.008443  0
H  H23  1  0.42634408  0.71163688  0.90115170  1  0  0.112052  0  0.947558  0  0  0.132705  0  1.009086  0  0  0.134194  0  1.009394  0  0  0.091193  0.13173  0  1.008474  0
H  H24  1  0.46236002  0.19206516  0.12835871  1  0  0.096345  0  1.004714  0  0  0.109255  0  1.088666  0  0  0.11173  0  1.086278  0  0  0.07826  0.107335  0  1.09012  0
H  H25  1  0.53763836  0.80793672  0.87163995  1  0  0.096347  0  1.004698  0  0  0.109259  0  1.088649  0  0  0.11173  0  1.086265  0  0  0.078255  0.107338  0  1.090105  0
H  H26  1  0.52421185  0.23715016  0.24814561  1  0  0.103344  0  0.950842  0  0  0.127545  0  1.012692  0  0  0.128124  0  1.01393  0  0  0.088824  0.126971  0  1.011936  0
H  H27  1  0.47579008  0.76284855  0.75185256  1  0  0.103315  0  0.950863  0  0  0.127514  0  1.012715  0  0  0.128095  0  1.013951  0  0  0.088814  0.12694  0  1.01196  0
H  H28  1  0.45901425  0.53802350  0.11570904  1  0  0.093878  0  0.964825  0  0  0.103745  0  1.029776  0  0  0.106886  0  1.028112  0  0  0.09961  0.101313  0  1.031455  0
H  H29  1  0.54098155  0.46197734  0.88429192  1  0  0.09386  0  0.964946  0  0  0.103722  0  1.029881  0  0  0.106866  0  1.028214  0  0  0.099608  0.101291  0  1.031559  0
H  H30  1  0.23594223  0.76576034  0.16146989  1  0  0.089829  0  0.985494  0  0  0.098331  0  1.051863  0  0  0.100917  0  1.050456  0  0  0.09568  0.09619  0  1.053322  0
H  H31  1  0.76405764  0.23423839  0.83852955  1  0  0.089815  0  0.985504  0  0  0.098325  0  1.051867  0  0  0.100909  0  1.05046  0  0  0.095669  0.096183  0  1.053327  0
H  H32  1  0.98027051  0.77587201  0.26391676  1  0  0.075403  0  0.982751  0  0  0.084196  0  1.050293  0  0  0.086037  0  1.051363  0  0  0.091969  0.083208  0  1.049058  0
H  H33  1  0.01973090  0.22412777  0.73608322  1  0  0.075433  0  0.982747  0  0  0.084221  0  1.050295  0  0  0.086061  0  1.051366  0  0  0.091979  0.083231  0  1.049062  0
H  H34  1  0.95944468  0.55570611  0.31661979  1  0  0.087705  0  0.982084  0  0  0.099192  0  1.043282  0  0  0.100819  0  1.044403  0  0  0.09815  0.098022  0  1.042519  0
H  H35  1  0.04055724  0.44429475  0.68338182  1  0  0.087646  0  0.982121  0  0  0.099139  0  1.043305  0  0  0.100764  0  1.044429  0  0  0.098132  0.097971  0  1.042541  0
H  H36  1  0.87854522  0.37831483  0.03675532  1  0  0.116134  0  0.943402  0  0  0.137807  0  1.001794  0  0  0.138904  0  1.002994  0  0  0.089932  0.136929  0  1.001031  0
H  H37  1  0.12145617  0.62168498  0.96324645  1  0  0.116156  0  0.943481  0  0  0.137821  0  1.001886  0  0  0.138919  0  1.003085  0  0  0.089948  0.136944  0  1.001125  0
H  H38  1  0.06557596  0.30349183  0.06769709  1  0  0.091386  0  1.010805  0  0  0.101579  0  1.097916  0  0  0.104533  0  1.094616  0  0  0.074929  0.099492  0  1.100055  0
H  H39  1  0.93442700  0.69650901  0.93230256  1  0  0.091404  0  1.010801  0  0  0.101592  0  1.097914  0  0  0.104544  0  1.094613  0  0  0.074935  0.099506  0  1.100052  0
H  H40  1  0.94795402  0.48643398  0.09235781  1  0  0.129787  0  0.946615  0  0  0.155634  0  0.999433  0  0  0.156438  0  1.000343  0  0  0.099227  0.155157  0  0.998582  0
H  H41  1  0.05204688  0.51356687  0.90764310  1  0  0.129826  0  0.94659  0  0  0.155673  0  0.999408  0  0  0.156478  0  1.000317  0  0  0.099242  0.155197  0  0.998555  0
H  H42  1  0.65753570  0.44060744  0.19019876  1  0  0.092309  0  0.975432  0  0  0.103022  0  1.039622  0  0  0.105868  0  1.038124  0  0  0.099575  0.100662  0  1.040992  0
H  H43  1  0.34246671  0.55938807  0.80979682  1  0  0.092311  0  0.975484  0  0  0.103035  0  1.039659  0  0  0.10588  0  1.038164  0  0  0.09961  0.100677  0  1.041031  0
H  H44  1  0.53073329  0.42704675  0.40121892  1  0  0.083647  0  0.969465  0  0  0.095002  0  1.032043  0  0  0.097129  0  1.031813  0  0  0.098233  0.093464  0  1.032592  0
H  H45  1  0.46926654  0.57294772  0.59877807  1  0  0.083663  0  0.969436  0  0  0.094996  0  1.03204  0  0  0.097126  0  1.031802  0  0  0.098254  0.093459  0  1.032587  0
H  H46  1  0.68274916  0.35368191  0.56420232  1  0  0.089716  0  0.955385  0  0  0.101923  0  1.013799  0  0  0.104116  0  1.013967  0  0  0.101  0.100558  0  1.013178  0
H  H47  1  0.31724713  0.64631787  0.43579771  1  0  0.089742  0  0.955388  0  0  0.101928  0  1.01382  0  0  0.104121  0  1.013988  0  0  0.100986  0.100565  0  1.013198  0
H  H48  1  0.95782159  0.28686760  0.51106811  1  0  0.085364  0  0.990949  0  0  0.095435  0  1.054617  0  0  0.097043  0  1.056041  0  0  0.095539  0.094181  0  1.053733  0
H  H49  1  0.04217622  0.71313327  0.48893514  1  0  0.085383  0  0.990951  0  0  0.095455  0  1.054609  0  0  0.097068  0  1.056028  0  0  0.095551  0.094208  0  1.053717  0
C  C50  1  0.12648824  0.99881282  0.92865434  1  0  0.079505  0  3.648917  0  0  0.054247  0  3.89479  0  0  0.055973  0  3.912789  0  0  0.061556  0.053332  0  3.88183  0
C  C51  1  0.87351582  0.00119222  0.07134313  1  0  0.079561  0  3.648921  0  0  0.054275  0  3.894789  0  0  0.056001  0  3.912789  0  0  0.061572  0.053352  0  3.881827  0
C  C52  1  0.01810055  0.98120424  0.88008342  1  0  0.073841  0  3.68041  0  0  0.048589  0  3.932194  0  0  0.04989  0  3.95107  0  0  0.060792  0.047636  0  3.918846  0
C  C53  1  0.98189997  0.01880398  0.11991543  1  0  0.073826  0  3.680377  0  0  0.048602  0  3.932189  0  0  0.0499  0  3.95107  0  0  0.060803  0.047643  0  3.91885  0
C  C54  1  0.23655412  0.20095646  0.42281314  1  0  -0.156543  0  3.715344  0  0  -0.123561  0  3.949917  0  0  -0.130146  0  3.975497  0  0  -0.028163  -0.118642  0  3.932085  0
C  C55  1  0.76344526  0.79904545  0.57718800  1  0  -0.156518  0  3.715325  0  0  -0.123533  0  3.949907  0  0  -0.130117  0  3.975486  0  0  -0.02816  -0.118615  0  3.932077  0
C  C56  1  0.24279379  0.07168564  0.46939953  1  0  0.138542  0  3.736385  0  0  0.162918  0  3.965066  0  0  0.164588  0  3.989925  0  0  -0.003547  0.161477  0  3.94832  0
C  C57  1  0.75720251  0.92831628  0.53060306  1  0  0.138427  0  3.736542  0  0  0.162776  0  3.965281  0  0  0.164445  0  3.990141  0  0  -0.003598  0.161337  0  3.94853  0
C  C58  1  0.19296921  0.97979027  0.41018180  1  0  -0.354577  0  3.735433  0  0  -0.434809  0  3.968507  0  0  -0.437195  0  3.977218  0  0  -0.25062  -0.433312  0  3.962448  0
C  C59  1  0.80702663  0.02021268  0.58981817  1  0  -0.354452  0  3.735431  0  0  -0.434646  0  3.968497  0  0  -0.437041  0  3.977202  0  0  -0.250577  -0.433145  0  3.962439  0
C  C60  1  0.29992146  0.02736586  0.57495825  1  0  -0.140721  0  3.755492  0  0  -0.155904  0  3.997099  0  0  -0.160726  0  4.020005  0  0  -0.097248  -0.152829  0  3.982203  0
C  C61  1  0.70007579  0.97263184  0.42504437  1  0  -0.140637  0  3.75551  0  0  -0.155814  0  3.997106  0  0  -0.160636  0  4.020014  0  0  -0.097165  -0.152725  0  3.982216  0
C  C62  1  0.35104284  0.10590491  0.63343414  1  0  -0.051122  0  3.765155  0  0  -0.066917  0  4.01681  0  0  -0.066675  0  4.037852  0  0  -0.090994  -0.06749  0  4.003316  0
C  C63  1  0.64896003  0.89408959  0.36656496  1  0  -0.051179  0  3.765256  0  0  -0.066976  0  4.016912  0  0  -0.066734  0  4.037953  0  0  -0.091049  -0.067548  0  4.003414  0
C  C64  1  0.34387969  0.23355207  0.58737412  1  0  -0.069303  0  3.750523  0  0  -0.082702  0  4.00053  0  0  -0.085947  0  4.02194  0  0  -0.093615  -0.080686  0  3.986937  0
C  C65  1  0.65612421  0.76644456  0.41262646  1  0  -0.069283  0  3.750655  0  0  -0.082676  0  4.000648  0  0  -0.08592  0  4.022056  0  0  -0.093608  -0.080659  0  3.98706  0
C  C66  1  0.28669155  0.28045234  0.48276566  1  0  -0.071253  0  3.76181  0  0  -0.091437  0  4.010737  0  0  -0.091541  0  4.032426  0  0  -0.08874  -0.091199  0  3.995123  0
C  C67  1  0.71330882  0.71954746  0.51723629  1  0  -0.071299  0  3.761856  0  0  -0.091486  0  4.010785  0  0  -0.09159  0  4.032474  0  0  -0.088765  -0.091247  0  3.995173  0
C  C68  1  0.19741616  0.41927245  0.24694873  1  0  -0.144565  0  3.691017  0  0  -0.109049  0  3.919807  0  0  -0.11585  0  3.945454  0  0  -0.02301  -0.104832  0  3.90314  0
C  C69  1  0.80258169  0.58073052  0.75305352  1  0  -0.14463  0  3.690945  0  0  -0.109164  0  3.919866  0  0  -0.115967  0  3.945514  0  0  -0.023064  -0.104948  0  3.903197  0
C  C70  1  0.34112036  0.41272436  0.19004811  1  0  0.143303  0  3.719708  0  0  0.165641  0  3.950666  0  0  0.167593  0  3.976088  0  0  -0.001288  0.16386  0  3.933792  0
C  C71  1  0.65887845  0.58727440  0.80995418  1  0  0.143324  0  3.719677  0  0  0.165596  0  3.950745  0  0  0.167548  0  3.976167  0  0  -0.00134  0.163813  0  3.933868  0
C  C72  1  0.48265966  0.27587768  0.16433396  1  0  -0.340275  0  3.733171  0  0  -0.423966  0  3.973799  0  0  -0.427152  0  3.98419  0  0  -0.24733  -0.421058  0  3.965839  0
C  C73  1  0.51734073  0.72412209  0.83566533  1  0  -0.34025  0  3.733128  0  0  -0.423897  0  3.973778  0  0  -0.427084  0  3.984172  0  0  -0.247285  -0.420988  0  3.965818  0
C  C74  1  0.34993854  0.53994490  0.16014630  1  0  -0.13319  0  3.724402  0  0  -0.151913  0  3.969096  0  0  -0.15684  0  3.9908  0  0  -0.093631  -0.148423  0  3.954677  0
C  C75  1  0.65005874  0.46005491  0.83985710  1  0  -0.133076  0  3.724523  0  0  -0.151753  0  3.969204  0  0  -0.156681  0  3.990904  0  0  -0.093564  -0.148265  0  3.954782  0
C  C76  1  0.22249748  0.67015406  0.18570672  1  0  -0.061143  0  3.783819  0  0  -0.075564  0  4.032769  0  0  -0.074865  0  4.052842  0  0  -0.093994  -0.075779  0  4.018856  0
C  C77  1  0.77750185  0.32984576  0.81429630  1  0  -0.06116  0  3.783766  0  0  -0.075592  0  4.032705  0  0  -0.074891  0  4.052779  0  0  -0.093993  -0.075807  0  4.018788  0
C  C78  1  0.08173106  0.67562717  0.24243989  1  0  -0.085033  0  3.790401  0  0  -0.096305  0  4.038916  0  0  -0.099981  0  4.060467  0  0  -0.098933  -0.093844  0  4.023589  0
C  C79  1  0.91826830  0.32437262  0.75756047  1  0  -0.085103  0  3.790424  0  0  -0.096376  0  4.038936  0  0  -0.100053  0  4.06049  0  0  -0.098953  -0.093915  0  4.023604  0
C  C80  1  0.06978211  0.55067299  0.27254460  1  0  -0.058039  0  3.745954  0  0  -0.077881  0  3.986547  0  0  -0.07731  0  4.007455  0  0  -0.084234  -0.077807  0  3.97232  0
C  C81  1  0.93021675  0.44932786  0.72745580  1  0  -0.05793  0  3.74592  0  0  -0.077741  0  3.986518  0  0  -0.077168  0  4.007427  0  0  -0.084174  -0.077671  0  3.972289  0
C  C82  1  0.96582318  0.32096730  0.31977274  1  0  -0.163466  0  3.725892  0  0  -0.129485  0  3.960694  0  0  -0.135765  0  3.985709  0  0  -0.027796  -0.125293  0  3.944072  0
C  C83  1  0.03417726  0.67903672  0.68022810  1  0  -0.163271  0  3.72568  0  0  -0.129407  0  3.960572  0  0  -0.135686  0  3.985589  0  0  -0.027776  -0.125214  0  3.943951  0
C  C84  1  0.88031540  0.36558125  0.22751217  1  0  0.139646  0  3.730962  0  0  0.159671  0  3.966896  0  0  0.161552  0  3.991758  0  0  -0.00243  0.158189  0  3.950077  0
C  C85  1  0.11968701  0.63441640  0.77248597  1  0  0.139528  0  3.730986  0  0  0.159664  0  3.966825  0  0  0.161545  0  3.991686  0  0  -0.002403  0.158183  0  3.950004  0
C  C86  1  0.94728263  0.38237347  0.09929767  1  0  -0.347533  0  3.720389  0  0  -0.42831  0  3.957786  0  0  -0.431412  0  3.967021  0  0  -0.248816  -0.425886  0  3.951114  0
C  C87  1  0.05271979  0.61762633  0.90070303  1  0  -0.347555  0  3.720403  0  0  -0.428348  0  3.957779  0  0  -0.431449  0  3.967016  0  0  -0.248837  -0.425925  0  3.951106  0
C  C88  1  0.72401684  0.40327826  0.26031239  1  0  -0.130355  0  3.738272  0  0  -0.149996  0  3.984246  0  0  -0.154232  0  4.006179  0  0  -0.094824  -0.146959  0  3.970216  0
C  C89  1  0.27598501  0.59671409  0.73968434  1  0  -0.130407  0  3.738517  0  0  -0.15009  0  3.984468  0  0  -0.154326  0  4.006401  0  0  -0.094938  -0.147057  0  3.97044  0
C  C90  1  0.65240141  0.39789053  0.37935227  1  0  -0.068476  0  3.790546  0  0  -0.082407  0  4.040637  0  0  -0.082351  0  4.061216  0  0  -0.094532  -0.083404  0  4.028082  0
C  C91  1  0.34759995  0.60210501  0.62064617  1  0  -0.068416  0  3.790616  0  0  -0.082328  0  4.040698  0  0  -0.082271  0  4.061277  0  0  -0.094519  -0.083324  0  4.028143  0
C  C92  1  0.73673821  0.35671143  0.47010895  1  0  -0.091121  0  3.799901  0  0  -0.104204  0  4.051775  0  0  -0.107213  0  4.072371  0  0  -0.09974  -0.101182  0  4.036309  0
C  C93  1  0.26326014  0.64328834  0.52989071  1  0  -0.091166  0  3.799947  0  0  -0.10423  0  4.0518  0  0  -0.107239  0  4.072396  0  0  -0.099718  -0.101211  0  4.036338  0
C  C94  1  0.89244149  0.31874449  0.43996238  1  0  -0.077059  0  3.778857  0  0  -0.096695  0  4.023847  0  0  -0.096791  0  4.045125  0  0  -0.092727  -0.09641  0  4.008264  0
C  C95  1  0.10755892  0.68125740  0.56003768  1  0  -0.077153  0  3.778862  0  0  -0.09676  0  4.023881  0  0  -0.096861  0  4.045159  0  0  -0.092769  -0.096481  0  4.008296  0
N  N96  1  0.42181632  0.19472716  0.89685248  1  0  0.678741  0  4.137524  0  0  0.710546  0  4.42843  0  0  0.736652  0  4.435582  0  0  0.089109  0.691721  0  4.423385  0
N  N97  1  0.57818152  0.80527367  0.10314722  1  0  0.678696  0  4.137311  0  0  0.710496  0  4.428237  0  0  0.736613  0  4.435386  0  0  0.089068  0.6917  0  4.42316  0
N  N98  1  0.10872889  0.01714977  0.04888697  1  0  -0.22459  0  3.203492  0  0  -0.161938  0  3.475818  0  0  -0.17178  0  3.489707  0  0  -0.304199  -0.154911  0  3.465894  0
N  N99  1  0.89127464  0.98285423  0.95111154  1  0  -0.22463  0  3.203549  0  0  -0.161972  0  3.475892  0  0  -0.171814  0  3.489779  0  0  -0.304168  -0.154945  0  3.465968  0
O  O100  1  0.39921434  0.08344946  0.91660762  1  0  -0.503076  0  1.857429  0  0  -0.476426  0  2.110725  0  0  -0.49195  0  2.09814  0  0  -0.221693  -0.465042  0  2.118953  0
O  O101  1  0.60078604  0.91655032  0.08339255  1  0  -0.503077  0  1.857409  0  0  -0.476436  0  2.110706  0  0  -0.491979  0  2.098153  0  0  -0.221692  -0.46506  0  2.118927  0
O  O102  1  0.55947227  0.17727224  0.86126188  1  0  -0.467237  0  1.819976  0  0  -0.43937  0  2.055933  0  0  -0.456802  0  2.048064  0  0  -0.205008  -0.427147  0  2.061396  0
O  O103  1  0.44052612  0.82272964  0.13873679  1  0  -0.467208  0  1.819883  0  0  -0.439315  0  2.055809  0  0  -0.456751  0  2.047943  0  0  -0.204974  -0.427105  0  2.061266  0
O  O104  1  0.31413250  0.31499465  0.91170873  1  0  -0.412517  0  1.745601  0  0  -0.404145  0  1.952544  0  0  -0.416018  0  1.949047  0  0  -0.163696  -0.39471  0  1.954402  0
O  O105  1  0.68586534  0.68500619  0.08829185  1  0  -0.412512  0  1.745521  0  0  -0.404144  0  1.952475  0  0  -0.416021  0  1.948977  0  0  -0.163695  -0.394719  0  1.954321  0
