# generated using pymatgen
data_ZnH13C21NO4
_symmetry_space_group_name_H-M   'P 1'
_cell_length_a   14.77732756
_cell_length_b   16.12615895
_cell_length_c   17.19324348
_cell_angle_alpha   90.88603947
_cell_angle_beta   95.53657218
_cell_angle_gamma   89.11196733
_symmetry_Int_Tables_number   1
_chemical_formula_structural   ZnH13C21NO4
_chemical_formula_sum   'Zn2 H26 C42 N2 O8'
_cell_volume   4077.17073729
_cell_formula_units_Z   2
loop_
 _symmetry_equiv_pos_site_id
 _symmetry_equiv_pos_as_xyz
  1  'x, y, z'
loop_
 _atom_site_type_symbol
 _atom_site_label
 _atom_site_symmetry_multiplicity
 _atom_site_fract_x
 _atom_site_fract_y
 _atom_site_fract_z
 _atom_site_occupancy
 _atom_site_pbe_bader_charge
 _atom_site_pbe_bader_spin_density
 _atom_site_pbe_cm5_charge
 _atom_site_pbe_ddec_charge
 _atom_site_pbe_ddec_spin_density
 _atom_site_pbe_ddec_sum_bond_order
 _atom_site_pbe_magmom
Zn  Zn0  1  0.40599169  0.50626717  0.49921567  1  1.311022  0  0.677756  0.890439  0  2.433632  0
Zn  Zn1  1  0.59562024  0.50259275  0.50519267  1  1.314498  0  0.67676  0.890374  0  2.416355  0
H  H2  1  0.61619247  0.41299339  0.27289884  1  0.096774  0  0.101652  0.106406  0  1.003169  0
H  H3  1  0.37802992  0.47122601  0.73732601  1  0.098703  0  0.101128  0.10582  0  1.006571  0
H  H4  1  0.06185683  0.36344001  0.52518644  1  0.105628  0  0.120503  0.112836  0  0.967873  0
H  H5  1  0.93936884  0.64393840  0.47464077  1  0.101153  0  0.120933  0.113085  0  0.96868  0
H  H6  1  0.06409812  0.59854577  0.60344653  1  0.107626  0  0.120353  0.112528  0  0.96769  0
H  H7  1  0.93716238  0.40885211  0.39643765  1  0.096899  0  0.119787  0.1118  0  0.968528  0
H  H8  1  0.66885951  0.45565625  0.75286281  1  0.073179  0  0.102143  0.105915  0  1.00075  0
H  H9  1  0.33166465  0.47309249  0.24832923  1  0.066653  0  0.101875  0.106562  0  1.002768  0
H  H10  1  0.60119721  0.40073393  0.00776476  1  0.056605  0  0.09696  0.09261  0  1.012156  0
H  H11  1  0.39197428  0.40313708  0.99383383  1  0.036944  0  0.096874  0.091808  0  1.015261  0
H  H12  1  0.32357840  0.43516659  0.10633104  1  0.047461  0  0.09556  0.091909  0  1.006721  0
H  H13  1  0.67243722  0.41223387  0.89201934  1  0.045387  0  0.095792  0.093222  0  1.005612  0
H  H14  1  0.37948931  0.42910063  0.87541884  1  0.029697  0  0.096871  0.094454  0  1.014078  0
H  H15  1  0.60973596  0.37312417  0.13221319  1  0.042945  0  0.096627  0.094211  0  1.010057  0
H  H16  1  0.58160753  0.05308247  0.62300162  1  0.062602  0  0.099634  0.092126  0  0.989327  0
H  H17  1  0.41914551  0.95541296  0.37711798  1  0.062857  0  0.099187  0.091637  0  0.989508  0
H  H18  1  0.42409861  0.95285022  0.61005432  1  0.073582  0  0.099919  0.092509  0  0.989583  0
H  H19  1  0.57643559  0.05577801  0.39014974  1  0.069212  0  0.099852  0.092801  0  0.988915  0
H  H20  1  0.95744226  0.45737525  0.62626445  1  0.107803  0  0.119954  0.111882  0  0.968712  0
H  H21  1  0.04376832  0.54999139  0.37363128  1  0.114468  0  0.120897  0.112961  0  0.967727  0
H  H22  1  0.73228056  0.99439281  0.51528416  1  0.039778  0  0.089915  0.12224  0  1.000368  0
H  H23  1  0.69837608  0.90402842  0.56283915  1  0.042639  0  0.091996  0.127272  0  0.99777  0
H  H24  1  0.69606071  0.90479560  0.45926268  1  0.034071  0  0.091631  0.126593  0  0.997382  0
H  H25  1  0.26759899  0.01715742  0.48472876  1  0.025504  0  0.088813  0.121036  0  1.002165  0
H  H26  1  0.30647752  0.10587710  0.54091426  1  0.058313  0  0.091563  0.126871  0  0.996476  0
H  H27  1  0.30426233  0.10670178  0.43746881  1  0.049286  0  0.092801  0.128197  0  0.993832  0
C  C28  1  0.50158630  0.34212347  0.50669609  1  1.612635  0  0.212053  0.667683  0  4.247755  0
C  C29  1  0.49935067  0.66565504  0.49684043  1  1.606182  0  0.213967  0.672781  0  4.239392  0
C  C30  1  0.45815645  0.97642603  0.56127560  1  -0.06153  0  -0.072722  -0.114845  0  3.631694  0
C  C31  1  0.54247407  0.03198691  0.43890822  1  -0.0405  0  -0.073643  -0.117106  0  3.634349  0
C  C32  1  0.54531410  0.03048058  0.56844666  1  -0.038735  0  -0.073424  -0.115885  0  3.634231  0
C  C33  1  0.45538099  0.97786823  0.43175338  1  -0.034317  0  -0.072208  -0.114131  0  3.629711  0
C  C34  1  0.50126088  0.25260536  0.50593706  1  0.132542  0  -0.06071  -0.203615  0  4.011857  0
C  C35  1  0.50023830  0.75534028  0.49578642  1  0.116911  0  -0.060842  -0.205214  0  4.001158  0
C  C36  1  0.41255729  0.03317884  0.49488300  1  0.042555  0  0.00249  0.144878  0  3.657861  0
C  C37  1  0.58820381  0.97535721  0.50528115  1  0.045909  0  0.002696  0.144526  0  3.659694  0
C  C38  1  0.50073445  0.08936251  0.50223900  1  0.17008  0  0.003971  0.092112  0  3.807248  0
C  C39  1  0.50010312  0.91884599  0.49804619  1  0.076994  0  0.003893  0.089492  0  3.797079  0
C  C40  1  0.50146982  0.17700142  0.50429921  1  -0.487017  0  -0.043816  -0.060746  0  4.121161  0
C  C41  1  0.49960509  0.83102833  0.49629931  1  -0.352842  0  -0.04224  -0.057105  0  4.113164  0
C  C42  1  0.03371809  0.42560515  0.51398920  1  -0.004219  0  -0.052382  -0.062478  0  3.602846  0
C  C43  1  0.96753143  0.58180520  0.48589595  1  -0.017261  0  -0.053128  -0.063165  0  3.606501  0
C  C44  1  0.97770364  0.47796197  0.57034561  1  -0.024379  0  -0.053015  -0.06301  0  3.604571  0
C  C45  1  0.02352838  0.52945687  0.42957953  1  -0.016517  0  -0.052888  -0.062538  0  3.603253  0
C  C46  1  0.96621462  0.45092887  0.44230850  1  -0.0077  0  -0.052717  -0.063775  0  3.60307  0
C  C47  1  0.03492960  0.55650223  0.55761334  1  -0.018233  0  -0.053032  -0.06346  0  3.602804  0
C  C48  1  0.90812512  0.50331233  0.49864813  1  0.154356  0  0.0226  0.053428  0  3.776839  0
C  C49  1  0.09308284  0.50415650  0.50130691  1  0.078706  0  0.02296  0.054652  0  3.774013  0
C  C50  1  0.48195322  0.47850706  0.35158019  1  1.567264  0  0.212043  0.595149  0  4.175063  0
C  C51  1  0.51974776  0.49449475  0.65379572  1  1.556683  0  0.20975  0.589034  0  4.177469  0
C  C52  1  0.81232657  0.50300289  0.49852962  1  0.774764  0  0.235509  0.275759  0  3.927565  0
C  C53  1  0.18896300  0.50520686  0.50232496  1  0.875269  0  0.234158  0.273221  0  3.929082  0
C  C54  1  0.47520700  0.44855946  0.26835535  1  -0.068314  0  -0.018001  -0.02777  0  3.952968  0
C  C55  1  0.52325459  0.46753602  0.73706015  1  -0.057769  0  -0.017635  -0.024323  0  3.946972  0
C  C56  1  0.55264562  0.41793558  0.23534244  1  -0.083372  0  -0.086891  -0.091464  0  3.997181  0
C  C57  1  0.44206503  0.45807318  0.77213652  1  -0.014048  0  -0.087051  -0.091636  0  4.000517  0
C  C58  1  0.54852026  0.39601645  0.15671001  1  -0.021511  0  -0.094407  -0.136577  0  3.98184  0
C  C59  1  0.44354531  0.43388506  0.84926140  1  -0.027273  0  -0.095043  -0.136055  0  3.980308  0
C  C60  1  0.46673270  0.40530956  0.10777652  1  -0.059634  0  -0.012046  0.112246  0  4.051859  0
C  C61  1  0.52658000  0.41819137  0.89481766  1  0.031095  0  -0.013193  0.111252  0  4.047246  0
C  C62  1  0.38796574  0.42986200  0.14299321  1  0.005159  0  -0.095734  -0.141586  0  3.989032  0
C  C63  1  0.60749955  0.42510568  0.85809396  1  -0.103643  0  -0.095777  -0.144494  0  3.985731  0
C  C64  1  0.39202944  0.45154326  0.22184877  1  0.001695  0  -0.086868  -0.090683  0  3.998197  0
C  C65  1  0.60608056  0.44959681  0.78067137  1  0.005399  0  -0.086325  -0.08936  0  3.99285  0
C  C66  1  0.46118126  0.40006909  0.02281022  1  0.041196  0  -0.092768  -0.130578  0  4.001329  0
C  C67  1  0.53207106  0.40286758  0.97848641  1  -0.131469  0  -0.092536  -0.131391  0  3.999108  0
C  C68  1  0.68384222  0.94292861  0.51096317  1  -0.073585  0  -0.237731  -0.414677  0  4.015194  0
C  C69  1  0.31758167  0.06734045  0.48918273  1  -0.087417  0  -0.237473  -0.414811  0  4.010879  0
N  N70  1  0.73388875  0.50271326  0.49966675  1  -1.105044  0  -0.269757  -0.277129  0  3.121488  0
N  N71  1  0.26754436  0.50661334  0.50277556  1  -1.12984  0  -0.269255  -0.275872  0  3.125672  0
O  O72  1  0.42410532  0.37840007  0.49777511  1  -1.147854  0  -0.321196  -0.554715  0  2.254783  0
O  O73  1  0.57599002  0.62829601  0.49580223  1  -1.14541  0  -0.321313  -0.556673  0  2.256089  0
O  O74  1  0.57925945  0.37607144  0.51596588  1  -1.134896  0  -0.321151  -0.551946  0  2.254342  0
O  O75  1  0.42199549  0.63236045  0.49903216  1  -1.133255  0  -0.31928  -0.549659  0  2.255904  0
O  O76  1  0.40804046  0.49850882  0.38022052  1  -1.158409  0  -0.324879  -0.556744  0  2.302789  0
O  O77  1  0.59477228  0.50678454  0.62514633  1  -1.153397  0  -0.324108  -0.553698  0  2.288488  0
O  O78  1  0.56152568  0.48199206  0.38744577  1  -1.157548  0  -0.322767  -0.563428  0  2.322289  0
O  O79  1  0.44069245  0.50185168  0.61727127  1  -1.169742  0  -0.323873  -0.563976  0  2.336165  0
