# generated using pymatgen
data_AgP2H24C26NO3
_symmetry_space_group_name_H-M   'P 1'
_cell_length_a   10.98212112
_cell_length_b   10.98210250
_cell_length_c   11.00014026
_cell_angle_alpha   76.61733687
_cell_angle_beta   76.61703505
_cell_angle_gamma   78.89400154
_symmetry_Int_Tables_number   1
_chemical_formula_structural   AgP2H24C26NO3
_chemical_formula_sum   'Ag2 P4 H48 C52 N2 O6'
_cell_volume   1241.99187681
_cell_formula_units_Z   2
loop_
 _symmetry_equiv_pos_site_id
 _symmetry_equiv_pos_as_xyz
  1  'x, y, z'
loop_
 _atom_site_type_symbol
 _atom_site_label
 _atom_site_symmetry_multiplicity
 _atom_site_fract_x
 _atom_site_fract_y
 _atom_site_fract_z
 _atom_site_occupancy
 _atom_site_hle17_bader_spin_density
 _atom_site_hle17_ddec_charge
 _atom_site_hle17_ddec_spin_density
 _atom_site_hle17_ddec_sum_bond_order
 _atom_site_hle17_magmom
 _atom_site_hse06_10hf_bader_spin_density
 _atom_site_hse06_10hf_ddec_charge
 _atom_site_hse06_10hf_ddec_spin_density
 _atom_site_hse06_10hf_ddec_sum_bond_order
 _atom_site_hse06_10hf_magmom
 _atom_site_hse06_bader_spin_density
 _atom_site_hse06_ddec_charge
 _atom_site_hse06_ddec_spin_density
 _atom_site_hse06_ddec_sum_bond_order
 _atom_site_hse06_magmom
 _atom_site_pbe_bader_spin_density
 _atom_site_pbe_cm5_charge
 _atom_site_pbe_ddec_charge
 _atom_site_pbe_ddec_spin_density
 _atom_site_pbe_ddec_sum_bond_order
 _atom_site_pbe_magmom
Ag  Ag0  1  0.33751845  0.66247905  0.74999986  1  0  0.149198  0  1.915254  0  0  0.038044  0  2.394797  0  0  0.053268  0  2.353673  0  0  0.40554  0.02784  0  2.423434  0
Ag  Ag1  1  0.66247759  0.33751844  0.25000151  1  0  0.149196  0  1.91523  0  0  0.038061  0  2.394769  0  0  0.053287  0  2.353642  0  0  0.405529  0.027857  0  2.423411  0
P  P2  1  0.48478183  0.68577741  0.86783897  1  0  0.355987  0  3.735026  0  0  0.318375  0  4.199858  0  0  0.32824  0  4.195887  0  0  -0.0242  0.311547  0  4.202629  0
P  P3  1  0.31422444  0.51521675  0.63216004  1  0  0.356061  0  3.735033  0  0  0.318423  0  4.199885  0  0  0.328287  0  4.195918  0  0  -0.024184  0.311593  0  4.202658  0
P  P4  1  0.51521581  0.31422197  0.13216158  1  0  0.356024  0  3.735121  0  0  0.318355  0  4.200052  0  0  0.328221  0  4.196076  0  0  -0.0242  0.311525  0  4.202828  0
P  P5  1  0.68577708  0.48478168  0.36783982  1  0  0.356013  0  3.734961  0  0  0.318373  0  4.199793  0  0  0.328238  0  4.195822  0  0  -0.024183  0.311545  0  4.202569  0
H  H6  1  0.76373169  0.66657954  0.86680970  1  0  0.081126  0  0.965199  0  0  0.094314  0  1.026158  0  0  0.096318  0  1.02598  0  0  0.098905  0.09277  0  1.02661  0
H  H7  1  0.33342257  0.23626327  0.63318656  1  0  0.081182  0  0.965182  0  0  0.094324  0  1.02618  0  0  0.096327  0  1.026004  0  0  0.098898  0.092785  0  1.026622  0
H  H8  1  0.23626409  0.33341985  0.13319220  1  0  0.081125  0  0.965214  0  0  0.094292  0  1.026188  0  0  0.096293  0  1.026015  0  0  0.098903  0.09275  0  1.026638  0
H  H9  1  0.66658001  0.76373420  0.36681054  1  0  0.081155  0  0.965237  0  0  0.09434  0  1.026191  0  0  0.096344  0  1.026012  0  0  0.098924  0.092798  0  1.026644  0
H  H10  1  0.93236675  0.76836567  0.70997384  1  0  0.092898  0  0.968951  0  0  0.098767  0  1.036673  0  0  0.101535  0  1.035748  0  0  0.098988  0.096853  0  1.037329  0
H  H11  1  0.23163914  0.06762746  0.79002087  1  0  0.092885  0  0.968972  0  0  0.098786  0  1.036644  0  0  0.101555  0  1.035719  0  0  0.099005  0.096872  0  1.037302  0
H  H12  1  0.06762997  0.23163371  0.29002784  1  0  0.092846  0  0.968958  0  0  0.098719  0  1.036677  0  0  0.101489  0  1.035751  0  0  0.098971  0.096806  0  1.037334  0
H  H13  1  0.76836586  0.93236621  0.20997475  1  0  0.09288  0  0.968992  0  0  0.098749  0  1.036706  0  0  0.101518  0  1.035779  0  0  0.098978  0.096836  0  1.037362  0
H  H14  1  0.88203805  0.91668315  0.51146742  1  0  0.093048  0  0.955154  0  0  0.101359  0  1.018294  0  0  0.104417  0  1.016565  0  0  0.103114  0.099052  0  1.01975  0
H  H15  1  0.08332145  0.11795247  0.98852875  1  0  0.093031  0  0.955104  0  0  0.101349  0  1.01824  0  0  0.10439  0  1.016524  0  0  0.10313  0.099043  0  1.019694  0
H  H16  1  0.11795771  0.08331622  0.48853176  1  0  0.093049  0  0.955141  0  0  0.101373  0  1.018275  0  0  0.104417  0  1.01656  0  0  0.103107  0.099065  0  1.019732  0
H  H17  1  0.91668275  0.88204025  0.01146727  1  0  0.093015  0  0.955136  0  0  0.101324  0  1.018289  0  0  0.104385  0  1.016558  0  0  0.103098  0.099017  0  1.019744  0
H  H18  1  0.66389907  0.96440783  0.47482489  1  0  0.097118  0  0.972826  0  0  0.109173  0  1.030193  0  0  0.112006  0  1.028782  0  0  0.099847  0.107237  0  1.031088  0
H  H19  1  0.03559602  0.33609150  0.02517293  1  0  0.097097  0  0.972868  0  0  0.109136  0  1.030261  0  0  0.111971  0  1.028848  0  0  0.099819  0.107201  0  1.031155  0
H  H20  1  0.33609549  0.03559345  0.52517594  1  0  0.097077  0  0.972868  0  0  0.10915  0  1.030215  0  0  0.111985  0  1.028802  0  0  0.099839  0.107214  0  1.03111  0
H  H21  1  0.96440564  0.66389934  0.97482414  1  0  0.097114  0  0.972845  0  0  0.109171  0  1.030209  0  0  0.112005  0  1.028798  0  0  0.099855  0.107237  0  1.031099  0
H  H22  1  0.49178271  0.86057346  0.63257004  1  0  0.087434  0  0.967824  0  0  0.099569  0  1.030671  0  0  0.102675  0  1.028201  0  0  0.094358  0.097353  0  1.032367  0
H  H23  1  0.13942579  0.50821103  0.86743029  1  0  0.087438  0  0.967878  0  0  0.099596  0  1.030698  0  0  0.102705  0  1.028223  0  0  0.094365  0.097377  0  1.032398  0
H  H24  1  0.50821172  0.13942877  0.36743242  1  0  0.087434  0  0.96788  0  0  0.099568  0  1.030718  0  0  0.102676  0  1.028245  0  0  0.094353  0.097352  0  1.032415  0
H  H25  1  0.86057147  0.49178456  0.13257034  1  0  0.087437  0  0.96789  0  0  0.099565  0  1.030736  0  0  0.102671  0  1.028265  0  0  0.094347  0.097348  0  1.032432  0
H  H26  1  0.61017419  0.77895186  0.03502839  1  0  0.085994  0  0.967407  0  0  0.096556  0  1.03277  0  0  0.097941  0  1.034223  0  0  0.096834  0.095384  0  1.031982  0
H  H27  1  0.22104580  0.38982949  0.46496562  1  0  0.086035  0  0.967316  0  0  0.096572  0  1.032697  0  0  0.097972  0  1.034134  0  0  0.096841  0.095399  0  1.03191  0
H  H28  1  0.38982797  0.22104844  0.96496542  1  0  0.086029  0  0.967362  0  0  0.096574  0  1.032745  0  0  0.097968  0  1.034187  0  0  0.096839  0.095401  0  1.031957  0
H  H29  1  0.77895193  0.61017555  0.53502993  1  0  0.085998  0  0.967427  0  0  0.096557  0  1.032804  0  0  0.097938  0  1.034263  0  0  0.096825  0.095386  0  1.032016  0
H  H30  1  0.52311862  0.91102833  0.19801780  1  0  0.083005  0  0.963892  0  0  0.094618  0  1.023616  0  0  0.096488  0  1.024151  0  0  0.095953  0.093244  0  1.023355  0
H  H31  1  0.08897722  0.47689061  0.30197181  1  0  0.08302  0  0.963892  0  0  0.094615  0  1.023644  0  0  0.096474  0  1.024183  0  0  0.09598  0.093241  0  1.02338  0
H  H32  1  0.47688964  0.08898139  0.80196961  1  0  0.083014  0  0.96391  0  0  0.094612  0  1.023656  0  0  0.096471  0  1.024193  0  0  0.095971  0.093236  0  1.023393  0
H  H33  1  0.91102464  0.52311820  0.69802096  1  0  0.082981  0  0.963886  0  0  0.094571  0  1.023653  0  0  0.096431  0  1.02419  0  0  0.095967  0.093196  0  1.02339  0
H  H34  1  0.29250316  0.98965482  0.24523969  1  0  0.081212  0  0.992799  0  0  0.091437  0  1.055393  0  0  0.092445  0  1.057381  0  0  0.094259  0.090691  0  1.054075  0
H  H35  1  0.01035299  0.70750784  0.25475709  1  0  0.081213  0  0.992782  0  0  0.091448  0  1.055376  0  0  0.09246  0  1.057356  0  0  0.094287  0.0907  0  1.054061  0
H  H36  1  0.70750460  0.01035210  0.75475395  1  0  0.081171  0  0.992778  0  0  0.09142  0  1.055368  0  0  0.092431  0  1.05735  0  0  0.094247  0.090672  0  1.054052  0
H  H37  1  0.98965050  0.29250288  0.74524030  1  0  0.081163  0  0.992812  0  0  0.091425  0  1.055368  0  0  0.092432  0  1.057359  0  0  0.094248  0.090678  0  1.054051  0
H  H38  1  0.14784975  0.93569651  0.12980938  1  0  0.095604  0  0.965868  0  0  0.105994  0  1.026995  0  0  0.108729  0  1.025412  0  0  0.101608  0.103935  0  1.02839  0
H  H39  1  0.06431383  0.85215501  0.37019489  1  0  0.095543  0  0.965974  0  0  0.105945  0  1.02708  0  0  0.108679  0  1.025499  0  0  0.101606  0.103884  0  1.028474  0
H  H40  1  0.85215392  0.06430667  0.87019339  1  0  0.095584  0  0.965937  0  0  0.105956  0  1.027075  0  0  0.10869  0  1.025495  0  0  0.101621  0.103898  0  1.02847  0
H  H41  1  0.93569318  0.14785101  0.62980823  1  0  0.095566  0  0.965907  0  0  0.105957  0  1.027037  0  0  0.108692  0  1.025454  0  0  0.101603  0.103896  0  1.02843  0
H  H42  1  0.23374895  0.80225694  0.96487442  1  0  0.084487  0  0.982366  0  0  0.090322  0  1.053878  0  0  0.093124  0  1.052394  0  0  0.091427  0.088422  0  1.054735  0
H  H43  1  0.19775032  0.76624935  0.53513076  1  0  0.084612  0  0.982291  0  0  0.090373  0  1.053866  0  0  0.093175  0  1.052385  0  0  0.091435  0.088472  0  1.054725  0
H  H44  1  0.76624858  0.19774341  0.03513047  1  0  0.084479  0  0.982397  0  0  0.090304  0  1.053916  0  0  0.093108  0  1.052431  0  0  0.091397  0.088405  0  1.054773  0
H  H45  1  0.80225564  0.23375099  0.46487305  1  0  0.084477  0  0.982405  0  0  0.090315  0  1.053912  0  0  0.093117  0  1.052429  0  0  0.091412  0.088415  0  1.05477  0
H  H46  1  0.60884737  0.47779322  0.88558321  1  0  0.112973  0  0.922913  0  0  0.134281  0  0.972496  0  0  0.135409  0  0.973884  0  0  0.104588  0.133663  0  0.971122  0
H  H47  1  0.52220528  0.39114911  0.61441981  1  0  0.113035  0  0.922899  0  0  0.134322  0  0.972494  0  0  0.13545  0  0.973882  0  0  0.104576  0.133703  0  0.971121  0
H  H48  1  0.39114855  0.52220524  0.11442069  1  0  0.112989  0  0.922918  0  0  0.134322  0  0.972465  0  0  0.135435  0  0.97387  0  0  0.104596  0.133704  0  0.971091  0
H  H49  1  0.47779359  0.60884839  0.38558453  1  0  0.112989  0  0.922887  0  0  0.134301  0  0.97247  0  0  0.135428  0  0.973858  0  0  0.104582  0.133684  0  0.971096  0
H  H50  1  0.61810937  0.55012692  0.01181124  1  0  0.094473  0  0.951285  0  0  0.108835  0  1.021394  0  0  0.110374  0  1.020824  0  0  0.094244  0.107514  0  1.022144  0
H  H51  1  0.44987407  0.38188527  0.48818982  1  0  0.094532  0  0.951336  0  0  0.108905  0  1.021409  0  0  0.110445  0  1.020839  0  0  0.094275  0.107586  0  1.022155  0
H  H52  1  0.38188453  0.44987247  0.98819110  1  0  0.094498  0  0.951342  0  0  0.108864  0  1.021439  0  0  0.110407  0  1.02086  0  0  0.094244  0.107543  0  1.022188  0
H  H53  1  0.55012601  0.61811034  0.51181377  1  0  0.094528  0  0.951321  0  0  0.108903  0  1.021401  0  0  0.110447  0  1.02082  0  0  0.094277  0.107581  0  1.022155  0
C  C54  1  0.61626284  0.75628473  0.75997325  1  0  -0.103441  0  3.777498  0  0  -0.0649  0  4.013962  0  0  -0.070012  0  4.04042  0  0  -0.028415  -0.061664  0  3.996244  0
C  C55  1  0.24371715  0.38373286  0.74002717  1  0  -0.103485  0  3.777564  0  0  -0.064908  0  4.013972  0  0  -0.070021  0  4.040432  0  0  -0.028432  -0.061674  0  3.996252  0
C  C56  1  0.38373547  0.24371655  0.24002850  1  0  -0.103422  0  3.777554  0  0  -0.064849  0  4.013972  0  0  -0.06996  0  4.04043  0  0  -0.02838  -0.061614  0  3.996256  0
C  C57  1  0.75628144  0.61626653  0.25997406  1  0  -0.103472  0  3.777555  0  0  -0.064862  0  4.01393  0  0  -0.069974  0  4.040388  0  0  -0.028427  -0.061626  0  3.996214  0
C  C58  1  0.74059935  0.73097175  0.78094859  1  0  -0.069644  0  3.741027  0  0  -0.089174  0  3.982459  0  0  -0.089912  0  4.003672  0  0  -0.081992  -0.088742  0  3.968429  0
C  C59  1  0.26903301  0.25940066  0.71904791  1  0  -0.069682  0  3.741002  0  0  -0.08919  0  3.982441  0  0  -0.089928  0  4.003657  0  0  -0.081987  -0.088758  0  3.968413  0
C  C60  1  0.25940177  0.26902953  0.21905251  1  0  -0.069696  0  3.740979  0  0  -0.089219  0  3.982412  0  0  -0.089959  0  4.003628  0  0  -0.082063  -0.088788  0  3.968385  0
C  C61  1  0.73096958  0.74059682  0.28095010  1  0  -0.069667  0  3.74114  0  0  -0.089222  0  3.982561  0  0  -0.089961  0  4.003779  0  0  -0.082017  -0.08879  0  3.968534  0
C  C62  1  0.83632382  0.78822264  0.69186393  1  0  -0.063778  0  3.738577  0  0  -0.074998  0  3.987429  0  0  -0.077036  0  4.007396  0  0  -0.084825  -0.073677  0  3.973931  0
C  C63  1  0.21178192  0.16367056  0.80813293  1  0  -0.063823  0  3.738548  0  0  -0.075098  0  3.987394  0  0  -0.077136  0  4.007355  0  0  -0.084853  -0.07378  0  3.973899  0
C  C64  1  0.16367168  0.21177865  0.30813758  1  0  -0.063698  0  3.738365  0  0  -0.074932  0  3.987205  0  0  -0.076968  0  4.007167  0  0  -0.084777  -0.073614  0  3.973709  0
C  C65  1  0.78822001  0.83632502  0.19186569  1  0  -0.063794  0  3.738489  0  0  -0.075007  0  3.987349  0  0  -0.077046  0  4.007317  0  0  -0.084803  -0.073687  0  3.973854  0
C  C66  1  0.80822540  0.87164328  0.58176423  1  0  -0.048744  0  3.729844  0  0  -0.063586  0  3.978738  0  0  -0.06406  0  3.998175  0  0  -0.080858  -0.062965  0  3.965595  0
C  C67  1  0.12835877  0.19177028  0.91823413  1  0  -0.048634  0  3.729653  0  0  -0.063443  0  3.978522  0  0  -0.0639  0  3.997966  0  0  -0.080784  -0.062821  0  3.965377  0
C  C68  1  0.19177360  0.12835327  0.41823757  1  0  -0.048706  0  3.729743  0  0  -0.063552  0  3.978622  0  0  -0.064015  0  3.99807  0  0  -0.080815  -0.062929  0  3.965477  0
C  C69  1  0.87164356  0.80822246  0.08176415  1  0  -0.04857  0  3.729784  0  0  -0.063419  0  3.978677  0  0  -0.063895  0  3.998116  0  0  -0.080772  -0.062797  0  3.965533  0
C  C70  1  0.68417427  0.89844118  0.56076639  1  0  -0.075538  0  3.771744  0  0  -0.08687  0  4.015673  0  0  -0.089483  0  4.037316  0  0  -0.092627  -0.085266  0  4.000987  0
C  C71  1  0.10156109  0.31581718  0.93923425  1  0  -0.075536  0  3.771786  0  0  -0.08689  0  4.015749  0  0  -0.089502  0  4.037387  0  0  -0.092664  -0.085287  0  4.001061  0
C  C72  1  0.31582137  0.10155916  0.43923713  1  0  -0.075472  0  3.77187  0  0  -0.086827  0  4.015811  0  0  -0.089438  0  4.037449  0  0  -0.0926  -0.085223  0  4.001125  0
C  C73  1  0.89843938  0.68417557  0.06076538  1  0  -0.075607  0  3.771881  0  0  -0.086944  0  4.01583  0  0  -0.089557  0  4.037473  0  0  -0.092698  -0.085339  0  4.001141  0
C  C74  1  0.58875427  0.84069627  0.64903134  1  0  -0.099954  0  3.777335  0  0  -0.115954  0  4.01658  0  0  -0.11801  0  4.03892  0  0  -0.092896  -0.114181  0  4.001437  0
C  C75  1  0.15930360  0.41124061  0.85097007  1  0  -0.099962  0  3.777426  0  0  -0.115986  0  4.016656  0  0  -0.118043  0  4.038998  0  0  -0.092909  -0.114211  0  4.001511  0
C  C76  1  0.41124246  0.15930314  0.35097306  1  0  -0.100023  0  3.777439  0  0  -0.116029  0  4.016677  0  0  -0.118085  0  4.039016  0  0  -0.092945  -0.114257  0  4.001537  0
C  C77  1  0.84069486  0.58875309  0.14903072  1  0  -0.099977  0  3.777365  0  0  -0.115989  0  4.016584  0  0  -0.118045  0  4.038925  0  0  -0.092892  -0.114216  0  4.001443  0
C  C78  1  0.42701959  0.78200641  0.98921481  1  0  -0.107551  0  3.780111  0  0  -0.068795  0  4.015108  0  0  -0.075393  0  4.043143  0  0  -0.03187  -0.064631  0  3.995903  0
C  C79  1  0.21799519  0.57297946  0.51078367  1  0  -0.107504  0  3.780166  0  0  -0.068733  0  4.015114  0  0  -0.075332  0  4.043157  0  0  -0.031853  -0.06457  0  3.99591  0
C  C80  1  0.57297793  0.21799393  0.01078736  1  0  -0.107596  0  3.780129  0  0  -0.068833  0  4.015105  0  0  -0.075433  0  4.043145  0  0  -0.031886  -0.064669  0  3.995902  0
C  C81  1  0.78200499  0.42702181  0.48921583  1  0  -0.107483  0  3.780095  0  0  -0.068708  0  4.015066  0  0  -0.075306  0  4.043103  0  0  -0.031851  -0.064545  0  3.995862  0
C  C82  1  0.50856206  0.81175248  0.05584604  1  0  -0.071284  0  3.748111  0  0  -0.089911  0  3.987627  0  0  -0.09094  0  4.011408  0  0  -0.086432  -0.088295  0  3.970527  0
C  C83  1  0.18825024  0.49144080  0.44415097  1  0  -0.07133  0  3.748084  0  0  -0.089926  0  3.987586  0  0  -0.090966  0  4.011359  0  0  -0.08645  -0.08831  0  3.970485  0
C  C84  1  0.49143998  0.18824878  0.94415121  1  0  -0.071341  0  3.748075  0  0  -0.089951  0  3.987572  0  0  -0.090987  0  4.011345  0  0  -0.086475  -0.088334  0  3.97047  0
C  C85  1  0.81175126  0.50856424  0.55584642  1  0  -0.071369  0  3.74814  0  0  -0.090009  0  3.987655  0  0  -0.091038  0  4.011433  0  0  -0.086456  -0.088393  0  3.970555  0
C  C86  1  0.45962925  0.88632253  0.14771245  1  0  -0.073511  0  3.772654  0  0  -0.083348  0  4.016447  0  0  -0.086513  0  4.03875  0  0  -0.092759  -0.080979  0  4.000657  0
C  C87  1  0.11368066  0.54037794  0.35228285  1  0  -0.073512  0  3.772767  0  0  -0.083338  0  4.016576  0  0  -0.086489  0  4.038873  0  0  -0.092754  -0.080969  0  4.000782  0
C  C88  1  0.54037690  0.11368249  0.85228020  1  0  -0.073463  0  3.77269  0  0  -0.08328  0  4.016492  0  0  -0.086431  0  4.038787  0  0  -0.09268  -0.08091  0  4.000698  0
C  C89  1  0.88631856  0.45962995  0.64771531  1  0  -0.073384  0  3.772523  0  0  -0.08321  0  4.016353  0  0  -0.08636  0  4.038643  0  0  -0.09271  -0.080841  0  4.000561  0
C  C90  1  0.33016933  0.93111221  0.17371353  1  0  -0.053705  0  3.747791  0  0  -0.066211  0  3.989424  0  0  -0.066762  0  4.011497  0  0  -0.086385  -0.066152  0  3.974565  0
C  C91  1  0.06889003  0.66983919  0.32628853  1  0  -0.053641  0  3.74784  0  0  -0.066158  0  3.989446  0  0  -0.066707  0  4.011512  0  0  -0.086392  -0.0661  0  3.974588  0
C  C92  1  0.66983726  0.06888999  0.82628423  1  0  -0.053602  0  3.747807  0  0  -0.066141  0  3.989419  0  0  -0.066688  0  4.011485  0  0  -0.086422  -0.066081  0  3.974557  0
C  C93  1  0.93110827  0.33016873  0.67371439  1  0  -0.053681  0  3.747728  0  0  -0.066215  0  3.989353  0  0  -0.066766  0  4.011418  0  0  -0.086423  -0.066156  0  3.97449  0
C  C94  1  0.24881694  0.90116838  0.10822579  1  0  -0.063566  0  3.75772  0  0  -0.074479  0  4.00028  0  0  -0.077913  0  4.023125  0  0  -0.087658  -0.072032  0  3.985142  0
C  C95  1  0.09883599  0.75118530  0.39177921  1  0  -0.063524  0  3.757748  0  0  -0.074446  0  4.000301  0  0  -0.077881  0  4.023147  0  0  -0.087673  -0.071996  0  3.98516  0
C  C96  1  0.75118498  0.09883384  0.89177489  1  0  -0.063627  0  3.757764  0  0  -0.074529  0  4.000345  0  0  -0.077965  0  4.023191  0  0  -0.087676  -0.072082  0  3.985207  0
C  C97  1  0.90116661  0.24881883  0.60822450  1  0  -0.06357  0  3.75771  0  0  -0.074483  0  4.000282  0  0  -0.077916  0  4.023127  0  0  -0.087659  -0.072032  0  3.985137  0
C  C98  1  0.29699740  0.82675683  0.01598898  1  0  -0.082801  0  3.76259  0  0  -0.098308  0  4.000676  0  0  -0.100076  0  4.024204  0  0  -0.090778  -0.097263  0  3.984848  0
C  C99  1  0.17324856  0.70300123  0.48401539  1  0  -0.08301  0  3.76262  0  0  -0.098456  0  4.000723  0  0  -0.100228  0  4.024251  0  0  -0.090811  -0.097411  0  3.984897  0
C  C100  1  0.70300079  0.17324541  0.98401440  1  0  -0.082762  0  3.762571  0  0  -0.098255  0  4.000634  0  0  -0.100023  0  4.02416  0  0  -0.090731  -0.097211  0  3.984809  0
C  C101  1  0.82675445  0.29700006  0.51598798  1  0  -0.082797  0  3.762657  0  0  -0.098306  0  4.000734  0  0  -0.100075  0  4.024264  0  0  -0.090749  -0.097261  0  3.984905  0
C  C102  1  0.55330874  0.53420557  0.95596137  1  0  -0.254961  0  3.675003  0  0  -0.276931  0  3.922428  0  0  -0.28126  0  3.935808  0  0  -0.163927  -0.273682  0  3.912771  0
C  C103  1  0.46579398  0.44668636  0.54404114  1  0  -0.255154  0  3.675321  0  0  -0.277079  0  3.922672  0  0  -0.281412  0  3.93606  0  0  -0.163922  -0.273826  0  3.913014  0
C  C104  1  0.44668732  0.46579194  0.04404182  1  0  -0.25505  0  3.675199  0  0  -0.27701  0  3.922555  0  0  -0.281328  0  3.935944  0  0  -0.16389  -0.273756  0  3.912895  0
C  C105  1  0.53420517  0.55330925  0.45596268  1  0  -0.255036  0  3.675123  0  0  -0.277021  0  3.922561  0  0  -0.281349  0  3.935946  0  0  -0.163946  -0.273774  0  3.912907  0
N  N106  1  0.12669805  0.87329790  0.74999991  1  0  0.683052  0  4.137843  0  0  0.711264  0  4.433423  0  0  0.739453  0  4.440341  0  0  0.090043  0.707155  0  4.407052  0
N  N107  1  0.87329812  0.12669863  0.24999894  1  0  0.68308  0  4.137775  0  0  0.711217  0  4.433461  0  0  0.739404  0  4.440377  0  0  0.090035  0.707161  0  4.407019  0
O  O108  1  0.23681298  0.88885069  0.68315231  1  0  -0.47389  0  1.785147  0  0  -0.448795  0  2.01842  0  0  -0.465966  0  2.009305  0  0  -0.208518  -0.441753  0  2.018447  0
O  O109  1  0.11114151  0.76318452  0.81685140  1  0  -0.47396  0  1.785154  0  0  -0.448898  0  2.018475  0  0  -0.466071  0  2.00936  0  0  -0.2086  -0.441854  0  2.018503  0
O  O110  1  0.76318469  0.11114207  0.31685071  1  0  -0.473971  0  1.785149  0  0  -0.448884  0  2.018504  0  0  -0.466056  0  2.009385  0  0  -0.208594  -0.441858  0  2.018513  0
O  O111  1  0.88885066  0.23681393  0.18315158  1  0  -0.473919  0  1.785095  0  0  -0.448794  0  2.018405  0  0  -0.465966  0  2.009286  0  0  -0.20853  -0.441769  0  2.018412  0
O  O112  1  0.03715752  0.96284108  0.74999771  1  0  -0.438169  0  1.745811  0  0  -0.43189  0  1.953807  0  0  -0.445362  0  1.948973  0  0  -0.175527  -0.427665  0  1.950652  0
O  O113  1  0.96284103  0.03715828  0.24999809  1  0  -0.438155  0  1.745768  0  0  -0.431863  0  1.953802  0  0  -0.445335  0  1.948971  0  0  -0.175512  -0.427655  0  1.950626  0
