# generated using pymatgen
data_ZnH11C15(NO2)2
_symmetry_space_group_name_H-M   'P 1'
_cell_length_a   7.75024035
_cell_length_b   14.86080943
_cell_length_c   16.10718441
_cell_angle_alpha   104.73750698
_cell_angle_beta   90.01070301
_cell_angle_gamma   105.10208906
_symmetry_Int_Tables_number   1
_chemical_formula_structural   ZnH11C15(NO2)2
_chemical_formula_sum   'Zn4 H44 C60 N8 O16'
_cell_volume   1727.75368708
_cell_formula_units_Z   4
loop_
 _symmetry_equiv_pos_site_id
 _symmetry_equiv_pos_as_xyz
  1  'x, y, z'
loop_
 _atom_site_type_symbol
 _atom_site_label
 _atom_site_symmetry_multiplicity
 _atom_site_fract_x
 _atom_site_fract_y
 _atom_site_fract_z
 _atom_site_occupancy
 _atom_site_hle17_bader_spin_density
 _atom_site_hle17_ddec_charge
 _atom_site_hle17_ddec_spin_density
 _atom_site_hle17_ddec_sum_bond_order
 _atom_site_hle17_magmom
 _atom_site_hse06_10hf_bader_spin_density
 _atom_site_hse06_10hf_ddec_charge
 _atom_site_hse06_10hf_ddec_spin_density
 _atom_site_hse06_10hf_ddec_sum_bond_order
 _atom_site_hse06_10hf_magmom
 _atom_site_hse06_bader_spin_density
 _atom_site_hse06_ddec_charge
 _atom_site_hse06_ddec_spin_density
 _atom_site_hse06_ddec_sum_bond_order
 _atom_site_hse06_magmom
 _atom_site_pbe_bader_spin_density
 _atom_site_pbe_cm5_charge
 _atom_site_pbe_ddec_charge
 _atom_site_pbe_ddec_spin_density
 _atom_site_pbe_ddec_sum_bond_order
 _atom_site_pbe_magmom
Zn  Zn0  1  0.57137261  0.64106045  0.30424215  1  0  1.017323  0  1.792495  0  0  0.827473  0  2.257272  0  0  0.874702  0  2.202791  0  0  0.688949  0.794657  0  2.294633  0
Zn  Zn1  1  0.93004852  0.35877972  0.19565681  1  0  1.017306  0  1.792573  0  0  0.827571  0  2.257585  0  0  0.874849  0  2.203051  0  0  0.688999  0.79472  0  2.294969  0
Zn  Zn2  1  0.42862572  0.35893972  0.69575553  1  0  1.01731  0  1.792531  0  0  0.827416  0  2.257309  0  0  0.874643  0  2.202833  0  0  0.688923  0.794602  0  2.294668  0
Zn  Zn3  1  0.06995461  0.64121972  0.80434131  1  0  1.017337  0  1.79265  0  0  0.827576  0  2.257671  0  0  0.874856  0  2.203133  0  0  0.689014  0.794724  0  2.295057  0
H  H4  1  0.64991450  0.47582025  0.27986097  1  0  0.324013  0  0.911578  0  0  0.308102  0  0.972486  0  0  0.315644  0  0.9666  0  0  0.293445  0.302718  0  0.976686  0
H  H5  1  0.17382366  0.52407517  0.22010828  1  0  0.32476  0  0.911428  0  0  0.308625  0  0.9725  0  0  0.316171  0  0.966617  0  0  0.293284  0.303234  0  0.976712  0
H  H6  1  0.35008419  0.52418061  0.72013937  1  0  0.323978  0  0.911631  0  0  0.308054  0  0.972541  0  0  0.315598  0  0.966653  0  0  0.293423  0.302671  0  0.976741  0
H  H7  1  0.82617890  0.47592571  0.77989082  1  0  0.324776  0  0.911369  0  0  0.308638  0  0.972446  0  0  0.316184  0  0.966559  0  0  0.293288  0.303243  0  0.97666  0
H  H8  1  0.51167578  0.48827402  0.35826478  1  0  0.329238  0  0.894748  0  0  0.314383  0  0.952996  0  0  0.321913  0  0.946851  0  0  0.298251  0.308998  0  0.957421  0
H  H9  1  0.02295994  0.51169796  0.14177210  1  0  0.329452  0  0.896059  0  0  0.315139  0  0.953354  0  0  0.322689  0  0.947193  0  0  0.298309  0.309744  0  0.957785  0
H  H10  1  0.48832326  0.51172758  0.64173511  1  0  0.329244  0  0.894772  0  0  0.314385  0  0.953005  0  0  0.321915  0  0.946863  0  0  0.298247  0.309001  0  0.95743  0
H  H11  1  0.97704628  0.48830506  0.85822938  1  0  0.329415  0  0.896129  0  0  0.315099  0  0.953431  0  0  0.322649  0  0.94727  0  0  0.298301  0.309703  0  0.957862  0
H  H12  1  0.66074965  0.77187486  0.48637821  1  0  0.104379  0  0.958256  0  0  0.11364  0  1.016237  0  0  0.116849  0  1.013007  0  0  0.122981  0.111258  0  1.018596  0
H  H13  1  0.88873638  0.22805686  0.01348441  1  0  0.104237  0  0.957768  0  0  0.112583  0  1.016947  0  0  0.115791  0  1.01371  0  0  0.122811  0.110209  0  1.019291  0
H  H14  1  0.33923944  0.22812748  0.51362001  1  0  0.104372  0  0.958345  0  0  0.113664  0  1.01631  0  0  0.116872  0  1.01308  0  0  0.122985  0.111278  0  1.018669  0
H  H15  1  0.11126731  0.77194111  0.98651522  1  0  0.104195  0  0.957804  0  0  0.112549  0  1.016989  0  0  0.115758  0  1.01375  0  0  0.122788  0.110174  0  1.019333  0
H  H16  1  0.94003229  0.88529926  0.57079770  1  0  0.105489  0  0.930521  0  0  0.118943  0  0.981757  0  0  0.122174  0  0.981518  0  0  0.110858  0.116656  0  0.982135  0
H  H17  1  0.05473039  0.11467758  0.92906231  1  0  0.105244  0  0.930714  0  0  0.119037  0  0.981784  0  0  0.12227  0  0.981537  0  0  0.1109  0.116746  0  0.982163  0
H  H18  1  0.05995595  0.11469363  0.42920256  1  0  0.10547  0  0.930575  0  0  0.118885  0  0.981844  0  0  0.122116  0  0.981604  0  0  0.110798  0.116595  0  0.982222  0
H  H19  1  0.94526375  0.88531677  0.07093706  1  0  0.105264  0  0.930757  0  0  0.119012  0  0.981856  0  0  0.122246  0  0.981608  0  0  0.110882  0.11672  0  0.982234  0
H  H20  1  0.20075447  0.85454095  0.33114801  1  0  0.108674  0  0.937014  0  0  0.122364  0  0.988416  0  0  0.125608  0  0.987633  0  0  0.11245  0.120025  0  0.98918  0
H  H21  1  0.34653569  0.14548661  0.16867948  1  0  0.107924  0  0.938918  0  0  0.12194  0  0.989769  0  0  0.125258  0  0.988882  0  0  0.112227  0.119553  0  0.990592  0
H  H22  1  0.79924641  0.14545915  0.66885524  1  0  0.108724  0  0.936984  0  0  0.122422  0  0.988371  0  0  0.125667  0  0.987586  0  0  0.112484  0.120085  0  0.989136  0
H  H23  1  0.65346651  0.85451356  0.83131820  1  0  0.107975  0  0.938857  0  0  0.121954  0  0.989737  0  0  0.125272  0  0.988851  0  0  0.112239  0.11957  0  0.990557  0
H  H24  1  0.91410812  0.74502560  0.25893156  1  0  0.090986  0  0.960019  0  0  0.098725  0  1.021085  0  0  0.101667  0  1.018239  0  0  0.119719  0.096497  0  1.023247  0
H  H25  1  0.16936437  0.25503600  0.24091365  1  0  0.09091  0  0.959861  0  0  0.098663  0  1.020993  0  0  0.101615  0  1.018138  0  0  0.119724  0.09645  0  1.023109  0
H  H26  1  0.08588855  0.25497382  0.74106842  1  0  0.090976  0  0.959995  0  0  0.098746  0  1.021045  0  0  0.101689  0  1.018199  0  0  0.119716  0.096517  0  1.023213  0
H  H27  1  0.83064300  0.74496417  0.75908403  1  0  0.09088  0  0.959971  0  0  0.098635  0  1.021101  0  0  0.101586  0  1.018248  0  0  0.119712  0.096424  0  1.023217  0
H  H28  1  0.24707531  0.97714832  0.57529589  1  0  0.092565  0  0.932949  0  0  0.106035  0  0.987996  0  0  0.109078  0  0.9872  0  0  0.105353  0.103863  0  0.988706  0
H  H29  1  0.26992283  0.02280786  0.92457777  1  0  0.092136  0  0.932631  0  0  0.105606  0  0.987632  0  0  0.108708  0  0.986754  0  0  0.105247  0.103398  0  0.988388  0
H  H30  1  0.75291568  0.02284231  0.42471126  1  0  0.092627  0  0.932863  0  0  0.106144  0  0.987855  0  0  0.109192  0  0.987061  0  0  0.105416  0.103969  0  0.988565  0
H  H31  1  0.73007110  0.97718866  0.07542151  1  0  0.092152  0  0.932593  0  0  0.105625  0  0.987586  0  0  0.108727  0  0.986708  0  0  0.105262  0.103417  0  0.988342  0
H  H32  1  0.43869259  0.93567930  0.40729834  1  0  0.088542  0  0.934768  0  0  0.104953  0  0.985919  0  0  0.10739  0  0.984685  0  0  0.108574  0.103188  0  0.98689  0
H  H33  1  0.50300220  0.06438455  0.09264157  1  0  0.089182  0  0.934854  0  0  0.105578  0  0.986021  0  0  0.108015  0  0.984749  0  0  0.108753  0.103781  0  0.987056  0
H  H34  1  0.56130627  0.06431417  0.59271385  1  0  0.088537  0  0.934655  0  0  0.104968  0  0.985803  0  0  0.1074  0  0.984566  0  0  0.108572  0.103203  0  0.986776  0
H  H35  1  0.49699926  0.93561415  0.90735824  1  0  0.089185  0  0.934887  0  0  0.105569  0  0.986066  0  0  0.108017  0  0.984781  0  0  0.108744  0.103772  0  0.987101  0
H  H36  1  0.96320895  0.57365618  0.29819631  1  0  0.114818  0  0.970725  0  0  0.123352  0  1.038577  0  0  0.127228  0  1.0352  0  0  0.107818  0.120529  0  1.041055  0
H  H37  1  0.38909216  0.42618759  0.20177686  1  0  0.115305  0  0.970897  0  0  0.123639  0  1.038827  0  0  0.127512  0  1.035468  0  0  0.107931  0.120818  0  1.041312  0
H  H38  1  0.03678808  0.42634397  0.70180323  1  0  0.114806  0  0.970707  0  0  0.123345  0  1.038547  0  0  0.127219  0  1.035175  0  0  0.107806  0.120524  0  1.041026  0
H  H39  1  0.61091319  0.57381112  0.79822171  1  0  0.115339  0  0.9709  0  0  0.12365  0  1.038846  0  0  0.127521  0  1.035491  0  0  0.107944  0.12083  0  1.041331  0
H  H40  1  0.20004929  0.65265061  0.55755648  1  0  0.116997  0  0.944447  0  0  0.123253  0  1.009113  0  0  0.128286  0  1.004189  0  0  0.104315  0.1196  0  1.012711  0
H  H41  1  0.54676081  0.34725338  0.94239310  1  0  0.117381  0  0.944367  0  0  0.123968  0  1.008564  0  0  0.129063  0  1.00358  0  0  0.104793  0.120252  0  1.01223  0
H  H42  1  0.79995007  0.34735677  0.44244420  1  0  0.117064  0  0.944438  0  0  0.123319  0  1.009102  0  0  0.128351  0  1.004178  0  0  0.104377  0.119668  0  1.012691  0
H  H43  1  0.45324669  0.65274964  0.05760838  1  0  0.117418  0  0.944287  0  0  0.123964  0  1.00853  0  0  0.129058  0  1.003544  0  0  0.104754  0.120246  0  1.012196  0
H  H44  1  0.62734384  0.55215785  0.50853981  1  0  0.112549  0  0.953848  0  0  0.1221  0  1.017829  0  0  0.125939  0  1.014455  0  0  0.10722  0.119283  0  1.020405  0
H  H45  1  0.07465623  0.44783947  0.99142616  1  0  0.113136  0  0.953103  0  0  0.121842  0  1.018123  0  0  0.125769  0  1.014669  0  0  0.107304  0.118971  0  1.020738  0
H  H46  1  0.37265571  0.44784734  0.49146221  1  0  0.112515  0  0.9539  0  0  0.122083  0  1.017844  0  0  0.125923  0  1.014471  0  0  0.107211  0.119269  0  1.020418  0
H  H47  1  0.92534943  0.55216503  0.00857258  1  0  0.113051  0  0.953198  0  0  0.121803  0  1.018157  0  0  0.125728  0  1.014706  0  0  0.107316  0.11893  0  1.020775  0
C  C48  1  0.78380736  0.79475983  0.45560995  1  0  0.131259  0  3.703036  0  0  0.097286  0  3.954393  0  0  0.105321  0  3.972754  0  0  0.050092  0.092179  0  3.941963  0
C  C49  1  0.98903879  0.20522471  0.04424215  1  0  0.131989  0  3.70447  0  0  0.099024  0  3.955836  0  0  0.107101  0  3.974181  0  0  0.050052  0.093888  0  3.943424  0
C  C50  1  0.21618453  0.20524035  0.54438712  1  0  0.131331  0  3.703133  0  0  0.097234  0  3.954501  0  0  0.10527  0  3.972863  0  0  0.050056  0.092127  0  3.942067  0
C  C51  1  0.01096160  0.79477183  0.95575651  1  0  0.132  0  3.704411  0  0  0.098986  0  3.955781  0  0  0.107064  0  3.974125  0  0  0.050062  0.093852  0  3.943366  0
C  C52  1  0.93944715  0.85701410  0.50129970  1  0  -0.158293  0  3.695595  0  0  -0.174904  0  3.943874  0  0  -0.18447  0  3.965852  0  0  -0.078961  -0.168843  0  3.929374  0
C  C53  1  0.08256646  0.14304569  0.99854203  1  0  -0.15814  0  3.696884  0  0  -0.175059  0  3.945721  0  0  -0.184639  0  3.967706  0  0  -0.078307  -0.168989  0  3.931218  0
C  C54  1  0.06054457  0.14298317  0.49869851  1  0  -0.15831  0  3.695725  0  0  -0.174871  0  3.943965  0  0  -0.184437  0  3.965944  0  0  -0.078933  -0.168809  0  3.929461  0
C  C55  1  0.91742969  0.85695011  0.00145769  1  0  -0.1581  0  3.69688  0  0  -0.174959  0  3.945697  0  0  -0.184539  0  3.967683  0  0  -0.078236  -0.168886  0  3.931189  0
C  C56  1  0.09630875  0.88154514  0.45865336  1  0  0.141716  0  3.816197  0  0  0.15347  0  4.054049  0  0  0.160502  0  4.07677  0  0  0.009446  0.148939  0  4.038611  0
C  C57  1  0.21489445  0.11850549  0.04119450  1  0  0.141978  0  3.815247  0  0  0.15254  0  4.055097  0  0  0.15953  0  4.07793  0  0  0.008895  0.14803  0  4.039616  0
C  C58  1  0.90369105  0.11845280  0.54134874  1  0  0.141803  0  3.816284  0  0  0.153626  0  4.05401  0  0  0.160656  0  4.076734  0  0  0.009564  0.149092  0  4.038577  0
C  C59  1  0.78510537  0.88149249  0.95880451  1  0  0.142052  0  3.815237  0  0  0.152605  0  4.055084  0  0  0.159594  0  4.07792  0  0  0.008894  0.148093  0  4.039605  0
C  C60  1  0.08501652  0.84094471  0.36900677  1  0  -0.159228  0  3.696973  0  0  -0.176735  0  3.941632  0  0  -0.185961  0  3.963333  0  0  -0.080435  -0.17085  0  3.927126  0
C  C61  1  0.24434299  0.15909706  0.13083976  1  0  -0.158962  0  3.69756  0  0  -0.176224  0  3.942465  0  0  -0.1855  0  3.964146  0  0  -0.080754  -0.170299  0  3.927979  0
C  C62  1  0.91498122  0.15905685  0.63099560  1  0  -0.159339  0  3.696989  0  0  -0.176867  0  3.941662  0  0  -0.186093  0  3.963361  0  0  -0.080521  -0.170984  0  3.927163  0
C  C63  1  0.75565812  0.84090093  0.86915863  1  0  -0.159109  0  3.697513  0  0  -0.176339  0  3.942424  0  0  -0.185614  0  3.964105  0  0  -0.080813  -0.170414  0  3.927942  0
C  C64  1  0.92496882  0.78004881  0.32762474  1  0  0.126144  0  3.726435  0  0  0.094565  0  3.977212  0  0  0.102152  0  3.995545  0  0  0.044357  0.089656  0  3.964834  0
C  C65  1  0.14513448  0.21996777  0.17222255  1  0  0.126664  0  3.725436  0  0  0.094948  0  3.976662  0  0  0.102537  0  3.995025  0  0  0.045126  0.090037  0  3.964263  0
C  C66  1  0.07503131  0.21995497  0.67237444  1  0  0.126274  0  3.726479  0  0  0.094594  0  3.977278  0  0  0.10218  0  3.995611  0  0  0.0444  0.089684  0  3.964902  0
C  C67  1  0.85487050  0.78003021  0.82777584  1  0  0.126728  0  3.725636  0  0  0.09499  0  3.976831  0  0  0.102578  0  3.995196  0  0  0.045171  0.090078  0  3.964438  0
C  C68  1  0.25899781  0.94549027  0.50705914  1  0  -0.112264  0  3.723083  0  0  -0.133911  0  3.976694  0  0  -0.139374  0  3.9989  0  0  -0.079513  -0.130131  0  3.96159  0
C  C69  1  0.31357997  0.05454224  0.99280770  1  0  -0.110647  0  3.720739  0  0  -0.131687  0  3.974287  0  0  -0.137184  0  3.996482  0  0  -0.078394  -0.127879  0  3.95919  0
C  C70  1  0.74099760  0.05449888  0.49295075  1  0  -0.112418  0  3.723021  0  0  -0.13412  0  3.976659  0  0  -0.139589  0  3.998869  0  0  -0.079628  -0.130336  0  3.961553  0
C  C71  1  0.68642078  0.94545504  0.00718989  1  0  -0.110612  0  3.720707  0  0  -0.131645  0  3.974255  0  0  -0.137141  0  3.996452  0  0  -0.078371  -0.127838  0  3.959158  0
C  C72  1  0.42190859  0.96792426  0.47479818  1  0  -0.045201  0  3.792618  0  0  -0.062011  0  4.044954  0  0  -0.062668  0  4.067365  0  0  -0.077522  -0.061408  0  4.029444  0
C  C73  1  0.45398324  0.03209859  0.02514675  1  0  -0.047139  0  3.792787  0  0  -0.064111  0  4.045454  0  0  -0.064757  0  4.067811  0  0  -0.078667  -0.06349  0  4.02999  0
C  C74  1  0.57809213  0.03206777  0.52521304  1  0  -0.045128  0  3.792508  0  0  -0.061995  0  4.044908  0  0  -0.062646  0  4.067313  0  0  -0.077532  -0.061394  0  4.029401  0
C  C75  1  0.54601069  0.96789793  0.97485377  1  0  -0.047334  0  3.792866  0  0  -0.064303  0  4.045561  0  0  -0.064958  0  4.067912  0  0  -0.078764  -0.063681  0  4.030098  0
C  C76  1  0.77971765  0.55568250  0.39643030  1  0  0.26978  0  3.772341  0  0  0.271417  0  4.018719  0  0  0.275376  0  4.042175  0  0  0.082057  0.268411  0  4.0028  0
C  C77  1  0.22355092  0.44422940  0.10353621  1  0  0.270993  0  3.768961  0  0  0.271301  0  4.016742  0  0  0.275272  0  4.040194  0  0  0.082256  0.268289  0  4.000833  0
C  C78  1  0.22028103  0.44431836  0.60357004  1  0  0.269878  0  3.77226  0  0  0.271438  0  4.018721  0  0  0.27539  0  4.04219  0  0  0.082051  0.268431  0  4.0028  0
C  C79  1  0.77645365  0.55577291  0.89646386  1  0  0.270992  0  3.769033  0  0  0.271309  0  4.016793  0  0  0.27528  0  4.040241  0  0  0.082233  0.268292  0  4.000885  0
C  C80  1  0.95088215  0.57964605  0.36662133  1  0  -0.151599  0  3.668658  0  0  -0.187448  0  3.923601  0  0  -0.187555  0  3.942388  0  0  -0.088315  -0.186946  0  3.910853  0
C  C81  1  0.37072283  0.42019711  0.13334843  1  0  -0.153993  0  3.667746  0  0  -0.188965  0  3.923417  0  0  -0.189158  0  3.942263  0  0  -0.088965  -0.188411  0  3.910579  0
C  C82  1  0.04911767  0.42035193  0.63337768  1  0  -0.151659  0  3.668769  0  0  -0.187507  0  3.923779  0  0  -0.187617  0  3.942565  0  0  -0.088331  -0.187001  0  3.911035  0
C  C83  1  0.62928504  0.57980666  0.86665137  1  0  -0.154005  0  3.667875  0  0  -0.18894  0  3.923529  0  0  -0.18914  0  3.942392  0  0  -0.088997  -0.188386  0  3.910692  0
C  C84  1  0.10228330  0.61459389  0.42456195  1  0  -0.059169  0  3.790038  0  0  -0.033374  0  4.027264  0  0  -0.042453  0  4.051942  0  0  -0.022821  -0.027592  0  4.01065  0
C  C85  1  0.48709960  0.38520613  0.07538955  1  0  -0.060207  0  3.790192  0  0  -0.035024  0  4.028121  0  0  -0.043987  0  4.052647  0  0  -0.023441  -0.029265  0  4.011534  0
C  C86  1  0.89771777  0.38540916  0.57543706  1  0  -0.059096  0  3.790133  0  0  -0.033301  0  4.027345  0  0  -0.042364  0  4.052005  0  0  -0.022813  -0.027534  0  4.010749  0
C  C87  1  0.51290916  0.61480200  0.92460945  1  0  -0.060412  0  3.790389  0  0  -0.035276  0  4.028367  0  0  -0.04424  0  4.052889  0  0  -0.023454  -0.029517  0  4.011781  0
C  C88  1  0.08208881  0.62686345  0.51271990  1  0  -0.078359  0  3.713521  0  0  -0.119246  0  3.966095  0  0  -0.117275  0  3.985429  0  0  -0.084221  -0.120256  0  3.952968  0
C  C89  1  0.45461576  0.37302031  0.98724751  1  0  -0.079061  0  3.714862  0  0  -0.119786  0  3.967669  0  0  -0.117958  0  3.98695  0  0  -0.085048  -0.120713  0  3.9546  0
C  C90  1  0.91790740  0.37314538  0.48728113  1  0  -0.078554  0  3.713706  0  0  -0.119437  0  3.966308  0  0  -0.117473  0  3.985637  0  0  -0.084332  -0.120435  0  3.953186  0
C  C91  1  0.54539027  0.62698493  0.01275017  1  0  -0.079071  0  3.715037  0  0  -0.119704  0  3.967843  0  0  -0.117873  0  3.987121  0  0  -0.085023  -0.120631  0  3.954773  0
C  C92  1  0.91152605  0.60405743  0.54271367  1  0  -0.063142  0  3.789864  0  0  -0.036814  0  4.024447  0  0  -0.04584  0  4.049698  0  0  -0.022676  -0.031021  0  4.007409  0
C  C93  1  0.30694556  0.39593432  0.95727002  1  0  -0.062985  0  3.792342  0  0  -0.037352  0  4.027271  0  0  -0.046272  0  4.052416  0  0  -0.023066  -0.031632  0  4.0103  0
C  C94  1  0.08846821  0.39594490  0.45728516  1  0  -0.063078  0  3.789871  0  0  -0.036765  0  4.024468  0  0  -0.045786  0  4.049717  0  0  -0.022665  -0.030994  0  4.00745  0
C  C95  1  0.69305881  0.60407018  0.04272934  1  0  -0.063055  0  3.792538  0  0  -0.037515  0  4.027582  0  0  -0.046434  0  4.052723  0  0  -0.023123  -0.031796  0  4.010608  0
C  C96  1  0.75992089  0.56880471  0.48443418  1  0  -0.140451  0  3.662864  0  0  -0.175301  0  3.914188  0  0  -0.175665  0  3.932741  0  0  -0.081399  -0.174743  0  3.901621  0
C  C97  1  0.19058473  0.43116773  0.01553723  1  0  -0.140191  0  3.662507  0  0  -0.173664  0  3.91403  0  0  -0.174096  0  3.932423  0  0  -0.080899  -0.17305  0  3.901564  0
C  C98  1  0.24007428  0.43119688  0.51556571  1  0  -0.140462  0  3.662899  0  0  -0.175275  0  3.914237  0  0  -0.175638  0  3.932791  0  0  -0.081327  -0.17471  0  3.901672  0
C  C99  1  0.80941561  0.56883386  0.98446328  1  0  -0.139978  0  3.662565  0  0  -0.173447  0  3.914061  0  0  -0.173877  0  3.932452  0  0  -0.080826  -0.172833  0  3.901595  0
C  C100  1  0.28769324  0.63628431  0.39503387  1  0  0.631063  0  3.915819  0  0  0.581765  0  4.205621  0  0  0.615352  0  4.200066  0  0  0.197353  0.559066  0  4.208498  0
C  C101  1  0.65087649  0.36348267  0.10483973  1  0  0.630943  0  3.917286  0  0  0.581749  0  4.207297  0  0  0.615315  0  4.201725  0  0  0.197423  0.559056  0  4.210186  0
C  C102  1  0.71230637  0.36371584  0.60496567  1  0  0.631114  0  3.915894  0  0  0.581813  0  4.20569  0  0  0.615394  0  4.200135  0  0  0.19737  0.559117  0  4.20857  0
C  C103  1  0.34912643  0.63651894  0.89515830  1  0  0.631101  0  3.917174  0  0  0.581891  0  4.207223  0  0  0.615458  0  4.201647  0  0  0.197476  0.559196  0  4.210113  0
C  C104  1  0.89168899  0.61313366  0.63700961  1  0  0.637605  0  3.926161  0  0  0.589276  0  4.220091  0  0  0.622909  0  4.213514  0  0  0.201609  0.566506  0  4.223755  0
C  C105  1  0.27839893  0.38698584  0.86297632  1  0  0.64056  0  3.925482  0  0  0.592679  0  4.218685  0  0  0.626289  0  4.212032  0  0  0.203291  0.569929  0  4.222388  0
C  C106  1  0.10830933  0.38686650  0.36298931  1  0  0.637679  0  3.926131  0  0  0.589337  0  4.220091  0  0  0.622969  0  4.213512  0  0  0.201634  0.566573  0  4.223755  0
C  C107  1  0.72160766  0.61301794  0.13702286  1  0  0.640561  0  3.925517  0  0  0.592667  0  4.21875  0  0  0.626275  0  4.212099  0  0  0.203257  0.569919  0  4.22245  0
N  N108  1  0.77579718  0.75685755  0.36975304  1  0  -0.346065  0  3.309843  0  0  -0.260159  0  3.585447  0  0  -0.280434  0  3.600152  0  0  -0.332196  -0.246657  0  3.575418  0
N  N109  1  0.01899329  0.24311240  0.13010702  1  0  -0.346529  0  3.31101  0  0  -0.260639  0  3.586475  0  0  -0.280959  0  3.601199  0  0  -0.332504  -0.247107  0  3.576433  0
N  N110  1  0.22419708  0.24314481  0.63024393  1  0  -0.346217  0  3.309998  0  0  -0.260147  0  3.585516  0  0  -0.280422  0  3.600225  0  0  -0.332195  -0.246643  0  3.575484  0
N  N111  1  0.98100674  0.75688341  0.86989146  1  0  -0.346594  0  3.311102  0  0  -0.260624  0  3.586492  0  0  -0.280942  0  3.601214  0  0  -0.332551  -0.247092  0  3.576453  0
N  N112  1  0.62740880  0.52341688  0.33545433  1  0  -0.674318  0  3.140026  0  0  -0.606906  0  3.382952  0  0  -0.628057  0  3.37701  0  0  -0.60088  -0.592131  0  3.387054  0
N  N113  1  0.10358932  0.47650758  0.16453145  1  0  -0.675539  0  3.1405  0  0  -0.607992  0  3.383687  0  0  -0.629172  0  3.377682  0  0  -0.600561  -0.59321  0  3.387826  0
N  N114  1  0.37258988  0.47658399  0.66454601  1  0  -0.674277  0  3.139911  0  0  -0.606874  0  3.38298  0  0  -0.628011  0  3.377013  0  0  -0.60088  -0.592106  0  3.387091  0
N  N115  1  0.89641453  0.52349330  0.83546765  1  0  -0.67554  0  3.140471  0  0  -0.607976  0  3.383621  0  0  -0.629158  0  3.377616  0  0  -0.600564  -0.593181  0  3.387746  0
O  O116  1  0.30674759  0.62653314  0.31280023  1  0  -0.654661  0  2.012772  0  0  -0.574407  0  2.263981  0  0  -0.603041  0  2.249464  0  0  -0.332807  -0.554396  0  2.273268  0
O  O117  1  0.67982529  0.37318891  0.18705652  1  0  -0.653783  0  2.012278  0  0  -0.574  0  2.264063  0  0  -0.602673  0  2.249586  0  0  -0.332682  -0.553997  0  2.273347  0
O  O118  1  0.69325718  0.37346701  0.68719931  1  0  -0.654699  0  2.012904  0  0  -0.574403  0  2.264062  0  0  -0.603042  0  2.249556  0  0  -0.332786  -0.554392  0  2.273348  0
O  O119  1  0.32018351  0.62681414  0.81294249  1  0  -0.65378  0  2.012253  0  0  -0.573965  0  2.264042  0  0  -0.602642  0  2.249566  0  0  -0.332665  -0.553959  0  2.273326  0
O  O120  1  0.42029418  0.66184789  0.44859143  1  0  -0.614875  0  1.940256  0  0  -0.565707  0  2.166338  0  0  -0.589653  0  2.157419  0  0  -0.318475  -0.548914  0  2.17182  0
O  O121  1  0.75787235  0.33799985  0.05123200  1  0  -0.615049  0  1.940027  0  0  -0.565555  0  2.165836  0  0  -0.58955  0  2.157029  0  0  -0.318703  -0.548726  0  2.171224  0
O  O122  1  0.57970377  0.33815153  0.55140855  1  0  -0.614886  0  1.940196  0  0  -0.56574  0  2.166309  0  0  -0.589687  0  2.15739  0  0  -0.318499  -0.548947  0  2.171789  0
O  O123  1  0.24212784  0.66199887  0.94876594  1  0  -0.61504  0  1.940001  0  0  -0.565544  0  2.165836  0  0  -0.589545  0  2.157043  0  0  -0.318676  -0.548715  0  2.171226  0
O  O124  1  0.73943239  0.58884331  0.66456731  1  0  -0.625257  0  1.94308  0  0  -0.57781  0  2.167927  0  0  -0.600757  0  2.158819  0  0  -0.322068  -0.56176  0  2.173664  0
O  O125  1  0.15062644  0.41138396  0.83532851  1  0  -0.627103  0  1.944552  0  0  -0.579768  0  2.169343  0  0  -0.60273  0  2.160221  0  0  -0.322701  -0.563718  0  2.175102  0
O  O126  1  0.26056521  0.41115539  0.33543188  1  0  -0.625289  0  1.943083  0  0  -0.577838  0  2.167937  0  0  -0.600794  0  2.15885  0  0  -0.322084  -0.561789  0  2.173671  0
O  O127  1  0.84938252  0.58862199  0.16467120  1  0  -0.627091  0  1.944507  0  0  -0.579757  0  2.169297  0  0  -0.602719  0  2.160173  0  0  -0.322684  -0.563706  0  2.175051  0
O  O128  1  0.04114178  0.64712761  0.68469912  1  0  -0.660011  0  2.056914  0  0  -0.585909  0  2.329553  0  0  -0.61442  0  2.313331  0  0  -0.342292  -0.565919  0  2.339959  0
O  O129  1  0.39402002  0.35303210  0.81539554  1  0  -0.660966  0  2.056958  0  0  -0.586991  0  2.329389  0  0  -0.615501  0  2.313163  0  0  -0.342814  -0.566997  0  2.339789  0
O  O130  1  0.95885691  0.35287327  0.31529998  1  0  -0.660019  0  2.056905  0  0  -0.585915  0  2.329548  0  0  -0.614425  0  2.313326  0  0  -0.342303  -0.565927  0  2.339948  0
O  O131  1  0.60598860  0.64697315  0.18460152  1  0  -0.66103  0  2.056911  0  0  -0.587023  0  2.329312  0  0  -0.615534  0  2.313093  0  0  -0.34288  -0.56703  0  2.339709  0
