# generated using pymatgen
data_Ag2H21C23(N2O)5
_symmetry_space_group_name_H-M   'P 1'
_cell_length_a   9.62527221
_cell_length_b   11.20504973
_cell_length_c   12.08820000
_cell_angle_alpha   81.92997766
_cell_angle_beta   81.97136782
_cell_angle_gamma   77.04858222
_symmetry_Int_Tables_number   1
_chemical_formula_structural   Ag2H21C23(N2O)5
_chemical_formula_sum   'Ag4 H42 C46 N20 O10'
_cell_volume   1250.04911490
_cell_formula_units_Z   2
loop_
 _symmetry_equiv_pos_site_id
 _symmetry_equiv_pos_as_xyz
  1  'x, y, z'
loop_
 _atom_site_type_symbol
 _atom_site_label
 _atom_site_symmetry_multiplicity
 _atom_site_fract_x
 _atom_site_fract_y
 _atom_site_fract_z
 _atom_site_occupancy
 _atom_site_hle17_bader_spin_density
 _atom_site_hle17_ddec_charge
 _atom_site_hle17_ddec_spin_density
 _atom_site_hle17_ddec_sum_bond_order
 _atom_site_hle17_magmom
 _atom_site_hse06_10hf_bader_spin_density
 _atom_site_hse06_10hf_ddec_charge
 _atom_site_hse06_10hf_ddec_spin_density
 _atom_site_hse06_10hf_ddec_sum_bond_order
 _atom_site_hse06_10hf_magmom
 _atom_site_hse06_bader_spin_density
 _atom_site_hse06_ddec_charge
 _atom_site_hse06_ddec_spin_density
 _atom_site_hse06_ddec_sum_bond_order
 _atom_site_hse06_magmom
 _atom_site_pbe_bader_charge
 _atom_site_pbe_bader_spin_density
 _atom_site_pbe_cm5_charge
 _atom_site_pbe_ddec_charge
 _atom_site_pbe_ddec_spin_density
 _atom_site_pbe_ddec_sum_bond_order
 _atom_site_pbe_magmom
Ag  Ag0  1  0.34984979  0.02072164  0.04616461  1  0  0.551642  0  1.457461  0  0  0.432914  0  1.902326  0  0  0.462888  0  1.853374  0  0.59005  0  0.434909  0.413701  0  1.934211  0
Ag  Ag1  1  0.65014886  0.97928191  0.95383566  1  0  0.551654  0  1.457483  0  0  0.432935  0  1.902361  0  0  0.462911  0  1.85341  0  0.58897  0  0.434936  0.413746  0  1.934203  0
Ag  Ag2  1  0.85418122  0.72925637  0.27399673  1  0  0.562128  0  1.379965  0  0  0.436516  0  1.799691  0  0  0.466949  0  1.753515  0  0.583604  0  0.457343  0.415558  0  1.831156  0
Ag  Ag3  1  0.14581855  0.27074257  0.72600484  1  0  0.562153  0  1.379961  0  0  0.436544  0  1.799684  0  0  0.466985  0  1.753509  0  0.583632  0  0.457348  0.415588  0  1.831152  0
H  H4  1  0.64301649  0.20642190  0.28479956  1  0  0.092656  0  0.975816  0  0  0.098297  0  1.046429  0  0  0.101605  0  1.044557  0  0.093331  0  0.100937  0.095627  0  1.048697  0
H  H5  1  0.35698560  0.79357611  0.71519856  1  0  0.092702  0  0.975744  0  0  0.098326  0  1.046373  0  0  0.101635  0  1.044499  0  0.093242  0  0.100934  0.095654  0  1.048648  0
H  H6  1  0.38744162  0.21829839  0.36431416  1  0  0.083235  0  0.984617  0  0  0.091387  0  1.047981  0  0  0.093421  0  1.048372  0  0.085148  0  0.093654  0.089657  0  1.048161  0
H  H7  1  0.61256002  0.78170147  0.63568543  1  0  0.083254  0  0.984606  0  0  0.091435  0  1.047942  0  0  0.093469  0  1.048333  0  0.085135  0  0.093658  0.089705  0  1.048122  0
H  H8  1  0.26738549  0.04792253  0.35172484  1  0  0.084034  0  0.962672  0  0  0.095576  0  1.022571  0  0  0.098175  0  1.02143  0  0.047429  0  0.099509  0.094235  0  1.022522  0
H  H9  1  0.73261555  0.95207548  0.64827588  1  0  0.084028  0  0.962671  0  0  0.095556  0  1.022583  0  0  0.098138  0  1.021462  0  0.04743  0  0.099514  0.094215  0  1.022533  0
H  H10  1  0.40408198  0.86242489  0.26062941  1  0  0.10331  0  0.941057  0  0  0.114117  0  0.996846  0  0  0.117456  0  0.99567  0  0.074646  0  0.101933  0.111524  0  0.998346  0
H  H11  1  0.59591862  0.13757497  0.73937195  1  0  0.1033  0  0.941101  0  0  0.114084  0  0.996911  0  0  0.117421  0  0.995738  0  0.07463  0  0.101927  0.111492  0  0.998409  0
H  H12  1  0.65556839  0.85192536  0.17985080  1  0  0.095282  0  1.005019  0  0  0.100432  0  1.079939  0  0  0.105031  0  1.074512  0  0.084135  0  0.090957  0.096693  0  1.084408  0
H  H13  1  0.34443242  0.14807358  0.82014900  1  0  0.095292  0  1.004986  0  0  0.100442  0  1.079905  0  0  0.10504  0  1.074481  0  0.084272  0  0.090967  0.096704  0  1.084373  0
H  H14  1  0.10414393  0.55901692  0.63863692  1  0  0.091991  0  0.972567  0  0  0.09836  0  1.044391  0  0  0.102149  0  1.041081  0  0.089358  0  0.101417  0.095383  0  1.047105  0
H  H15  1  0.89585329  0.44098386  0.36136304  1  0  0.092057  0  0.972503  0  0  0.098384  0  1.044377  0  0  0.102172  0  1.041067  0  0.089361  0  0.101429  0.095407  0  1.047091  0
H  H16  1  0.31811755  0.65254032  0.60960976  1  0  0.091939  0  0.953747  0  0  0.1022  0  1.01416  0  0  0.10532  0  1.012751  0  0.056421  0  0.099664  0.0992  0  1.016524  0
H  H17  1  0.68188222  0.34745862  0.39039016  1  0  0.091937  0  0.953753  0  0  0.102225  0  1.01414  0  0  0.105344  0  1.012731  0  0.056415  0  0.099669  0.099223  0  1.016506  0
H  H18  1  0.31856325  0.84898804  0.48497237  1  0  0.086971  0  0.964653  0  0  0.09748  0  1.026977  0  0  0.099522  0  1.027135  0  0.092241  0  0.099555  0.096128  0  1.02678  0
H  H19  1  0.68143652  0.15101090  0.51502589  1  0  0.086971  0  0.964597  0  0  0.097437  0  1.026978  0  0  0.09948  0  1.027134  0  0.092239  0  0.099526  0.096085  0  1.026781  0
H  H20  1  0.10060022  0.95236212  0.38987793  1  0  0.088943  0  0.953796  0  0  0.102263  0  1.008204  0  0  0.104547  0  1.008395  0  0.069254  0  0.100061  0.100371  0  1.008524  0
H  H21  1  0.89939910  0.04763866  0.61012180  1  0  0.08895  0  0.953819  0  0  0.102269  0  1.008226  0  0  0.104553  0  1.008413  0  0.069265  0  0.100066  0.100371  0  1.008554  0
H  H22  1  0.88784437  0.85875853  0.41871457  1  0  0.086059  0  0.982262  0  0  0.093928  0  1.050998  0  0  0.097084  0  1.048585  0  0.085614  0  0.094457  0.091665  0  1.052855  0
H  H23  1  0.11215345  0.14124409  0.58128591  1  0  0.086065  0  0.982245  0  0  0.093941  0  1.050981  0  0  0.097095  0  1.048569  0  0.08537  0  0.094459  0.091679  0  1.052835  0
H  H24  1  0.67694521  0.32553606  0.08468470  1  0  0.113603  0  0.963062  0  0  0.116954  0  1.037014  0  0  0.121205  0  1.034166  0  0.122036  0  0.105228  0.113709  0  1.03947  0
H  H25  1  0.32305449  0.67446748  0.91531545  1  0  0.113586  0  0.963039  0  0  0.116931  0  1.036995  0  0  0.121206  0  1.034124  0  0.122011  0  0.105221  0.113686  0  1.039449  0
H  H26  1  0.96792562  0.31310750  0.09981623  1  0  0.35873  0  0.892734  0  0  0.336177  0  0.960235  0  0  0.344601  0  0.952922  0  0.526595  0  0.30707  0.330252  0  0.965481  0
H  H27  1  0.03207415  0.68689143  0.90018452  1  0  0.358833  0  0.892591  0  0  0.33621  0  0.960199  0  0  0.344634  0  0.952888  0  0.526587  0  0.3071  0.330285  0  0.965445  0
H  H28  1  0.14846651  0.23608546  0.07387267  1  0  0.349982  0  0.899169  0  0  0.328227  0  0.967445  0  0  0.336813  0  0.959491  0  0.49244  0  0.303636  0.322434  0  0.972496  0
H  H29  1  0.85153431  0.76391347  0.92612796  1  0  0.349884  0  0.899327  0  0  0.32821  0  0.967461  0  0  0.336801  0  0.959496  0  0.492534  0  0.303629  0.322415  0  0.972516  0
H  H30  1  0.24204744  0.80050145  0.09487565  1  0  0.346838  0  0.933421  0  0  0.323477  0  1.001512  0  0  0.332554  0  0.993756  0  0.544502  0  0.296309  0.317115  0  1.00694  0
H  H31  1  0.75795442  0.19949748  0.90512486  1  0  0.346845  0  0.933429  0  0  0.323482  0  1.001524  0  0  0.33256  0  0.993766  0  0.544512  0  0.296299  0.317119  0  1.006953  0
H  H32  1  0.09752020  0.72580937  0.14553785  1  0  0.339502  0  0.919513  0  0  0.320435  0  0.985284  0  0  0.328326  0  0.978184  0  0.505143  0  0.294394  0.314908  0  0.990219  0
H  H33  1  0.90248167  0.27418957  0.85446266  1  0  0.339515  0  0.919531  0  0  0.320449  0  0.985299  0  0  0.32834  0  0.9782  0  0.505151  0  0.294402  0.314921  0  0.990235  0
H  H34  1  0.57748329  0.44809261  0.77613332  1  0  0.340487  0  0.878168  0  0  0.325968  0  0.93382  0  0  0.331906  0  0.93028  0  0.47787  0  0.318832  0.321734  0  0.936416  0
H  H35  1  0.42251670  0.55190540  0.22386752  1  0  0.340481  0  0.878197  0  0  0.325968  0  0.933838  0  0  0.331905  0  0.930299  0  0.477892  0  0.31883  0.321734  0  0.936433  0
H  H36  1  0.73943544  0.46361149  0.81747941  1  0  0.353643  0  0.881525  0  0  0.335941  0  0.941283  0  0  0.34308  0  0.935989  0  0.490608  0  0.316082  0.330837  0  0.945176  0
H  H37  1  0.26056411  0.53638837  0.18252042  1  0  0.353641  0  0.881513  0  0  0.335946  0  0.941264  0  0  0.343085  0  0.935971  0  0.490599  0  0.316078  0.330842  0  0.945157  0
H  H38  1  0.49830991  0.56597451  0.40855649  1  0  0.318282  0  0.949505  0  0  0.293779  0  1.024417  0  0  0.302706  0  1.017134  0  0.498976  0  0.292447  0.287702  0  1.02912  0
H  H39  1  0.50168986  0.43402442  0.59144342  1  0  0.318302  0  0.9495  0  0  0.293794  0  1.024417  0  0  0.302719  0  1.017139  0  0.498985  0  0.29246  0.287717  0  1.02912  0
H  H40  1  0.61351787  0.64360484  0.31373828  1  0  0.338914  0  0.935189  0  0  0.318798  0  1.002331  0  0  0.327293  0  0.994811  0  0.527946  0  0.293475  0.312808  0  1.007644  0
H  H41  1  0.38648168  0.35639501  0.68626237  1  0  0.338928  0  0.935171  0  0  0.318814  0  1.00231  0  0  0.32731  0  0.994789  0  0.527941  0  0.293477  0.312825  0  1.007623  0
H  H42  1  0.06738652  0.50580130  0.25058681  1  0  0.377925  0  0.943729  0  0  0.340654  0  1.02587  0  0  0.351488  0  1.010108  0  0.607798  0  0.276836  0.332961  0  1.03703  0
H  H43  1  0.93261302  0.49419855  0.74941384  1  0  0.377917  0  0.943758  0  0  0.340632  0  1.025906  0  0  0.351466  0  1.010145  0  0.607798  0  0.276811  0.332938  0  1.037067  0
H  H44  1  0.97237432  0.53436072  0.14690412  1  0  0.417079  0  0.893914  0  0  0.382593  0  0.962856  0  0  0.394566  0  0.94565  0  0.649586  0  0.277715  0.374305  0  0.974717  0
H  H45  1  0.02762568  0.46563729  0.85309672  1  0  0.417045  0  0.893974  0  0  0.382546  0  0.962934  0  0  0.39452  0  0.945728  0  0.64959  0  0.277682  0.374259  0  0.974794  0
C  C46  1  0.66784914  0.02760089  0.23088848  1  0  -0.020257  0  3.765883  0  0  0.001518  0  3.992897  0  0  -0.003073  0  4.014768  0  -0.044774  0  -0.011979  0.003664  0  3.979028  0
C  C47  1  0.33215190  0.97239712  0.76911224  1  0  -0.020208  0  3.76577  0  0  0.001484  0  3.992921  0  0  -0.003108  0  4.014791  0  -0.044859  0  -0.01196  0.003631  0  3.979049  0
C  C48  1  0.58945303  0.13153995  0.28102787  1  0  -0.068979  0  3.706306  0  0  -0.090736  0  3.948661  0  0  -0.091679  0  3.969116  0  -0.020977  0  -0.081968  -0.091579  0  3.937519  0
C  C49  1  0.41054547  0.86845990  0.71897124  1  0  -0.069035  0  3.706174  0  0  -0.090753  0  3.948566  0  0  -0.091696  0  3.969017  0  -0.020858  0  -0.081997  -0.091598  0  3.937428  0
C  C50  1  0.44696193  0.13771137  0.32503517  1  0  -0.051257  0  3.738321  0  0  -0.062272  0  3.983692  0  0  -0.064041  0  4.004295  0  -0.073094  0  -0.092304  -0.0616  0  3.971494  0
C  C51  1  0.55303972  0.86228848  0.67496441  1  0  -0.051308  0  3.738209  0  0  -0.062347  0  3.983566  0  0  -0.064117  0  4.004163  0  -0.0731  0  -0.092293  -0.061676  0  3.971369  0
C  C52  1  0.37962590  0.04127461  0.31825565  1  0  -0.056571  0  3.747007  0  0  -0.072394  0  3.996274  0  0  -0.072471  0  4.014946  0  -0.090513  0  -0.088277  -0.073381  0  3.98388  0
C  C53  1  0.62037365  0.95872525  0.68174334  1  0  -0.056482  0  3.746935  0  0  -0.072285  0  3.996193  0  0  -0.072349  0  4.014869  0  -0.0907  0  -0.088246  -0.073272  0  3.983801  0
C  C54  1  0.45553469  0.93821743  0.26666407  1  0  -0.083941  0  3.798713  0  0  -0.093129  0  4.050974  0  0  -0.095658  0  4.070357  0  0.027261  0  -0.102105  -0.091868  0  4.038544  0
C  C55  1  0.54446673  0.06178334  0.73333625  1  0  -0.083977  0  3.798691  0  0  -0.093145  0  4.050942  0  0  -0.095672  0  4.070321  0  0.027453  0  -0.102115  -0.091887  0  4.038517  0
C  C56  1  0.59928632  0.93135293  0.22307086  1  0  -0.136427  0  3.794283  0  0  -0.156233  0  4.049125  0  0  -0.156603  0  4.065093  0  -0.087693  0  -0.102449  -0.154403  0  4.038164  0
C  C57  1  0.40071367  0.06864509  0.77692915  1  0  -0.136458  0  3.79417  0  0  -0.156231  0  4.049042  0  0  -0.156601  0  4.06501  0  -0.087777  0  -0.102476  -0.154404  0  4.038091  0
C  C58  1  0.82052012  0.02303961  0.18744884  1  0  0.434225  0  3.814939  0  0  0.403855  0  4.080343  0  0  0.427549  0  4.089618  0  1.12779  0  0.245214  0.388657  0  4.072858  0
C  C59  1  0.17948092  0.97695841  0.81255023  1  0  0.434281  0  3.81484  0  0  0.403903  0  4.080301  0  0  0.427597  0  4.089572  0  1.127536  0  0.245226  0.388707  0  4.072812  0
C  C60  1  0.04866741  0.91305801  0.14110481  1  0  0.679385  0  3.836783  0  0  0.627829  0  4.113903  0  0  0.657184  0  4.120661  0  1.589227  0  0.341852  0.607974  0  4.108828  0
C  C61  1  0.95133341  0.08694092  0.85889499  1  0  0.679283  0  3.836808  0  0  0.627796  0  4.113844  0  0  0.657147  0  4.120601  0  1.589166  0  0.341804  0.607941  0  4.108771  0
C  C62  1  0.00138249  0.12518328  0.12276336  1  0  0.678831  0  3.84791  0  0  0.632144  0  4.124571  0  0  0.661395  0  4.129618  0  1.582381  0  0.346124  0.612902  0  4.119967  0
C  C63  1  0.99861728  0.87481566  0.87723573  1  0  0.678766  0  3.847903  0  0  0.632056  0  4.124628  0  0  0.661305  0  4.129675  0  1.582395  0  0.346095  0.612814  0  4.120027  0
C  C64  1  0.98359992  0.70002506  0.52727993  1  0  -0.027446  0  3.767081  0  0  -0.005043  0  3.994618  0  0  -0.011074  0  4.018296  0  -0.086203  0  -0.012962  -0.002105  0  3.979793  0
C  C65  1  0.01639940  0.29997572  0.47272146  1  0  -0.027399  0  3.767078  0  0  -0.005063  0  3.994686  0  0  -0.011093  0  4.018364  0  -0.086225  0  -0.012957  -0.002124  0  3.97986  0
C  C66  1  0.10382410  0.64479102  0.58369302  1  0  -0.066959  0  3.69896  0  0  -0.091988  0  3.945647  0  0  -0.091927  0  3.965474  0  -0.001303  0  -0.08503  -0.091191  0  3.932172  0
C  C67  1  0.89617500  0.35521068  0.41630826  1  0  -0.066978  0  3.698884  0  0  -0.091954  0  3.945592  0  0  -0.091894  0  3.965421  0  -0.001317  0  -0.085007  -0.091157  0  3.932118  0
C  C68  1  0.22383353  0.69786009  0.56761690  1  0  -0.059362  0  3.744389  0  0  -0.072915  0  3.996675  0  0  -0.075338  0  4.017023  0  -0.023818  0  -0.089391  -0.071095  0  3.982839  0
C  C69  1  0.77616474  0.30214069  0.43238212  1  0  -0.059453  0  3.744445  0  0  -0.073029  0  3.996708  0  0  -0.075453  0  4.017055  0  -0.023836  0  -0.089459  -0.071209  0  3.982872  0
C  C70  1  0.22429783  0.80789038  0.49707108  1  0  -0.05722  0  3.742765  0  0  -0.072603  0  3.990013  0  0  -0.072948  0  4.010972  0  -0.052776  0  -0.087179  -0.072998  0  3.975597  0
C  C71  1  0.77570149  0.19211039  0.50292782  1  0  -0.057103  0  3.742639  0  0  -0.072445  0  3.989875  0  0  -0.072788  0  4.010831  0  -0.052767  0  -0.087093  -0.072839  0  3.975457  0
C  C72  1  0.10322628  0.86529585  0.44341981  1  0  -0.065361  0  3.769987  0  0  -0.077853  0  4.017512  0  0  -0.081189  0  4.040154  0  -0.113888  0  -0.091683  -0.075556  0  4.003262  0
C  C73  1  0.89677432  0.13470400  0.55657990  1  0  -0.065403  0  3.769963  0  0  -0.077888  0  4.01747  0  0  -0.081222  0  4.040106  0  -0.113885  0  -0.091687  -0.075587  0  4.003223  0
C  C74  1  0.98341188  0.81197702  0.45851553  1  0  -0.10142  0  3.767418  0  0  -0.119926  0  4.012255  0  0  -0.120473  0  4.03178  0  -0.001252  0  -0.094204  -0.120507  0  4.000676  0
C  C75  1  0.01658744  0.18802376  0.54148419  1  0  -0.101474  0  3.767464  0  0  -0.119978  0  4.012327  0  0  -0.120525  0  4.031852  0  -0.000977  0  -0.09424  -0.120558  0  4.000747  0
C  C76  1  0.85695594  0.64283526  0.54211029  1  0  0.451455  0  3.791343  0  0  0.417319  0  4.057584  0  0  0.441105  0  4.067263  0  1.111523  0  0.257136  0.40206  0  4.049973  0
C  C77  1  0.14304210  0.35716644  0.45788946  1  0  0.451465  0  3.791328  0  0  0.417366  0  4.057542  0  0  0.441152  0  4.06722  0  1.111508  0  0.257195  0.402106  0  4.049932  0
C  C78  1  0.65561150  0.61138737  0.47761048  1  0  0.672842  0  3.846107  0  0  0.619909  0  4.129573  0  0  0.64905  0  4.134961  0  1.591163  0  0.348525  0.600662  0  4.125025  0
C  C79  1  0.34438677  0.38861341  0.52239019  1  0  0.672823  0  3.846224  0  0  0.619938  0  4.129607  0  0  0.649078  0  4.134993  0  1.591219  0  0.348521  0.60069  0  4.12506  0
C  C80  1  0.70518355  0.53617823  0.65668861  1  0  0.679705  0  3.853301  0  0  0.629114  0  4.133783  0  0  0.658313  0  4.13691  0  1.598659  0  0.353842  0.609221  0  4.130327  0
C  C81  1  0.29481600  0.46382163  0.34331204  1  0  0.67976  0  3.85318  0  0  0.629194  0  4.133631  0  0  0.658382  0  4.136771  0  1.599073  0  0.353878  0.6093  0  4.130176  0
C  C82  1  0.73117450  0.54775057  0.10936030  1  0  0.661703  0  3.906443  0  0  0.608059  0  4.206104  0  0  0.641702  0  4.197969  0  1.608934  0  0.208062  0.585551  0  4.210636  0
C  C83  1  0.26882692  0.45225021  0.89064084  1  0  0.661732  0  3.906384  0  0  0.608054  0  4.20607  0  0  0.641697  0  4.197936  0  1.608908  0  0.208038  0.585547  0  4.210601  0
C  C84  1  0.61546211  0.52314138  0.04849825  1  0  -0.072229  0  3.738679  0  0  -0.061679  0  3.981026  0  0  -0.064172  0  3.996898  0  -0.087922  0  -0.016273  -0.060517  0  3.970858  0
C  C85  1  0.38453908  0.47686032  0.95150115  1  0  -0.072286  0  3.73888  0  0  -0.061713  0  3.981174  0  0  -0.064205  0  3.997053  0  -0.08792  0  -0.016245  -0.060552  0  3.971005  0
C  C86  1  0.59981057  0.40234704  0.04721771  1  0  -0.103599  0  3.708759  0  0  -0.133109  0  3.959753  0  0  -0.133251  0  3.976185  0  -0.016688  0  -0.087802  -0.132987  0  3.94903  0
C  C87  1  0.40018853  0.59765466  0.95278192  1  0  -0.103574  0  3.708672  0  0  -0.133063  0  3.959647  0  0  -0.133228  0  3.976067  0  -0.016697  0  -0.087793  -0.13294  0  3.948925  0
C  C88  1  0.51511858  0.62079750  0.99979313  1  0  -0.061526  0  3.74786  0  0  -0.048352  0  3.986955  0  0  -0.050801  0  4.003195  0  -0.037433  0  -0.013972  -0.046872  0  3.976258  0
C  C89  1  0.48488156  0.37920420  0.00020638  1  0  -0.06164  0  3.748114  0  0  -0.04844  0  3.987137  0  0  -0.050891  0  4.003372  0  -0.037501  0  -0.014017  -0.046956  0  3.976431  0
C  C90  1  0.52631676  0.75164436  0.99747878  1  0  0.674272  0  3.900999  0  0  0.615024  0  4.194448  0  0  0.650337  0  4.187706  0  1.610124  0  0.213246  0.591193  0  4.198257  0
C  C91  1  0.47368548  0.24835734  0.00252051  1  0  0.674333  0  3.901329  0  0  0.615102  0  4.194729  0  0  0.650419  0  4.187987  0  1.610308  0  0.213285  0.591271  0  4.198538  0
N  N92  1  0.90927508  0.91138981  0.18332227  1  0  -0.586481  0  3.138128  0  0  -0.511885  0  3.423791  0  0  -0.542019  0  3.432328  0  -1.22306  0  -0.362416  -0.49096  0  3.416618  0
N  N93  1  0.09072573  0.08860912  0.81667753  1  0  -0.586539  0  3.138185  0  0  -0.511968  0  3.423873  0  0  -0.542102  0  3.43241  0  -1.222991  0  -0.362456  -0.491042  0  3.416699  0
N  N94  1  0.09952471  0.01812072  0.11219874  1  0  -0.622531  0  3.014209  0  0  -0.553188  0  3.298432  0  0  -0.581917  0  3.303819  0  -1.207473  0  -0.359756  -0.532839  0  3.292591  0
N  N95  1  0.90047611  0.98187822  0.88780271  1  0  -0.622487  0  3.014164  0  0  -0.553148  0  3.298354  0  0  -0.581893  0  3.303781  0  -1.207375  0  -0.359708  -0.532797  0  3.2925  0
N  N96  1  0.85952483  0.13082475  0.15749137  1  0  -0.545551  0  2.949423  0  0  -0.507164  0  3.219849  0  0  -0.530306  0  3.227694  0  -1.206411  0  -0.339483  -0.49182  0  3.214206  0
N  N97  1  0.14047598  0.86917419  0.84250843  1  0  -0.545552  0  2.949432  0  0  -0.507138  0  3.219864  0  0  -0.530281  0  3.227714  0  -1.206178  0  -0.339467  -0.491795  0  3.21422  0
N  N98  1  0.04327870  0.23257579  0.09702244  1  0  -0.669941  0  3.039847  0  0  -0.625196  0  3.268822  0  0  -0.647267  0  3.261796  0  -1.299663  0  -0.554304  -0.609902  0  3.272447  0
N  N99  1  0.95672107  0.76742315  0.90297830  1  0  -0.669919  0  3.039862  0  0  -0.62518  0  3.2688  0  0  -0.647251  0  3.261773  0  -1.29978  0  -0.55434  -0.609886  0  3.272425  0
N  N100  1  0.13743382  0.80463877  0.12971612  1  0  -0.687027  0  3.084992  0  0  -0.6466  0  3.322315  0  0  -0.669258  0  3.317044  0  -1.348305  0  -0.572485  -0.630706  0  3.325592  0
N  N101  1  0.86256722  0.19535924  0.87028461  1  0  -0.686987  0  3.085042  0  0  -0.646569  0  3.322318  0  0  -0.669227  0  3.317048  0  -1.348386  0  -0.572451  -0.630676  0  3.325595  0
N  N102  1  0.77621831  0.66044077  0.45614758  1  0  -0.578335  0  3.136863  0  0  -0.506884  0  3.429089  0  0  -0.53578  0  3.436199  0  -1.228705  0  -0.356227  -0.488476  0  3.423628  0
N  N103  1  0.22377997  0.33956001  0.54385227  1  0  -0.578395  0  3.136898  0  0  -0.506962  0  3.429114  0  0  -0.53586  0  3.436225  0  -1.22873  0  -0.356254  -0.488556  0  3.423659  0
N  N104  1  0.61425966  0.55343996  0.57852065  1  0  -0.615679  0  2.977889  0  0  -0.557794  0  3.234137  0  0  -0.582229  0  3.239824  0  -1.252837  0  -0.341559  -0.539643  0  3.229694  0
N  N105  1  0.38573906  0.44655897  0.42148021  1  0  -0.615666  0  2.97794  0  0  -0.557808  0  3.234178  0  0  -0.58224  0  3.239865  0  -1.25346  0  -0.341548  -0.539657  0  3.229736  0
N  N106  1  0.82952898  0.57818740  0.64146192  1  0  -0.560842  0  3.01365  0  0  -0.506361  0  3.269934  0  0  -0.530362  0  3.276438  0  -1.2146  0  -0.332495  -0.488421  0  3.263897  0
N  N107  1  0.17046929  0.42181338  0.35853792  1  0  -0.560835  0  3.013664  0  0  -0.506369  0  3.269925  0  0  -0.530368  0  3.276436  0  -1.214437  0  -0.332533  -0.488429  0  3.263888  0
N  N108  1  0.67258307  0.47469258  0.75685432  1  0  -0.669168  0  3.062488  0  0  -0.628124  0  3.286307  0  0  -0.650139  0  3.284327  0  -1.278561  0  -0.559996  -0.612891  0  3.287367  0
N  N109  1  0.32741670  0.52530635  0.24314477  1  0  -0.669188  0  3.06242  0  0  -0.628164  0  3.28624  0  0  -0.650175  0  3.284263  0  -1.278561  0  -0.560017  -0.612931  0  3.287302  0
N  N110  1  0.57302312  0.62157353  0.39556883  1  0  -0.677591  0  3.078512  0  0  -0.637558  0  3.318079  0  0  -0.660831  0  3.313268  0  -1.319208  0  -0.568116  -0.621886  0  3.320029  0
N  N111  1  0.42697665  0.37842540  0.60443108  1  0  -0.677642  0  3.078538  0  0  -0.637624  0  3.318079  0  0  -0.660897  0  3.313268  0  -1.319213  0  -0.568155  -0.621952  0  3.320029  0
O  O112  1  0.85515832  0.47926769  0.09714235  1  0  -0.612409  0  1.969297  0  0  -0.551548  0  2.181909  0  0  -0.576361  0  2.172056  0  -1.183892  0  -0.309642  -0.534768  0  2.188084  0
O  O113  1  0.14484227  0.52073216  0.90285901  1  0  -0.612417  0  1.969326  0  0  -0.55151  0  2.181931  0  0  -0.57632  0  2.172077  0  -1.183893  0  -0.309605  -0.534729  0  2.188102  0
O  O114  1  0.03788713  0.56920953  0.18664397  1  0  -0.843046  0  1.935571  0  0  -0.774059  0  2.139073  0  0  -0.796246  0  2.103334  0  -1.264867  0  -0.589521  -0.758249  0  2.163857  0
O  O115  1  0.96211474  0.43078940  0.81335572  1  0  -0.843006  0  1.935634  0  0  -0.774006  0  2.139147  0  0  -0.796194  0  2.103408  0  -1.26486  0  -0.589469  -0.758196  0  2.163931  0
O  O116  1  0.69255734  0.63622052  0.17051675  1  0  -0.66598  0  2.015882  0  0  -0.598565  0  2.260265  0  0  -0.626235  0  2.249198  0  -1.183483  0  -0.332973  -0.578668  0  2.26705  0
O  O117  1  0.30744430  0.36377934  0.82948367  1  0  -0.665974  0  2.015729  0  0  -0.598565  0  2.260134  0  0  -0.626241  0  2.249078  0  -1.183456  0  -0.332984  -0.578668  0  2.266921  0
O  O118  1  0.41438337  0.82042032  0.04185777  1  0  -0.631958  0  2.181582  0  0  -0.548354  0  2.447053  0  0  -0.58044  0  2.436914  0  -1.157369  0  -0.318826  -0.526401  0  2.453406  0
O  O119  1  0.58561633  0.17958322  0.95813990  1  0  -0.631885  0  2.181567  0  0  -0.548317  0  2.447068  0  0  -0.580391  0  2.436898  0  -1.157366  0  -0.318797  -0.526365  0  2.453421  0
O  O120  1  0.63982367  0.78484801  0.95041871  1  0  -0.606468  0  2.104642  0  0  -0.529733  0  2.361804  0  0  -0.561229  0  2.352754  0  -1.134454  0  -0.315039  -0.508113  0  2.366749  0
O  O121  1  0.36017790  0.21515645  0.04958111  1  0  -0.606546  0  2.104915  0  0  -0.52979  0  2.362031  0  0  -0.561286  0  2.352981  0  -1.134592  0  -0.315102  -0.50817  0  2.366984  0
