# generated using pymatgen
data_CdH6C8SN3ClO3
_symmetry_space_group_name_H-M   'P 1'
_cell_length_a   6.64062474
_cell_length_b   7.78552667
_cell_length_c   10.49263685
_cell_angle_alpha   90.00004006
_cell_angle_beta   99.70043189
_cell_angle_gamma   90.00001086
_symmetry_Int_Tables_number   1
_chemical_formula_structural   CdH6C8SN3ClO3
_chemical_formula_sum   'Cd2 H12 C16 S2 N6 Cl2 O6'
_cell_volume   534.72107727
_cell_formula_units_Z   2
loop_
 _symmetry_equiv_pos_site_id
 _symmetry_equiv_pos_as_xyz
  1  'x, y, z'
loop_
 _atom_site_type_symbol
 _atom_site_label
 _atom_site_symmetry_multiplicity
 _atom_site_fract_x
 _atom_site_fract_y
 _atom_site_fract_z
 _atom_site_occupancy
 _atom_site_hle17_bader_spin_density
 _atom_site_hle17_ddec_charge
 _atom_site_hle17_ddec_spin_density
 _atom_site_hle17_ddec_sum_bond_order
 _atom_site_hle17_magmom
 _atom_site_hse06_10hf_bader_spin_density
 _atom_site_hse06_10hf_ddec_charge
 _atom_site_hse06_10hf_ddec_spin_density
 _atom_site_hse06_10hf_ddec_sum_bond_order
 _atom_site_hse06_10hf_magmom
 _atom_site_hse06_bader_spin_density
 _atom_site_hse06_ddec_charge
 _atom_site_hse06_ddec_spin_density
 _atom_site_hse06_ddec_sum_bond_order
 _atom_site_hse06_magmom
 _atom_site_pbe_bader_spin_density
 _atom_site_pbe_cm5_charge
 _atom_site_pbe_ddec_charge
 _atom_site_pbe_ddec_spin_density
 _atom_site_pbe_ddec_sum_bond_order
 _atom_site_pbe_magmom
Cd  Cd0  1  0.98703915  0.59912975  0.00644383  1  0  1.076582  0  1.864639  0  0  0.901324  0  2.339131  0  0  0.949183  0  2.291773  0  0  0.701928  0.867305  0  2.371173  0
Cd  Cd1  1  0.01296047  0.09912928  0.99355672  1  0  1.076585  0  1.864646  0  0  0.901322  0  2.339157  0  0  0.949181  0  2.291798  0  0  0.701924  0.867299  0  2.37121  0
H  H2  1  0.18199151  0.92446306  0.46831679  1  0  0.09873  0  0.95876  0  0  0.107534  0  1.022617  0  0  0.110139  0  1.021983  0  0  0.103396  0.105471  0  1.02334  0
H  H3  1  0.81800976  0.42446486  0.53168314  1  0  0.098723  0  0.958787  0  0  0.107535  0  1.022633  0  0  0.11014  0  1.021999  0  0  0.103401  0.105469  0  1.023359  0
H  H4  1  0.73732219  0.77303094  0.70144908  1  0  0.100999  0  0.974426  0  0  0.106256  0  1.046621  0  0  0.109146  0  1.044998  0  0  0.102044  0.104656  0  1.047042  0
H  H5  1  0.26267750  0.27303243  0.29855061  1  0  0.100999  0  0.974422  0  0  0.106255  0  1.046618  0  0  0.109143  0  1.044997  0  0  0.102042  0.104652  0  1.047036  0
H  H6  1  0.46998840  0.76113697  0.50561059  1  0  0.117372  0  0.95999  0  0  0.124844  0  1.024282  0  0  0.128364  0  1.022223  0  0  0.108309  0.122213  0  1.025972  0
H  H7  1  0.53001281  0.26113611  0.49438830  1  0  0.117369  0  0.959968  0  0  0.124838  0  1.024267  0  0  0.12836  0  1.022206  0  0  0.10831  0.122207  0  1.025966  0
H  H8  1  0.91123737  0.91446370  0.26978090  1  0  0.12364  0  0.952831  0  0  0.128715  0  1.020432  0  0  0.132215  0  1.018219  0  0  0.106431  0.126481  0  1.021683  0
H  H9  1  0.08876390  0.41446300  0.73021904  1  0  0.12363  0  0.95283  0  0  0.128717  0  1.020414  0  0  0.132217  0  1.018203  0  0  0.106439  0.126479  0  1.021665  0
H  H10  1  0.49345797  0.11045638  0.21766665  1  0  0.128905  0  0.953362  0  0  0.133769  0  1.020852  0  0  0.137012  0  1.016993  0  0  0.14232  0.131299  0  1.023677  0
H  H11  1  0.50654166  0.61045494  0.78233295  1  0  0.128893  0  0.953341  0  0  0.133757  0  1.020834  0  0  0.137001  0  1.016974  0  0  0.142315  0.131283  0  1.023658  0
H  H12  1  0.43254624  0.57015297  0.24742893  1  0  0.129815  0  0.946746  0  0  0.134668  0  1.014674  0  0  0.13771  0  1.011135  0  0  0.142465  0.132413  0  1.017187  0
H  H13  1  0.56745490  0.07015108  0.75257177  1  0  0.129873  0  0.946708  0  0  0.134683  0  1.014697  0  0  0.137725  0  1.011158  0  0  0.142485  0.13243  0  1.017215  0
C  C14  1  0.97513931  0.84641195  0.59520298  1  0  -0.115927  0  3.738998  0  0  -0.087318  0  3.97652  0  0  -0.094373  0  3.99956  0  0  -0.016534  -0.082699  0  3.961243  0
C  C15  1  0.02486040  0.34641349  0.40479675  1  0  -0.115935  0  3.738983  0  0  -0.087311  0  3.976482  0  0  -0.09437  0  3.999524  0  0  -0.016526  -0.082697  0  3.961204  0
C  C16  1  0.02614206  0.88723628  0.47501372  1  0  -0.051218  0  3.731214  0  0  -0.074034  0  3.976708  0  0  -0.07448  0  3.998049  0  0  -0.082445  -0.073491  0  3.96236  0
C  C17  1  0.97385767  0.38723681  0.52498603  1  0  -0.051201  0  3.731243  0  0  -0.07403  0  3.976732  0  0  -0.074476  0  3.998073  0  0  -0.08245  -0.073489  0  3.962384  0
C  C18  1  0.77594286  0.80037395  0.60680166  1  0  -0.051302  0  3.751823  0  0  -0.074125  0  3.997506  0  0  -0.074473  0  4.018673  0  0  -0.085371  -0.073969  0  3.983033  0
C  C19  1  0.22405684  0.30037552  0.39319805  1  0  -0.051319  0  3.751808  0  0  -0.074141  0  3.997481  0  0  -0.074489  0  4.018648  0  0  -0.085383  -0.073975  0  3.983  0
C  C20  1  0.62620969  0.79443594  0.49692157  1  0  -0.136084  0  3.71713  0  0  -0.157589  0  3.96968  0  0  -0.160608  0  3.988428  0  0  -0.085333  -0.155637  0  3.957496  0
C  C21  1  0.37379000  0.29443635  0.50307813  1  0  -0.136046  0  3.717094  0  0  -0.157556  0  3.969631  0  0  -0.160576  0  3.988379  0  0  -0.085324  -0.155616  0  3.957456  0
C  C22  1  0.67799190  0.83708297  0.37730646  1  0  0.181746  0  3.74685  0  0  0.174381  0  3.993787  0  0  0.17968  0  4.015392  0  0  0.094971  0.170638  0  3.979434  0
C  C23  1  0.32200781  0.33708220  0.62269327  1  0  0.181714  0  3.746913  0  0  0.174371  0  3.993819  0  0  0.17967  0  4.015424  0  0  0.094959  0.170623  0  3.979466  0
C  C24  1  0.87643634  0.88238242  0.36452079  1  0  -0.099578  0  3.678454  0  0  -0.122866  0  3.934458  0  0  -0.124555  0  3.951783  0  0  -0.078535  -0.121822  0  3.922585  0
C  C25  1  0.12356338  0.38238163  0.63547896  1  0  -0.099553  0  3.678463  0  0  -0.122856  0  3.934468  0  0  -0.124546  0  3.951793  0  0  -0.078536  -0.121798  0  3.922581  0
C  C26  1  0.43194579  0.98104359  0.20236176  1  0  0.193533  0  3.575266  0  0  0.128665  0  3.844337  0  0  0.142683  0  3.855179  0  0  0.17212  0.119435  0  3.837018  0
C  C27  1  0.56805398  0.48104302  0.79763900  1  0  0.193568  0  3.575221  0  0  0.128696  0  3.844301  0  0  0.142713  0  3.855144  0  0  0.172131  0.119471  0  3.836975  0
C  C28  1  0.39857875  0.70288129  0.21911457  1  0  0.195222  0  3.574985  0  0  0.130226  0  3.840936  0  0  0.144537  0  3.851315  0  0  0.172783  0.120849  0  3.833969  0
C  C29  1  0.60142091  0.20287943  0.78088508  1  0  0.195155  0  3.575018  0  0  0.130188  0  3.840981  0  0  0.144499  0  3.851361  0  0  0.17273  0.120801  0  3.834028  0
S  S30  1  0.16157884  0.85629054  0.73906215  1  0  1.325092  0  5.629513  0  0  1.22367  0  6.150486  0  0  1.27401  0  6.123929  0  0  0.513346  1.188864  0  6.167802  0
S  S31  1  0.83842087  0.35629208  0.26093758  1  0  1.32505  0  5.629479  0  0  1.223628  0  6.150441  0  0  1.27396  0  6.123891  0  0  0.51334  1.188826  0  6.167755  0
N  N32  1  0.51684240  0.83924846  0.26732030  1  0  -0.114385  0  3.542781  0  0  -0.023747  0  3.761857  0  0  -0.040578  0  3.783782  0  0  -0.20852  -0.012686  0  3.746888  0
N  N33  1  0.48315884  0.33924654  0.73267864  1  0  -0.114409  0  3.542846  0  0  -0.023773  0  3.761908  0  0  -0.040606  0  3.783834  0  0  -0.208528  -0.012706  0  3.746934  0
N  N34  1  0.26775806  0.93362735  0.12076097  1  0  -0.259204  0  3.166513  0  0  -0.200509  0  3.45185  0  0  -0.216927  0  3.470029  0  0  -0.237396  -0.189427  0  3.439509  0
N  N35  1  0.73224016  0.43362689  0.87924055  1  0  -0.259192  0  3.166478  0  0  -0.200496  0  3.451822  0  0  -0.216912  0  3.469999  0  0  -0.237387  -0.189418  0  3.439481  0
N  N36  1  0.24776400  0.75891085  0.13092067  1  0  -0.252816  0  3.18105  0  0  -0.19267  0  3.462662  0  0  -0.208924  0  3.48115  0  0  -0.237578  -0.181878  0  3.450152  0
N  N37  1  0.75223568  0.25891038  0.86907996  1  0  -0.252795  0  3.180983  0  0  -0.192655  0  3.462586  0  0  -0.208907  0  3.481073  0  0  -0.237553  -0.181858  0  3.450079  0
Cl  Cl38  1  0.25672541  0.35698937  0.01701548  1  0  -0.533412  0  0.975902  0  0  -0.469918  0  1.265013  0  0  -0.489134  0  1.242735  0  0  -0.2845  -0.455886  0  1.279253  0
Cl  Cl39  1  0.74327431  0.85698943  0.98298426  1  0  -0.533393  0  0.975886  0  0  -0.469883  0  1.264972  0  0  -0.489104  0  1.242703  0  0  -0.284491  -0.455851  0  1.279216  0
O  O40  1  0.36101123  0.84871237  0.69773166  1  0  -0.662229  0  1.983914  0  0  -0.610726  0  2.239541  0  0  -0.632307  0  2.225921  0  0  -0.335387  -0.595486  0  2.248283  0
O  O41  1  0.63898849  0.34871263  0.30226808  1  0  -0.662194  0  1.983859  0  0  -0.610698  0  2.239489  0  0  -0.632283  0  2.225878  0  0  -0.33538  -0.595464  0  2.248237  0
O  O42  1  0.12089935  0.70692752  0.81692992  1  0  -0.705236  0  2.06367  0  0  -0.648323  0  2.350053  0  0  -0.671776  0  2.333783  0  0  -0.35341  -0.631773  0  2.360565  0
O  O43  1  0.87910031  0.20692771  0.18306973  1  0  -0.705234  0  2.063638  0  0  -0.648327  0  2.350026  0  0  -0.671773  0  2.333756  0  0  -0.353421  -0.631775  0  2.360538  0
O  O44  1  0.12494070  0.02246001  0.79928015  1  0  -0.690272  0  2.044966  0  0  -0.632251  0  2.327835  0  0  -0.656564  0  2.312405  0  0  -0.355104  -0.614887  0  2.337629  0
O  O45  1  0.87505737  0.52246065  0.20072019  1  0  -0.690259  0  2.045023  0  0  -0.632242  0  2.327892  0  0  -0.656548  0  2.312462  0  0  -0.355099  -0.614875  0  2.33768  0
