# generated using pymatgen
data_CuH7C3SN3Cl2
_symmetry_space_group_name_H-M   'P 1'
_cell_length_a   8.03447944
_cell_length_b   7.66220656
_cell_length_c   13.32224516
_cell_angle_alpha   89.99998518
_cell_angle_beta   90.00057641
_cell_angle_gamma   114.16541921
_symmetry_Int_Tables_number   1
_chemical_formula_structural   CuH7C3SN3Cl2
_chemical_formula_sum   'Cu4 H28 C12 S4 N12 Cl8'
_cell_volume   748.27073406
_cell_formula_units_Z   4
loop_
 _symmetry_equiv_pos_site_id
 _symmetry_equiv_pos_as_xyz
  1  'x, y, z'
loop_
 _atom_site_type_symbol
 _atom_site_label
 _atom_site_symmetry_multiplicity
 _atom_site_fract_x
 _atom_site_fract_y
 _atom_site_fract_z
 _atom_site_occupancy
 _atom_site_hle17_ddec_charge
 _atom_site_hle17_ddec_spin_density
 _atom_site_hle17_ddec_sum_bond_order
 _atom_site_hle17_magmom
 _atom_site_hse06_10hf_ddec_charge
 _atom_site_hse06_10hf_ddec_spin_density
 _atom_site_hse06_10hf_ddec_sum_bond_order
 _atom_site_hse06_10hf_magmom
 _atom_site_hse06_ddec_charge
 _atom_site_hse06_ddec_spin_density
 _atom_site_hse06_ddec_sum_bond_order
 _atom_site_hse06_magmom
 _atom_site_pbe_cm5_charge
 _atom_site_pbe_ddec_charge
 _atom_site_pbe_ddec_spin_density
 _atom_site_pbe_ddec_sum_bond_order
 _atom_site_pbe_magmom
Cu  Cu0  1  0.14021159  0.43072513  0.73529678  1  0.729687  -0.633965  1.924567  -0.441  0.703805  -0.735415  2.340597  -0.558  0.790848  -0.817263  2.266613  -0.64  0.592407  0.653537  -0.666069  2.387752  -0.498
Cu  Cu1  1  0.35978540  0.56927692  0.23529689  1  0.729906  0.633992  1.92448  0.441  0.70405  0.73542  2.340513  0.558  0.791074  0.817273  2.266499  0.64  0.592466  0.653811  0.666082  2.387549  0.498
Cu  Cu2  1  0.86002332  0.56953584  0.26471998  1  0.729727  0.633724  1.924637  0.441  0.703924  0.735088  2.340617  0.558  0.790835  0.816879  2.266773  0.64  0.592337  0.653644  0.665836  2.387731  0.498
Cu  Cu3  1  0.63994791  0.43046738  0.76472663  1  0.729639  -0.633682  1.924587  -0.441  0.703747  -0.735061  2.340682  -0.558  0.790751  -0.81686  2.266773  -0.64  0.592351  0.65352  -0.665802  2.387808  -0.498
H  H4  1  0.70416829  0.10612930  0.74302866  1  0.062182  0.00026  0.945825  0.0  0.067682  0.000125  1.027239  0.0  0.067481  0.00017  1.026125  0.0  0.088962  0.067176  7.2e-05  1.028767  0.0
H  H5  1  0.79579341  0.89403602  0.24311519  1  0.062202  -0.000259  0.945878  0.0  0.06751  -0.000124  1.027527  0.0  0.067309  -0.000169  1.026408  0.0  0.088903  0.067008  -7.1e-05  1.029031  0.0
H  H6  1  0.29620224  0.89411333  0.25698886  1  0.062166  -0.000262  0.946537  0.0  0.06784  -0.000123  1.027769  0.0  0.067583  -0.000169  1.026719  0.0  0.088857  0.067364  -7e-05  1.029252  0.0
H  H7  1  0.20374548  0.10594967  0.75700291  1  0.062153  0.000263  0.946529  0.0  0.067844  0.000123  1.027714  0.0  0.067589  0.000169  1.026663  0.0  0.088925  0.067378  7e-05  1.029209  0.0
H  H8  1  0.82800573  0.96048525  0.73940775  1  0.067488  -4.4e-05  0.94685  0.0  0.08197  -0.00017  1.011281  0.0  0.082652  -0.000167  1.01073  0.0  0.087088  0.081395  -0.000161  1.011652  0.0
H  H9  1  0.67186802  0.03957548  0.23934395  1  0.067484  4.5e-05  0.946798  0.0  0.081927  0.000169  1.011229  0.0  0.082615  0.000167  1.010673  0.0  0.087001  0.081333  0.00016  1.011617  0.0
H  H10  1  0.17235345  0.03973889  0.26054672  1  0.067686  4.3e-05  0.946864  0.0  0.082184  0.00017  1.011298  0.0  0.082871  0.000168  1.01073  0.0  0.08726  0.081597  0.000161  1.011671  0.0
H  H11  1  0.32756564  0.96027866  0.76051968  1  0.067675  -4.1e-05  0.946796  0.0  0.082083  -0.00017  1.011346  0.0  0.082766  -0.000168  1.010783  0.0  0.087138  0.081501  -0.000162  1.011734  0.0
H  H12  1  0.54415313  0.95743739  0.59729715  1  0.087428  0.000143  0.971626  0.0  0.096754  4.8e-05  1.042712  0.0  0.098422  3.7e-05  1.042089  0.0  0.082171  0.095549  6.5e-05  1.043202  0.0
H  H13  1  0.95586321  0.04244277  0.09734028  1  0.087603  -0.000146  0.97156  0.0  0.096997  -4.8e-05  1.04255  0.0  0.098671  -3.7e-05  1.041924  0.0  0.082293  0.095786  -6.5e-05  1.04303  0.0
H  H14  1  0.45610026  0.04292289  0.40275340  1  0.087472  -0.000142  0.971589  0.0  0.09704  -4.9e-05  1.042407  0.0  0.098695  -3.7e-05  1.041777  0.0  0.082223  0.095815  -6.6e-05  1.042931  0.0
H  H15  1  0.04386003  0.95707756  0.90275980  1  0.087238  0.000138  0.971733  0.0  0.096813  4.8e-05  1.042549  0.0  0.098466  3.7e-05  1.041923  0.0  0.082123  0.095598  6.5e-05  1.04307  0.0
H  H16  1  0.65963404  0.80067797  0.60039765  1  0.095784  0.000113  0.956317  -0.001  0.105462  0.000236  1.02546  0.0  0.106908  0.000249  1.025056  0.0  0.084435  0.104326  0.000202  1.026044  0.0
H  H17  1  0.84052364  0.19934576  0.10040916  1  0.096022  -0.000119  0.956209  0.001  0.105589  -0.000236  1.025459  0.0  0.107037  -0.000249  1.025057  0.0  0.084495  0.104443  -0.000202  1.026034  0.0
H  H18  1  0.34051033  0.19955665  0.39958308  1  0.095889  -0.000116  0.956305  0.001  0.105321  -0.000236  1.025641  0.0  0.10675  -0.000249  1.025235  0.0  0.084335  0.104185  -0.000202  1.026224  0.0
H  H19  1  0.15945980  0.80044059  0.89955957  1  0.09584  0.00011  0.956352  -0.001  0.105246  0.000236  1.025716  0.0  0.106669  0.000249  1.025313  0.0  0.084314  0.104117  0.000201  1.026297  0.0
H  H20  1  0.25641382  0.64618793  0.57636592  1  0.268336  0.000591  0.926313  0.001  0.250365  -0.000494  1.005241  0.0  0.257291  -0.000255  1.000733  0.0  0.287414  0.245313  -0.000636  1.009148  0.0
H  H21  1  0.24355683  0.35380749  0.07640445  1  0.268472  -0.000591  0.926251  -0.001  0.250449  0.000492  1.005278  0.0  0.257381  0.000253  1.000764  0.0  0.287442  0.245392  0.000634  1.009188  0.0
H  H22  1  0.74383044  0.35406553  0.42360656  1  0.268737  -0.000589  0.926521  -0.001  0.250752  0.000492  1.00549  0.0  0.257696  0.000253  1.000953  0.0  0.287593  0.245694  0.000634  1.0094  0.0
H  H23  1  0.75611772  0.64588785  0.92364234  1  0.268721  0.000591  0.926492  0.001  0.250747  -0.000493  1.005391  0.0  0.257691  -0.000254  1.000857  0.0  0.287622  0.245699  -0.000636  1.009327  0.0
H  H24  1  0.36149111  0.49549861  0.59048480  1  0.277295  0.001494  0.943893  0.002  0.264126  0.000372  1.01189  0.001  0.271608  0.000516  1.006703  0.001  0.272143  0.258775  0.000235  1.016079  0.001
H  H25  1  0.13856790  0.50458992  0.09045274  1  0.277286  -0.001488  0.943972  -0.002  0.264046  -0.000369  1.012028  -0.001  0.27153  -0.000514  1.006835  -0.001  0.272157  0.258696  -0.000232  1.016232  -0.001
H  H26  1  0.63855292  0.50464048  0.40950194  1  0.277157  -0.001487  0.944282  -0.002  0.264058  -0.000367  1.012251  -0.001  0.271549  -0.000511  1.007059  -0.001  0.272102  0.258703  -0.00023  1.016442  -0.001
H  H27  1  0.86145121  0.49536469  0.90948446  1  0.27725  0.001486  0.944217  0.002  0.264158  0.000367  1.012091  0.001  0.27166  0.000511  1.006903  0.001  0.272139  0.258809  0.00023  1.016281  0.001
H  H28  1  0.14042613  0.39625219  0.44832865  1  0.278444  -0.001563  0.956053  -0.002  0.258625  -0.001218  1.027536  -0.002  0.266629  -0.000946  1.020669  -0.002  0.280882  0.253126  -0.001341  1.032117  -0.002
H  H29  1  0.35963198  0.60372710  0.94832910  1  0.278336  0.001562  0.956282  0.002  0.2586  0.001217  1.027837  0.002  0.266602  0.000945  1.020962  0.002  0.280858  0.253084  0.001341  1.032434  0.002
H  H30  1  0.85974609  0.60407423  0.55164383  1  0.278146  0.001562  0.956361  0.002  0.258491  0.001214  1.027466  0.002  0.2665  0.000942  1.020607  0.002  0.280874  0.253015  0.001337  1.032007  0.002
H  H31  1  0.64024371  0.39586411  0.05164413  1  0.27817  -0.001561  0.956257  -0.002  0.258444  -0.001215  1.027486  -0.002  0.266465  -0.000943  1.020614  -0.002  0.280766  0.252936  -0.001338  1.03204  -0.002
C  C32  1  0.97168892  0.23670273  0.56484705  1  0.343882  0.003753  3.902196  0.004  0.30306  -0.000341  4.207715  0.0  0.328417  0.00084  4.218617  0.001  0.23556  0.28622  -0.001232  4.200138  -0.001
C  C33  1  0.52838760  0.76328245  0.06485538  1  0.34392  -0.003748  3.901873  -0.004  0.30322  0.000338  4.207537  0.0  0.328563  -0.000842  4.218437  -0.001  0.235546  0.286364  0.00123  4.199949  0.001
C  C34  1  0.02849189  0.76352361  0.43512618  1  0.343791  -0.003746  3.903679  -0.004  0.302665  0.000341  4.209469  0.0  0.328055  -0.000842  4.22042  -0.001  0.235216  0.285816  0.001234  4.20187  0.001
C  C35  1  0.47150203  0.23645449  0.93512311  1  0.343859  0.003748  3.903362  0.004  0.302671  -0.00034  4.209251  0.0  0.328063  0.000842  4.220187  0.001  0.235212  0.28579  -0.001234  4.201644  -0.001
C  C36  1  0.78734639  0.05697551  0.69469475  1  0.061469  -0.002661  3.653675  -0.001  0.015627  -0.002442  3.906314  -0.001  0.02185  -0.001706  3.921687  -0.001  -0.071417  0.012117  -0.002819  3.895859  -0.002
C  C37  1  0.71261959  0.94307201  0.19470339  1  0.061575  0.002656  3.653714  0.001  0.016  0.002441  3.906193  0.001  0.022229  0.001706  3.921557  0.001  -0.071255  0.012476  0.002817  3.895717  0.002
C  C38  1  0.21296303  0.94324571  0.30528148  1  0.061552  0.00267  3.653796  0.001  0.015232  0.002445  3.906963  0.001  0.021493  0.00171  3.922312  0.001  -0.071362  0.011687  0.002821  3.896489  0.002
C  C39  1  0.28697549  0.05676594  0.80527208  1  0.061728  -0.002682  3.653333  -0.001  0.015491  -0.002447  3.906436  -0.001  0.021766  -0.00171  3.921772  -0.001  -0.071313  0.011946  -0.002824  3.895986  -0.002
C  C40  1  0.67724523  0.95013359  0.60171125  1  -0.14743  -0.005051  3.556755  -0.006  -0.178576  -0.002924  3.803376  -0.004  -0.179314  -0.002273  3.812696  -0.003  -0.150494  -0.177942  -0.003215  3.796818  -0.004
C  C41  1  0.82281226  0.04985540  0.10172650  1  -0.147695  0.005067  3.557128  0.006  -0.178914  0.002922  3.803967  0.004  -0.179658  0.002272  3.813276  0.003  -0.150565  -0.178241  0.003213  3.797359  0.004
C  C42  1  0.32297625  0.05012198  0.39826423  1  -0.147573  0.005058  3.556288  0.006  -0.178647  0.002925  3.802789  0.004  -0.1794  0.002273  3.81222  0.003  -0.150278  -0.177952  0.003216  3.79609  0.004
C  C43  1  0.17698770  0.94987542  0.89826850  1  -0.147314  -0.005039  3.556108  -0.006  -0.178407  -0.002931  3.802755  -0.004  -0.179153  -0.002275  3.812177  -0.003  -0.150143  -0.177729  -0.003221  3.796071  -0.004
S  S44  1  0.80621437  0.06707719  0.48933528  1  0.01508  -0.004392  2.347079  -0.006  0.024214  -0.002484  2.685256  -0.004  0.021546  -0.0017  2.680339  -0.003  0.039884  0.026256  -0.002945  2.688768  -0.005
S  S45  1  0.69383720  0.93294046  0.98934492  1  0.014947  0.004381  2.346911  0.006  0.024076  0.002482  2.685184  0.004  0.02142  0.001698  2.68025  0.003  0.03978  0.026077  0.002942  2.688717  0.005
S  S46  1  0.19389077  0.93311659  0.51065372  1  0.015101  0.004394  2.346778  0.006  0.024325  0.002485  2.684953  0.004  0.021637  0.001698  2.680014  0.003  0.039943  0.026334  0.002948  2.688477  0.005
S  S47  1  0.30610616  0.06685138  0.01065308  1  0.015032  -0.004393  2.346539  -0.006  0.024325  -0.002482  2.684693  -0.004  0.021654  -0.001699  2.679755  -0.003  0.039936  0.026359  -0.002948  2.688207  -0.005
N  N48  1  0.95010432  0.22005731  0.66201229  1  -0.454043  -0.089424  3.265484  -0.109  -0.411165  -0.064664  3.592914  -0.083  -0.451383  -0.056188  3.613335  -0.076  -0.414365  -0.387017  -0.0663  3.581103  -0.083
N  N49  1  0.54992330  0.77991432  0.16200648  1  -0.454083  0.089394  3.266277  0.109  -0.411203  0.064659  3.593581  0.083  -0.451392  0.056183  3.61392  0.076  -0.414286  -0.387045  0.066295  3.58173  0.083
N  N50  1  0.05015595  0.78019569  0.33797971  1  -0.453892  0.089565  3.26566  0.109  -0.41077  0.064755  3.593024  0.083  -0.450969  0.056263  3.613327  0.076  -0.414365  -0.386583  0.066401  3.581149  0.083
N  N51  1  0.44980080  0.21979552  0.83796825  1  -0.454042  -0.089584  3.2656  -0.109  -0.410909  -0.064759  3.593009  -0.083  -0.451157  -0.05627  3.613423  -0.076  -0.414408  -0.386742  -0.066408  3.581199  -0.083
N  N52  1  0.23796706  0.50829922  0.59348764  1  -0.430351  -0.086849  3.235386  -0.106  -0.413232  -0.069071  3.497698  -0.088  -0.43949  -0.05915  3.501373  -0.079  -0.524887  -0.39751  -0.071753  3.497146  -0.089
N  N53  1  0.26206668  0.49172784  0.09348717  1  -0.430746  0.086865  3.235242  0.106  -0.413347  0.069085  3.497663  0.088  -0.439627  0.05916  3.50132  0.079  -0.525138  -0.397667  0.071768  3.497102  0.089
N  N54  1  0.76214098  0.49193788  0.40651261  1  -0.431058  0.086779  3.236215  0.106  -0.414016  0.069017  3.498348  0.088  -0.440257  0.059103  3.502012  0.079  -0.525414  -0.398313  0.071706  3.497813  0.089
N  N55  1  0.73785191  0.50804010  0.90652059  1  -0.431232  -0.086765  3.236063  -0.106  -0.414133  -0.069011  3.498238  -0.088  -0.440398  -0.059097  3.501937  -0.079  -0.525525  -0.3985  -0.071699  3.497737  -0.089
N  N56  1  0.11586815  0.38044395  0.52452594  1  -0.258433  0.003148  3.390902  0.006  -0.209396  7.4e-05  3.642265  0.003  -0.223979  0.000774  3.654447  0.003  -0.349191  -0.199305  -0.000454  3.633973  0.002
N  N57  1  0.38422567  0.61948667  0.02451416  1  -0.258189  -0.003138  3.390081  -0.006  -0.209654  -7.1e-05  3.641919  -0.003  -0.224142  -0.000769  3.653921  -0.003  -0.349216  -0.199514  0.000456  3.633597  -0.002
N  N58  1  0.88419139  0.61989003  0.47545029  1  -0.258186  -0.003153  3.391173  -0.006  -0.209053  -7.4e-05  3.642724  -0.003  -0.22362  -0.000773  3.654801  -0.003  -0.348829  -0.198988  0.000454  3.634442  -0.002
N  N59  1  0.61584528  0.38001939  0.97544105  1  -0.258054  0.003153  3.391135  0.006  -0.208903  7.7e-05  3.642629  0.003  -0.223562  0.000776  3.654905  0.003  -0.34864  -0.198705  -0.000453  3.634256  0.002
Cl  Cl60  1  0.03165954  0.33086547  0.89082581  1  -0.489325  -0.101518  1.025552  -0.116  -0.467814  -0.067309  1.328477  -0.08  -0.496899  -0.055543  1.304631  -0.068  -0.274953  -0.449508  -0.070792  1.345808  -0.082
Cl  Cl61  1  0.46837231  0.66910966  0.39082204  1  -0.489396  0.101491  1.02556  0.116  -0.467929  0.067291  1.328553  0.08  -0.496986  0.055526  1.304658  0.068  -0.274975  -0.449644  0.070769  1.345851  0.082
Cl  Cl62  1  0.96869879  0.66937172  0.10927953  1  -0.489219  0.101541  1.026039  0.116  -0.467734  0.067327  1.32912  0.08  -0.496763  0.055565  1.305201  0.068  -0.274969  -0.449466  0.07081  1.34647  0.082
Cl  Cl63  1  0.53135804  0.33059421  0.60927203  1  -0.489149  -0.101554  1.025867  -0.116  -0.467775  -0.067336  1.329121  -0.08  -0.496767  -0.055571  1.305097  -0.068  -0.275006  -0.449491  -0.070823  1.346482  -0.082
Cl  Cl64  1  0.41343106  0.65744353  0.79002710  1  -0.507505  -0.094545  1.043783  -0.108  -0.491338  -0.065018  1.353386  -0.077  -0.522461  -0.052747  1.327377  -0.065  -0.265539  -0.472309  -0.069583  1.371982  -0.081
Cl  Cl65  1  0.08654773  0.34260300  0.29002860  1  -0.507543  0.094544  1.043955  0.108  -0.491443  0.065019  1.353633  0.077  -0.522542  0.052747  1.327605  0.065  -0.265547  -0.472437  0.069588  1.37219  0.081
Cl  Cl66  1  0.58666340  0.34279685  0.20998966  1  -0.50758  0.094489  1.043339  0.108  -0.491594  0.064998  1.353008  0.077  -0.52268  0.052726  1.326985  0.065  -0.265506  -0.472582  0.069578  1.371551  0.081
Cl  Cl67  1  0.91329068  0.65724537  0.71000468  1  -0.50752  -0.094514  1.043139  -0.108  -0.491603  -0.06501  1.352869  -0.077  -0.522686  -0.052735  1.326795  -0.065  -0.265561  -0.472573  -0.069587  1.371427  -0.081
