# generated using pymatgen
data_Zn2H13C27N8Cl
_symmetry_space_group_name_H-M   'P 1'
_cell_length_a   18.85876402
_cell_length_b   18.85557216
_cell_length_c   18.52962559
_cell_angle_alpha   110.15719652
_cell_angle_beta   110.14593703
_cell_angle_gamma   103.16326396
_symmetry_Int_Tables_number   1
_chemical_formula_structural   Zn2H13C27N8Cl
_chemical_formula_sum   'Zn4 H26 C54 N16 Cl2'
_cell_volume   5339.60700286
_cell_formula_units_Z   2
loop_
 _symmetry_equiv_pos_site_id
 _symmetry_equiv_pos_as_xyz
  1  'x, y, z'
loop_
 _atom_site_type_symbol
 _atom_site_label
 _atom_site_symmetry_multiplicity
 _atom_site_fract_x
 _atom_site_fract_y
 _atom_site_fract_z
 _atom_site_occupancy
 _atom_site_pbe_bader_charge
 _atom_site_pbe_bader_spin_density
 _atom_site_pbe_cm5_charge
 _atom_site_pbe_ddec_charge
 _atom_site_pbe_ddec_spin_density
 _atom_site_pbe_ddec_sum_bond_order
 _atom_site_pbe_magmom
C  C0  1  0.45460333  0.25755814  0.95828704  1  0.618521  0  0.12306  0.190307  0  4.062827  0
C  C1  1  0.68530169  0.38760543  0.94789354  1  0.418404  0  0.023878  -0.039035  0  3.954868  0
C  C2  1  0.25695218  0.25691520  0.71880415  1  0.15656  0  -0.028865  0.061603  0  4.177933  0
C  C3  1  0.58817135  0.51307803  0.86209560  1  0.427943  0  0.023185  -0.033619  0  3.915718  0
C  C4  1  0.51298012  0.58819175  0.86208124  1  0.423586  0  0.0234  -0.033317  0  3.915197  0
C  C5  1  0.64268500  0.71766272  0.16603686  1  0.421739  0  0.014522  -0.046019  0  3.922876  0
C  C6  1  0.71760733  0.64265717  0.16596969  1  0.422821  0  0.014418  -0.046382  0  3.922313  0
C  C7  1  0.38753714  0.68529889  0.94788499  1  0.373282  0  0.023809  -0.039498  0  3.955028  0
C  C8  1  0.57025117  0.57032495  0.83355751  1  0.142587  0  -0.024219  0.034122  0  4.192705  0
C  C9  1  0.72429969  0.72430387  0.20361235  1  0.060941  0  -0.025113  0.064976  0  4.178297  0
C  C10  1  0.75849858  0.41443830  0.02399737  1  0.145021  0  -0.027148  0.029215  0  4.215214  0
C  C11  1  0.41436951  0.75851438  0.02399822  1  0.150781  0  -0.02691  0.029741  0  4.214699  0
C  C12  1  0.25753048  0.45466332  0.95827759  1  0.616811  0  0.12265  0.189723  0  4.061628  0
C  C13  1  0.96940433  0.05300621  0.55109879  1  -0.035003  0  -0.155171  -0.186025  0  3.846319  0
C  C14  1  0.05474852  0.96910614  0.54934467  1  -0.027551  0  -0.154454  -0.182944  0  3.845193  0
C  C15  1  0.97971672  0.89385328  0.46918462  1  -0.003981  0  -0.154655  -0.183411  0  3.845518  0
C  C16  1  0.89414410  0.97800044  0.47086796  1  -0.054987  0  -0.155155  -0.184362  0  3.845552  0
C  C17  1  0.79440592  0.79433789  0.27183185  1  0.119994  0  -0.073484  -0.143359  0  4.202959  0
C  C18  1  0.04992253  0.04979431  0.54868804  1  0.123492  0  -0.001131  0.180231  0  3.897573  0
C  C19  1  0.92240278  0.92222950  0.41317028  1  0.152984  0  -0.001635  0.178181  0  3.901981  0
C  C20  1  0.33593841  0.47946547  0.09184613  1  0.42554  0  0.020282  -0.029012  0  3.923547  0
C  C21  1  0.47937971  0.33601808  0.09183412  1  0.427533  0  0.020341  -0.029471  0  3.924392  0
C  C22  1  0.97173843  0.97329584  0.38365973  1  -0.019533  0  -0.156418  -0.186323  0  3.862254  0
C  C23  1  0.04636190  0.04801162  0.46311488  1  -0.005578  0  -0.155019  -0.180479  0  3.854678  0
C  C24  1  0.85231207  0.85215774  0.33715797  1  -0.457731  0  -0.04646  -0.114832  0  4.086769  0
C  C25  1  0.12228355  0.12216328  0.61894004  1  -0.205158  0  -0.052274  -0.128801  0  4.07818  0
C  C26  1  0.18469261  0.18463371  0.66520738  1  -0.183548  0  -0.069729  -0.131621  0  4.20105  0
C  C27  1  0.18255695  0.44272406  0.04453144  1  -0.02742  0  -0.031902  -0.055983  0  4.088777  0
C  C28  1  0.73575053  0.44024425  0.09064696  1  0.475692  0  0.021552  -0.042668  0  3.952835  0
C  C29  1  0.44254276  0.18260372  0.04450505  1  -0.025434  0  -0.03171  -0.055602  0  4.088367  0
C  C30  1  0.11644245  0.43436870  0.04591253  1  -0.144817  0  -0.041781  -0.049679  0  4.325  0
C  C31  1  0.43411444  0.11645771  0.04585832  1  -0.144274  0  -0.042151  -0.050127  0  4.324597  0
C  C32  1  0.04413766  0.42741299  0.04583662  1  -0.069559  0  -0.027163  -0.02123  0  4.24614  0
C  C33  1  0.42716518  0.04413629  0.04576017  1  -0.075984  0  -0.026958  -0.021393  0  4.246555  0
C  C34  1  0.44019880  0.73576536  0.09063377  1  0.471374  0  0.021254  -0.043305  0  3.953305  0
C  C35  1  0.97657266  0.42283873  0.04272500  1  0.059704  0  -0.025083  -0.011941  0  4.248498  0
C  C36  1  0.42263726  0.97657305  0.04265131  1  0.06426  0  -0.024953  -0.011342  0  4.248926  0
C  C37  1  0.90300889  0.41882266  0.03750909  1  -0.289489  0  -0.047456  -0.063894  0  4.339675  0
C  C38  1  0.41868560  0.90302000  0.03747495  1  -0.290748  0  -0.047284  -0.064011  0  4.339438  0
C  C39  1  0.61265021  0.53758435  0.30195740  1  0.444256  0  0.021804  -0.046786  0  3.955679  0
C  C40  1  0.53753905  0.61263947  0.30194447  1  0.444002  0  0.021533  -0.046992  0  3.955601  0
C  C41  1  0.83525994  0.41609638  0.03145574  1  0.070738  0  -0.025676  -0.057559  0  4.082149  0
C  C42  1  0.41599705  0.83527337  0.03145591  1  0.072875  0  -0.026093  -0.057938  0  4.081701  0
C  C43  1  0.59330939  0.59342367  0.77816183  1  -0.220918  0  -0.024561  -0.055036  0  4.06487  0
C  C44  1  0.60399072  0.60410091  0.72013307  1  0.04161  0  -0.047498  -0.063257  0  4.330254  0
C  C45  1  0.60905262  0.60914417  0.65149864  1  -0.098265  0  -0.026878  -0.014934  0  4.248811  0
C  C46  1  0.60830763  0.60837434  0.58419454  1  -0.050616  0  -0.03011  -0.023818  0  4.25194  0
C  C47  1  0.60313426  0.60318564  0.50841080  1  -0.103062  0  -0.04712  -0.057138  0  4.339569  0
C  C48  1  0.59520004  0.59523046  0.43693324  1  -0.07612  0  -0.030756  -0.067997  0  4.085613  0
C  C49  1  0.26429826  0.33891010  0.75216823  1  0.404239  0  0.008483  -0.04571  0  3.96701  0
C  C50  1  0.33893521  0.26429099  0.75220362  1  0.407806  0  0.008426  -0.045483  0  3.967819  0
C  C51  1  0.45597644  0.25336428  0.03374682  1  0.176894  0  -0.027307  -0.023092  0  4.194713  0
C  C52  1  0.25331389  0.45609059  0.03375363  1  0.180283  0  -0.026937  -0.022899  0  4.194278  0
C  C53  1  0.58339058  0.58341326  0.35417341  1  0.17906  0  -0.02824  0.030203  0  4.221249  0
Cl  Cl54  1  0.43826322  0.17865655  0.86654220  1  -0.179207  0  0.034156  -0.046163  0  1.520645  0
Cl  Cl55  1  0.17863046  0.43829421  0.86648485  1  -0.179653  0  0.034169  -0.046054  0  1.519004  0
H  H56  1  0.97181513  0.05385269  0.61152555  1  0.042885  0  0.092247  0.090687  0  0.979168  0
H  H57  1  0.85263385  0.99788696  0.43181307  1  0.038656  0  0.090878  0.088212  0  0.982312  0
H  H58  1  0.99944212  0.85329908  0.42892030  1  0.010624  0  0.090532  0.087657  0  0.982558  0
H  H59  1  0.04399859  0.10597995  0.46402653  1  0.010253  0  0.091726  0.08961  0  0.979166  0
H  H60  1  0.10424811  0.04691950  0.46278620  1  0.029572  0  0.091929  0.090007  0  0.979157  0
H  H61  1  0.93069476  0.99257271  0.34331885  1  0.020839  0  0.092304  0.090945  0  0.978488  0
H  H62  1  0.99101716  0.93341041  0.34218681  1  0.031702  0  0.092046  0.090626  0  0.979397  0
H  H63  1  0.05690615  0.97035248  0.60983188  1  0.024982  0  0.092124  0.089804  0  0.979277  0
H  H64  1  0.36218662  0.48962010  0.15846213  1  0.099274  0  0.125721  0.119578  0  0.987975  0
H  H65  1  0.48952790  0.36231607  0.15845350  1  0.099394  0  0.125699  0.119649  0  0.988192  0
H  H66  1  0.65077703  0.50410441  0.31652477  1  0.086774  0  0.127491  0.118952  0  0.979426  0
H  H67  1  0.50402830  0.65074240  0.31649458  1  0.086744  0  0.127485  0.118869  0  0.97938  0
H  H68  1  0.21598816  0.36201579  0.74279310  1  0.125392  0  0.107436  0.098361  0  1.038126  0
H  H69  1  0.36204125  0.21599293  0.74286414  1  0.123824  0  0.107452  0.09829  0  1.038371  0
H  H70  1  0.63014902  0.48350240  0.85488693  1  0.11288  0  0.123453  0.112466  0  0.997815  0
H  H71  1  0.48335160  0.63011782  0.85485715  1  0.11198  0  0.123553  0.112671  0  0.997651  0
H  H72  1  0.61928299  0.76590042  0.17554788  1  0.105339  0  0.119646  0.109361  0  0.999962  0
H  H73  1  0.76582270  0.61920742  0.17544283  1  0.105597  0  0.119873  0.109622  0  0.999643  0
H  H74  1  0.77316457  0.46527227  0.16005575  1  0.071919  0  0.126665  0.116632  0  0.980555  0
H  H75  1  0.46523096  0.77317347  0.16003924  1  0.071804  0  0.126688  0.116726  0  0.980903  0
H  H76  1  0.36191845  0.67468056  0.88107922  1  0.135757  0  0.127681  0.118011  0  0.980049  0
H  H77  1  0.67471442  0.36199212  0.88109425  1  0.092309  0  0.127634  0.117917  0  0.980163  0
H  H78  1  0.85807097  0.94122028  0.49061715  1  0.033453  0  0.091207  0.088803  0  0.980401  0
H  H79  1  0.11254678  0.96639698  0.55001302  1  0.018821  0  0.090649  0.088336  0  0.981584  0
H  H80  1  0.94411237  0.85672403  0.48901697  1  0.03316  0  0.091194  0.088624  0  0.980481  0
H  H81  1  0.96559117  0.11088574  0.55311006  1  0.032868  0  0.090957  0.0893  0  0.981233  0
N  N82  1  0.47390806  0.33505503  0.97054693  1  -0.789534  0  -0.275069  -0.23745  0  3.567349  0
N  N83  1  0.53975070  0.58630909  0.22592726  1  -0.729483  0  -0.266381  -0.173797  0  3.550757  0
N  N84  1  0.58632057  0.53977737  0.22593823  1  -0.865213  0  -0.266584  -0.173871  0  3.551315  0
N  N85  1  0.34380038  0.39057581  0.80229321  1  -0.877105  0  -0.278305  -0.197121  0  3.543293  0
N  N86  1  0.39059553  0.34379549  0.80231297  1  -0.745584  0  -0.278142  -0.196913  0  3.54341  0
N  N87  1  0.54308516  0.49701879  0.90149681  1  -0.84632  0  -0.275114  -0.183107  0  3.61086  0
N  N88  1  0.49695927  0.54311394  0.90149547  1  -0.706884  0  -0.275576  -0.183612  0  3.611144  0
N  N89  1  0.33502538  0.47390920  0.97055438  1  -0.788738  0  -0.274833  -0.237291  0  3.566369  0
N  N90  1  0.59173114  0.63793606  0.11274547  1  -0.728983  0  -0.288156  -0.195145  0  3.607437  0
N  N91  1  0.63786863  0.59175409  0.11271621  1  -0.868097  0  -0.288311  -0.195078  0  3.607216  0
N  N92  1  0.65635982  0.42944245  0.05674549  1  -0.79856  0  -0.26874  -0.175886  0  3.541203  0
N  N93  1  0.42941753  0.65636759  0.05672842  1  -0.799316  0  -0.268371  -0.175365  0  3.540603  0
N  N94  1  0.39685225  0.62510217  0.96801133  1  -0.787128  0  -0.26274  -0.184128  0  3.539838  0
N  N95  1  0.62510059  0.39689488  0.96802385  1  -0.788512  0  -0.262667  -0.184392  0  3.538963  0
N  N96  1  0.38393147  0.49058762  0.05352001  1  -0.780489  0  -0.282899  -0.190391  0  3.582139  0
N  N97  1  0.49056055  0.38398864  0.05349720  1  -0.790399  0  -0.28298  -0.190305  0  3.582519  0
Zn  Zn98  1  0.50641891  0.38817847  0.90180762  1  1.203799  0  0.748372  0.65795  0  2.331241  0
Zn  Zn99  1  0.38811929  0.50640603  0.90178325  1  1.203548  0  0.748303  0.657976  0  2.331607  0
Zn  Zn100  1  0.48518444  0.59521577  0.11448524  1  1.186935  0  0.749129  0.620218  0  2.435362  0
Zn  Zn101  1  0.59523279  0.48521482  0.11451861  1  1.186567  0  0.74933  0.620232  0  2.436338  0
