# generated using pymatgen
data_CoPH10C6NO6
_symmetry_space_group_name_H-M   'P 1'
_cell_length_a   6.57547826
_cell_length_b   7.40770058
_cell_length_c   9.94931953
_cell_angle_alpha   87.60157037
_cell_angle_beta   77.36461242
_cell_angle_gamma   70.12707282
_symmetry_Int_Tables_number   1
_chemical_formula_structural   CoPH10C6NO6
_chemical_formula_sum   'Co2 P2 H20 C12 N2 O12'
_cell_volume   444.44634629
_cell_formula_units_Z   2
loop_
 _symmetry_equiv_pos_site_id
 _symmetry_equiv_pos_as_xyz
  1  'x, y, z'
loop_
 _atom_site_type_symbol
 _atom_site_label
 _atom_site_symmetry_multiplicity
 _atom_site_fract_x
 _atom_site_fract_y
 _atom_site_fract_z
 _atom_site_occupancy
 _atom_site_hle17_ddec_charge
 _atom_site_hle17_ddec_spin_density
 _atom_site_hle17_ddec_sum_bond_order
 _atom_site_hle17_magmom
 _atom_site_hse06_10hf_ddec_charge
 _atom_site_hse06_10hf_ddec_spin_density
 _atom_site_hse06_10hf_ddec_sum_bond_order
 _atom_site_hse06_10hf_magmom
 _atom_site_hse06_ddec_charge
 _atom_site_hse06_ddec_spin_density
 _atom_site_hse06_ddec_sum_bond_order
 _atom_site_hse06_magmom
 _atom_site_pbe_cm5_charge
 _atom_site_pbe_ddec_charge
 _atom_site_pbe_ddec_spin_density
 _atom_site_pbe_ddec_sum_bond_order
 _atom_site_pbe_magmom
Co  Co0  1  0.26648703  0.17357957  0.03692104  1  1.16891  2.88222  1.783296  2.615  1.146081  2.862101  2.162207  2.678  1.215596  2.910567  2.096104  2.747  0.643961  1.088603  2.807158  2.21158  2.603
Co  Co1  1  0.73351544  0.82641998  0.96307725  1  1.168934  -2.882219  1.783321  -2.615  1.14609  -2.8621  2.162235  -2.678  1.215601  -2.910567  2.096131  -2.747  0.643978  1.088622  -2.807156  2.211592  -2.603
P  P2  1  0.73135774  0.21645787  0.11015195  1  1.531155  0.003255  4.784769  0.003  1.377631  0.003633  5.292961  0.004  1.430666  0.002789  5.253483  0.003  0.350037  1.339125  0.004506  5.319718  0.005
P  P3  1  0.26864740  0.78353879  0.88984705  1  1.531295  -0.003255  4.784668  -0.003  1.377775  -0.003632  5.292803  -0.004  1.430819  -0.00279  5.253296  -0.003  0.35012  1.339255  -0.004506  5.319614  -0.005
H  H4  1  0.56204531  0.26708081  0.48947323  1  0.108641  0.000133  0.952216  0.0  0.122228  -5e-06  1.007093  0.0  0.124862  -4e-06  1.006551  0.0  0.109619  0.120316  -2e-06  1.007782  0.0
H  H5  1  0.43794870  0.73292451  0.51052308  1  0.108633  -0.000133  0.952301  0.0  0.122238  5e-06  1.007151  0.0  0.124873  4e-06  1.006606  0.0  0.109615  0.12032  2e-06  1.007844  0.0
H  H6  1  0.68847560  0.40332057  0.66591929  1  0.120014  -0.000284  0.973084  -0.001  0.128222  3.4e-05  1.033389  0.0  0.132357  1e-05  1.029444  0.0  0.112683  0.124884  8.1e-05  1.036734  0.0
H  H7  1  0.31152129  0.59667319  0.33408393  1  0.120007  0.000284  0.973008  0.001  0.128221  -3.4e-05  1.03331  0.0  0.132357  -1e-05  1.029363  0.0  0.112658  0.124877  -8.1e-05  1.036658  0.0
H  H8  1  0.09469095  0.35598125  0.63160173  1  0.128497  9.1e-05  0.933899  0.0  0.135878  -9e-05  0.992236  0.0  0.139928  -6e-05  0.990566  0.0  0.115843  0.132732  -4.5e-05  0.993681  0.0
H  H9  1  0.90530352  0.64400676  0.36840198  1  0.128498  -9.1e-05  0.933738  0.0  0.135939  9e-05  0.992  0.0  0.139972  6e-05  0.990371  0.0  0.115863  0.132796  4.5e-05  0.99345  0.0
H  H10  1  0.34884880  0.19068409  0.40615554  1  0.100543  -0.000322  0.95781  -0.001  0.110722  -4.4e-05  1.020523  0.0  0.11384  -5.2e-05  1.017172  0.0  0.128  0.108129  -1.9e-05  1.023716  0.0
H  H11  1  0.65114905  0.80931108  0.59385054  1  0.100497  0.000322  0.957831  0.001  0.110691  4.4e-05  1.020538  0.0  0.113808  5.2e-05  1.017187  0.0  0.128007  0.108098  1.9e-05  1.023733  0.0
H  H12  1  0.67787075  0.01702251  0.29902315  1  0.139748  0.000173  0.951152  0.0  0.152908  0.000143  1.011407  0.0  0.155381  0.000113  1.010598  0.0  0.109244  0.151119  0.000162  1.012111  0.0
H  H13  1  0.32212746  0.98297990  0.70097667  1  0.139735  -0.000173  0.951185  0.0  0.152908  -0.000143  1.011435  0.0  0.155381  -0.000113  1.010625  0.0  0.109241  0.151122  -0.000162  1.012142  0.0
H  H14  1  0.95543989  0.93413347  0.20213179  1  0.177311  0.000265  0.938471  0.0  0.182818  0.000304  1.00267  0.0  0.187529  0.000244  0.99962  0.0  0.120879  0.179263  0.000357  1.005092  0.0
H  H15  1  0.04456353  0.06586748  0.79787036  1  0.177286  -0.000265  0.938526  0.0  0.182805  -0.000304  1.002715  0.0  0.187515  -0.000244  0.999666  0.0  0.12087  0.179251  -0.000356  1.005139  0.0
H  H16  1  0.32121767  0.44348538  0.14901966  1  0.417376  -0.000158  0.897929  -0.001  0.385997  0.000163  0.964215  0.0  0.397202  7.3e-05  0.948013  0.0  0.285457  0.37803  0.000247  0.975652  0.0
H  H17  1  0.67878223  0.55651272  0.85098003  1  0.417385  0.000158  0.89791  0.001  0.386003  -0.000164  0.964199  0.0  0.397207  -7.3e-05  0.947998  0.0  0.285478  0.378036  -0.000247  0.975639  0.0
H  H18  1  0.11931319  0.55782723  0.07859484  1  0.435012  0.000213  0.862147  0.0  0.410338  0.000427  0.915561  0.0  0.421002  0.000332  0.900317  0.0  0.295436  0.402476  0.0005  0.92677  0.001
H  H19  1  0.88069354  0.44216947  0.92140092  1  0.435023  -0.000213  0.862133  0.0  0.410359  -0.000427  0.915529  0.0  0.421026  -0.000332  0.900281  0.0  0.295464  0.402498  -0.000499  0.926733  -0.001
H  H20  1  0.37499225  0.39366486  0.83258322  1  0.430721  0.000131  0.873432  0.0  0.399633  0.000391  0.937582  0.001  0.410888  0.000254  0.921451  0.001  0.287998  0.391647  0.000524  0.948921  0.001
H  H21  1  0.62500766  0.60633325  0.16741546  1  0.430799  -0.000131  0.873326  0.0  0.399671  -0.000391  0.937537  -0.001  0.410928  -0.000254  0.921403  -0.001  0.288032  0.391681  -0.000524  0.948882  -0.001
H  H22  1  0.50514806  0.16972785  0.80091801  1  0.410036  -0.000337  0.885149  -0.001  0.381271  0.000107  0.957886  0.0  0.391467  3e-05  0.943183  0.0  0.292422  0.374226  0.000197  0.967883  0.0
H  H23  1  0.49485230  0.83027315  0.19907852  1  0.410074  0.000337  0.885109  0.001  0.381307  -0.000107  0.957836  0.0  0.391504  -3e-05  0.943131  0.0  0.29245  0.374264  -0.000197  0.967829  0.0
C  C24  1  0.88241541  0.15360793  0.35660097  1  0.228895  0.010454  3.675718  0.015  0.214159  0.00697  3.931456  0.01  0.224488  0.005784  3.949342  0.008  0.124629  0.207112  0.008976  3.919839  0.012
C  C25  1  0.11757461  0.84639163  0.64339704  1  0.228944  -0.010453  3.675652  -0.015  0.214204  -0.00697  3.931421  -0.01  0.22453  -0.005782  3.949307  -0.008  0.124707  0.207163  -0.008975  3.919798  -0.012
C  C26  1  0.73581538  0.25205956  0.47525078  1  -0.149631  -0.007265  3.710105  -0.01  -0.168356  -0.002591  3.969939  -0.004  -0.174686  -0.002919  3.987806  -0.004  -0.081521  -0.164989  -0.002675  3.959147  -0.004
C  C27  1  0.26418381  0.74794427  0.52475088  1  -0.149606  0.007266  3.709993  0.01  -0.168338  0.002592  3.969821  0.004  -0.174666  0.00292  3.987683  0.004  -0.08152  -0.164969  0.002675  3.959023  0.004
C  C28  1  0.80680376  0.32604814  0.57499492  1  -0.014427  0.011465  3.698586  0.015  -0.045686  0.007523  3.964544  0.009  -0.038743  0.006082  3.976798  0.008  -0.077244  -0.051069  0.01016  3.957766  0.012
C  C29  1  0.19318934  0.67395139  0.42500567  1  -0.014464  -0.011467  3.698571  -0.015  -0.045722  -0.007524  3.964522  -0.009  -0.038776  -0.006082  3.976772  -0.008  -0.077246  -0.051096  -0.010162  3.957732  -0.012
C  C30  1  0.03164753  0.30223917  0.55494915  1  -0.100949  -0.006707  3.764898  -0.009  -0.111494  -0.002368  4.022835  -0.004  -0.11776  -0.002749  4.041925  -0.004  -0.080355  -0.107422  -0.002405  4.01106  -0.004
C  C31  1  0.96834749  0.69776318  0.44505814  1  -0.100912  0.006705  3.765046  0.009  -0.111491  0.002368  4.022983  0.004  -0.117758  0.002749  4.042063  0.004  -0.080286  -0.10742  0.002404  4.011208  0.004
C  C32  1  0.17348863  0.21073270  0.43521896  1  0.01868  0.010493  3.612291  0.014  -0.026427  0.006623  3.878228  0.009  -0.018965  0.005613  3.890796  0.008  0.041083  -0.032037  0.00844  3.871053  0.011
C  C33  1  0.82651071  0.78926684  0.56478077  1  0.018726  -0.010493  3.612425  -0.014  -0.026413  -0.006622  3.878407  -0.009  -0.01895  -0.005612  3.890973  -0.008  0.041046  -0.03202  -0.00844  3.871233  -0.011
C  C34  1  0.81921186  0.06165236  0.25114050  1  -0.528621  0.000455  3.716454  0.0  -0.548054  0.000756  3.957813  0.0  -0.55934  0.000494  3.962263  0.0  -0.17195  -0.540177  0.001017  3.954929  0.001
C  C35  1  0.18079255  0.93835003  0.74886148  1  -0.52866  -0.000455  3.716361  0.0  -0.548134  -0.000756  3.957768  0.0  -0.559434  -0.000495  3.962246  0.0  -0.171995  -0.540262  -0.001017  3.954896  -0.001
N  N36  1  0.09991282  0.13908093  0.33901892  1  0.218772  -0.00713  3.637695  -0.014  0.271748  -0.002968  3.89946  -0.006  0.270011  -0.003761  3.921631  -0.007  -0.113467  0.271606  -0.0019  3.884151  -0.005
N  N37  1  0.90008694  0.86092147  0.66098169  1  0.218752  0.007131  3.63783  0.014  0.271731  0.002968  3.8996  0.006  0.269996  0.003761  3.921769  0.007  -0.113516  0.271584  0.001901  3.884298  0.005
O  O38  1  0.93954920  0.23713754  0.01454022  1  -0.867137  0.027792  2.035639  0.045  -0.79562  0.022466  2.305955  0.032  -0.829087  0.018433  2.283892  0.026  -0.364324  -0.769794  0.026364  2.320539  0.038
O  O39  1  0.06045371  0.76286490  0.98545693  1  -0.86723  -0.027791  2.035607  -0.045  -0.795673  -0.022466  2.305896  -0.032  -0.82913  -0.018433  2.283827  -0.026  -0.364381  -0.769844  -0.026364  2.320485  -0.038
O  O40  1  0.61544132  0.10932780  0.03880795  1  -0.895844  -0.003365  2.143358  -0.005  -0.839735  -0.001756  2.45335  -0.002  -0.878552  -0.001569  2.430046  -0.001  -0.372379  -0.80814  -0.001556  2.467441  -0.001
O  O41  1  0.38456270  0.89067175  0.96119013  1  -0.895896  0.003365  2.143376  0.005  -0.839777  0.001756  2.453345  0.002  -0.878596  0.001568  2.430036  0.001  -0.372405  -0.808182  0.001554  2.467447  0.001
O  O42  1  0.56518928  0.40897856  0.17569683  1  -0.867403  -0.002284  1.957341  -0.003  -0.777498  -0.001765  2.187489  -0.003  -0.805595  -0.001393  2.168499  -0.002  -0.373173  -0.756984  -0.002115  2.200305  -0.003
O  O43  1  0.43481160  0.59102097  0.82430369  1  -0.867454  0.002284  1.957425  0.003  -0.777548  0.001765  2.187552  0.003  -0.805644  0.001394  2.168554  0.002  -0.373191  -0.757029  0.002115  2.200374  0.003
O  O44  1  0.24559758  0.04856553  0.22692164  1  -0.548961  0.032438  1.949493  0.054  -0.519744  0.02282  2.215781  0.034  -0.550307  0.018846  2.213682  0.027  -0.226008  -0.495635  0.026062  2.216306  0.038
O  O45  1  0.75440121  0.95143545  0.77307713  1  -0.548966  -0.032437  1.949518  -0.054  -0.519742  -0.02282  2.215794  -0.034  -0.550308  -0.018847  2.213695  -0.027  -0.226018  -0.495637  -0.026062  2.21633  -0.038
O  O46  1  0.17561929  0.44190517  0.13296489  1  -0.844516  0.031655  1.910619  0.053  -0.809154  0.025752  2.114776  0.039  -0.837157  0.02098  2.081308  0.032  -0.582492  -0.786425  0.03013  2.137603  0.046
O  O47  1  0.82438162  0.55809438  0.86703361  1  -0.844526  -0.031655  1.910577  -0.053  -0.809159  -0.025752  2.114731  -0.039  -0.837167  -0.02098  2.08126  -0.032  -0.582538  -0.786439  -0.030131  2.137574  -0.046
O  O48  1  0.35509628  0.26429019  0.83264373  1  -0.816793  0.028279  1.890961  0.045  -0.777869  0.024816  2.094719  0.036  -0.805018  0.020184  2.062134  0.029  -0.574374  -0.756596  0.028948  2.116877  0.042
O  O49  1  0.64490732  0.73570649  0.16735347  1  -0.816904  -0.028281  1.890882  -0.045  -0.77794  -0.024818  2.094678  -0.036  -0.805091  -0.020183  2.062087  -0.029  -0.574438  -0.756668  -0.02895  2.11684  -0.042
