# generated using pymatgen
data_NiH5(CO)5
_symmetry_space_group_name_H-M   'P 1'
_cell_length_a   12.35217047
_cell_length_b   13.11645757
_cell_length_c   19.18084091
_cell_angle_alpha   90.02048511
_cell_angle_beta   89.98857704
_cell_angle_gamma   111.54795847
_symmetry_Int_Tables_number   1
_chemical_formula_structural   NiH5(CO)5
_chemical_formula_sum   'Ni16 H80 C80 O80'
_cell_volume   2890.42684626
_cell_formula_units_Z   16
loop_
 _symmetry_equiv_pos_site_id
 _symmetry_equiv_pos_as_xyz
  1  'x, y, z'
loop_
 _atom_site_type_symbol
 _atom_site_label
 _atom_site_symmetry_multiplicity
 _atom_site_fract_x
 _atom_site_fract_y
 _atom_site_fract_z
 _atom_site_occupancy
 _atom_site_pbe_bader_charge
 _atom_site_pbe_bader_spin_density
 _atom_site_pbe_cm5_charge
 _atom_site_pbe_ddec_charge
 _atom_site_pbe_ddec_spin_density
 _atom_site_pbe_ddec_sum_bond_order
 _atom_site_pbe_magmom
Ni  Ni0  1  0.28687006  0.18186356  0.43840188  1  1.214138  1.586133  0.602594  0.976329  1.759707  2.264609  1.575
Ni  Ni1  1  0.71285937  0.31744417  0.93907394  1  1.212441  -1.571534  0.599898  0.970173  -1.746575  2.265156  -1.56
Ni  Ni2  1  0.71214398  0.81709111  0.56122139  1  1.21189  1.594857  0.601048  0.971981  1.76978  2.263711  1.583
Ni  Ni3  1  0.28727457  0.68120557  0.06139799  1  1.213897  -1.569063  0.602343  0.976411  -1.744596  2.262652  -1.559
Ni  Ni4  1  0.20251712  0.31738447  0.53857222  1  1.222744  -1.586941  0.613467  0.989285  -1.768185  2.319699  -1.576
Ni  Ni5  1  0.79829918  0.18308131  0.03766872  1  1.216287  -1.565045  0.610391  0.981578  -1.744883  2.325056  -1.554
Ni  Ni6  1  0.79841283  0.68224966  0.46167768  1  1.222646  -1.558822  0.613877  0.989558  -1.73899  2.326571  -1.548
Ni  Ni7  1  0.20172578  0.81692560  0.96204220  1  1.218818  1.595539  0.611461  0.983609  1.775908  2.320354  1.584
Ni  Ni8  1  0.52869757  0.20266128  0.05202812  1  1.209158  1.571174  0.612463  0.929556  1.74218  2.285923  1.557
Ni  Ni9  1  0.47029958  0.29765738  0.55195884  1  1.20809  -1.580033  0.611278  0.927191  -1.75363  2.288857  -1.566
Ni  Ni10  1  0.47005841  0.79744825  0.94802178  1  1.207111  1.581565  0.611387  0.927136  1.751771  2.287325  1.567
Ni  Ni11  1  0.52942170  0.70279306  0.44848415  1  1.208336  1.579741  0.611692  0.927398  1.7503  2.291136  1.565
Ni  Ni12  1  0.02317180  0.21923299  0.42077234  1  1.228412  1.591563  0.626476  0.961905  1.767687  2.371046  1.577
Ni  Ni13  1  0.97793247  0.28021697  0.92051365  1  1.228935  1.578881  0.627673  0.963519  1.752914  2.372194  1.565
Ni  Ni14  1  0.97677379  0.78072130  0.57924618  1  1.228643  1.592727  0.626837  0.962318  1.768928  2.369755  1.578
Ni  Ni15  1  0.02299553  0.71999721  0.07901477  1  1.227268  1.58599  0.626364  0.961234  1.760782  2.374879  1.571
H  H16  1  0.53064300  0.19471933  0.27211120  1  0.122028  0.000227  0.103843  0.115896  0.000156  1.019193  0.0
H  H17  1  0.46937599  0.30544335  0.77225470  1  0.123043  -0.000239  0.104087  0.115859  -0.000137  1.018976  0.0
H  H18  1  0.46929085  0.80519147  0.72794225  1  0.122971  0.00029  0.103938  0.116  0.000157  1.018863  0.0
H  H19  1  0.53052589  0.69415257  0.22774710  1  0.079513  -2.4e-05  0.103995  0.115848  -2.3e-05  1.0191  0.0
H  H20  1  0.77147418  0.31750046  0.44206687  1  0.117754  -0.000253  0.115523  0.142159  -0.000175  1.025875  0.0
H  H21  1  0.22825898  0.18202768  0.94200723  1  0.117167  0.000272  0.115656  0.142456  0.00019  1.025732  0.0
H  H22  1  0.22841495  0.68237540  0.55798189  1  0.118145  0.000311  0.115564  0.142454  0.00019  1.025555  0.0
H  H23  1  0.77146432  0.81817657  0.05799517  1  0.116527  0.00037  0.115549  0.141967  0.000246  1.025697  0.0
H  H24  1  0.90037668  0.30317478  0.23437596  1  0.08794  -9.1e-05  0.115365  0.140361  -9.4e-05  0.988931  0.0
H  H25  1  0.09969630  0.19672526  0.73431439  1  0.087651  -0.00021  0.115592  0.140627  -0.000141  0.988932  0.0
H  H26  1  0.09954921  0.69688012  0.76564883  1  0.087951  0.00017  0.115471  0.140333  6.5e-05  0.989012  0.0
H  H27  1  0.90026394  0.80360991  0.26564110  1  0.090141  -0.000113  0.115476  0.13986  -0.000107  0.989422  0.0
H  H28  1  0.01506678  0.51450375  0.37175255  1  0.093096  0.000971  0.111544  0.111908  0.000438  0.986505  0.001
H  H29  1  0.98449669  0.98489277  0.87154361  1  0.095037  0.001127  0.111904  0.112666  0.000554  0.987062  0.001
H  H30  1  0.98496095  0.48530570  0.62827482  1  0.09275  0.000932  0.11176  0.112456  0.000422  0.986793  0.001
H  H31  1  0.01493896  0.01552332  0.12799901  1  0.099846  0.000674  0.111371  0.111755  0.000296  0.988132  0.0
H  H32  1  0.94370354  0.44101616  0.44762921  1  0.107265  -0.001095  0.114131  0.109816  -0.000496  1.013401  -0.001
H  H33  1  0.05597385  0.05839496  0.94742459  1  0.113727  -0.001083  0.114334  0.11046  -0.000506  1.013278  -0.001
H  H34  1  0.05622709  0.55886833  0.55239869  1  0.109508  -0.001092  0.114183  0.110006  -0.000508  1.013862  -0.001
H  H35  1  0.94345514  0.94145175  0.05230565  1  0.109736  0.000748  0.114156  0.109677  0.000303  1.013829  0.0
H  H36  1  0.02960091  0.20304275  0.20210117  1  0.122467  0.000157  0.108424  0.12206  9.5e-05  1.011224  0.0
H  H37  1  0.97044743  0.29676680  0.70230523  1  0.122579  8.6e-05  0.108142  0.121896  5.5e-05  1.011648  0.0
H  H38  1  0.97037197  0.79699187  0.79769526  1  0.122756  0.000415  0.1085  0.122154  0.00024  1.011248  0.0
H  H39  1  0.02972283  0.70311365  0.29783839  1  0.124115  0.000123  0.108372  0.122217  7.1e-05  1.010998  0.0
H  H40  1  0.39368270  0.28313275  0.24564699  1  0.091335  0.00023  0.11208  0.137671  0.000117  1.001597  0.0
H  H41  1  0.60635085  0.21710463  0.74570665  1  0.090007  -0.000149  0.111876  0.137119  -8e-05  1.002199  0.0
H  H42  1  0.60623815  0.71722342  0.75445761  1  0.091543  0.000203  0.111842  0.13718  9.5e-05  1.002038  0.0
H  H43  1  0.39386597  0.78343287  0.25433070  1  0.088815  -0.000161  0.112188  0.137873  -0.000135  1.002088  0.0
H  H44  1  0.27843428  0.29001319  0.03402233  1  0.122492  0.000282  0.115336  0.141218  0.000191  1.019132  0.0
H  H45  1  0.72187688  0.21034635  0.53408291  1  0.125439  0.000299  0.115222  0.141101  0.000219  1.018448  0.0
H  H46  1  0.72188555  0.71036279  0.96598788  1  0.12477  0.000341  0.115281  0.141215  0.000205  1.018172  0.0
H  H47  1  0.27842488  0.79002900  0.46597110  1  0.121215  0.000223  0.115168  0.141064  0.000134  1.01867  0.0
H  H48  1  0.44938222  0.43854790  0.04797490  1  0.128217  -0.000967  0.115001  0.110787  -0.000435  1.024233  -0.001
H  H49  1  0.55073431  0.06193698  0.54801757  1  0.12825  0.001203  0.114915  0.11092  0.000577  1.024063  0.001
H  H50  1  0.55089847  0.56188608  0.95201186  1  0.12704  -0.000981  0.11493  0.111008  -0.000436  1.024671  -0.001
H  H51  1  0.44941684  0.93875015  0.45205421  1  0.127665  0.000516  0.115081  0.110925  0.000149  1.024533  0.0
H  H52  1  0.52737092  0.48889087  0.12702530  1  0.108357  0.001117  0.116483  0.117509  0.000525  0.955345  0.001
H  H53  1  0.47296700  0.01188879  0.62715995  1  0.104763  -0.000964  0.115804  0.117083  -0.00044  0.956015  -0.001
H  H54  1  0.47343385  0.51181099  0.87278212  1  0.104414  0.001074  0.115978  0.117247  0.0005  0.955696  0.001
H  H55  1  0.52766674  0.98908813  0.37308857  1  0.107523  0.000812  0.116078  0.117089  0.000381  0.955492  0.0
H  H56  1  0.23938401  0.97824582  0.44952921  1  0.644048  -2.8e-05  0.292826  0.373672  0.000212  0.971417  0.0
H  H57  1  0.76021746  0.52141290  0.94901721  1  0.617847  3.3e-05  0.292759  0.373589  -0.000234  0.971333  0.0
H  H58  1  0.76086374  0.02139527  0.55098871  1  0.621267  -0.000112  0.29296  0.374306  0.000139  0.970358  0.0
H  H59  1  0.23938879  0.47751020  0.05030364  1  0.643632  6.2e-05  0.293099  0.374077  -0.000216  0.971155  0.0
H  H60  1  0.25012882  0.00175230  0.36931960  1  0.619027  -0.000404  0.327818  0.411762  -5.1e-05  0.85636  0.0
H  H61  1  0.74723430  0.49585405  0.86909918  1  0.61378  0.00026  0.327208  0.410894  2.6e-05  0.857887  0.0
H  H62  1  0.74986326  0.99716221  0.63107886  1  0.619936  -0.000358  0.327536  0.41141  -3.2e-05  0.857561  0.0
H  H63  1  0.25056238  0.50135590  0.13047391  1  0.625754  0.000467  0.327782  0.411479  8.3e-05  0.857132  0.0
H  H64  1  0.35794487  0.44956350  0.61274635  1  0.6217  4.4e-05  0.308848  0.390533  -0.000136  0.92747  0.0
H  H65  1  0.64287703  0.05148583  0.11198867  1  0.629825  -0.000117  0.308704  0.390697  -0.000467  0.927392  0.0
H  H66  1  0.64253057  0.55089003  0.38780763  1  0.627753  -9.9e-05  0.309301  0.390769  -0.000363  0.926351  0.0
H  H67  1  0.35785176  0.94908677  0.88780726  1  0.622387  -2.8e-05  0.308201  0.389747  9.8e-05  0.928905  0.0
H  H68  1  0.26336184  0.50478252  0.61333242  1  0.610391  -0.00036  0.323884  0.402129  -0.000465  0.87913  0.0
H  H69  1  0.73865294  0.99783872  0.11414352  1  0.615702  -0.000743  0.32415  0.401971  -0.000591  0.877638  -0.001
H  H70  1  0.73766375  0.49642883  0.38578581  1  0.613394  -0.000303  0.324293  0.401731  -0.000416  0.878319  0.0
H  H71  1  0.26330640  0.00430345  0.88690012  1  0.616982  0.000409  0.323444  0.401252  0.000483  0.880341  0.0
H  H72  1  0.38213323  0.39929271  0.46559373  1  0.629307  -0.000428  0.293196  0.392581  -0.000797  0.926764  -0.001
H  H73  1  0.61785728  0.10122723  0.96539396  1  0.626783  -0.000581  0.293219  0.39187  -0.00058  0.927312  0.0
H  H74  1  0.61748966  0.60066649  0.53442012  1  0.621185  -0.000924  0.293245  0.391786  7.2e-05  0.927426  0.0
H  H75  1  0.38186581  0.89856147  0.03479869  1  0.633741  0.000867  0.293342  0.39287  0.001096  0.925781  0.001
H  H76  1  0.88184739  0.01476947  0.37832069  1  0.626481  0.001389  0.332501  0.419122  0.000924  0.857061  0.001
H  H77  1  0.11786315  0.48400897  0.87804150  1  0.631958  0.001292  0.332323  0.418944  0.000894  0.856473  0.001
H  H78  1  0.11782216  0.98501893  0.62179063  1  0.627399  0.001406  0.332328  0.418946  0.000928  0.856976  0.001
H  H79  1  0.88222948  0.51578249  0.12178252  1  0.632292  0.001356  0.332317  0.419429  0.000959  0.856186  0.001
H  H80  1  0.81293019  0.06599549  0.43003320  1  0.647269  0.00059  0.299128  0.393378  0.000546  0.942573  0.001
H  H81  1  0.18780991  0.43340313  0.92931771  1  0.64857  0.000353  0.29945  0.394315  0.000413  0.941252  0.001
H  H82  1  0.18717767  0.93404281  0.57020950  1  0.650466  0.000637  0.299207  0.393558  0.000578  0.942279  0.001
H  H83  1  0.81281888  0.56649805  0.07017472  1  0.649244  0.000376  0.299769  0.394008  0.000405  0.941493  0.001
H  H84  1  0.38801476  0.03835738  0.11752275  1  0.588339  0.00026  0.333565  0.410478  0.000369  0.849155  0.0
H  H85  1  0.61172135  0.46183709  0.61741513  1  0.590575  -0.000299  0.333283  0.410434  -0.00039  0.849085  0.0
H  H86  1  0.61131931  0.96168542  0.88263190  1  0.59133  0.000294  0.333306  0.41043  0.00037  0.849543  0.0
H  H87  1  0.38877330  0.53866634  0.38266391  1  0.592332  0.000331  0.33342  0.410801  0.000339  0.848879  0.0
H  H88  1  0.32057102  0.05065130  0.04909062  1  0.657072  0.000135  0.29995  0.393592  0.000324  0.944774  0.0
H  H89  1  0.67898219  0.44924559  0.54900339  1  0.659866  -0.000196  0.299915  0.393717  -0.00027  0.944245  0.0
H  H90  1  0.67865256  0.94928728  0.95104317  1  0.662461  -0.000123  0.299945  0.393888  0.000238  0.944108  0.0
H  H91  1  0.32074571  0.55071500  0.45091453  1  0.657446  -0.000103  0.299453  0.393091  0.000237  0.945223  0.0
H  H92  1  0.09410142  0.11005852  0.51119220  1  0.584087  0.001358  0.306813  0.390298  0.001056  0.90307  0.001
H  H93  1  0.90576624  0.38878566  0.01188826  1  0.584941  -0.000772  0.307354  0.391874  -0.000761  0.900163  -0.001
H  H94  1  0.90523141  0.88921966  0.48852441  1  0.584266  0.001451  0.307277  0.392044  0.001103  0.900644  0.001
H  H95  1  0.09337784  0.61084677  0.98829242  1  0.58305  -0.000403  0.307437  0.391612  0.000287  0.899883  0.0
C  C96  1  0.61977709  0.22909186  0.29122510  1  -0.067291  0.003635  -0.08553  -0.128268  0.002037  3.933156  0.002
C  C97  1  0.38020335  0.27093446  0.79129970  1  -0.068573  0.00079  -0.085676  -0.127647  0.000409  3.933801  0.001
C  C98  1  0.38015974  0.77085677  0.70882575  1  -0.068859  0.006083  -0.08566  -0.128208  0.003432  3.932871  0.004
C  C99  1  0.61967930  0.72880978  0.20868857  1  -0.027601  0.003046  -0.085751  -0.128213  0.001696  3.932905  0.002
C  C100  1  0.64123812  0.25463609  0.36211899  1  -0.006212  -0.003962  -0.018047  -0.016288  -0.002245  3.976888  -0.003
C  C101  1  0.35858468  0.24515995  0.86213524  1  -0.006624  0.001663  -0.018106  -0.016829  0.00103  3.97809  0.001
C  C102  1  0.35866980  0.74525441  0.63795531  1  -0.00559  0.011075  -0.01761  -0.016535  0.006504  3.977942  0.009
C  C103  1  0.64123329  0.75460881  0.13784000  1  -0.007099  0.000404  -0.018165  -0.016222  0.000199  3.977204  0.0
C  C104  1  0.75597397  0.29816154  0.38688748  1  0.014194  0.005672  -0.087531  -0.205871  0.002989  3.926203  0.004
C  C105  1  0.24383230  0.20141580  0.88684057  1  0.020475  -0.000118  -0.087442  -0.206285  -0.000108  3.92634  0.0
C  C106  1  0.24393768  0.70170587  0.61316753  1  0.013171  0.005439  -0.087562  -0.206186  0.002943  3.92597  0.003
C  C107  1  0.75597262  0.79863620  0.11314252  1  0.020251  0.002355  -0.08772  -0.206066  0.001252  3.926118  0.001
C  C108  1  0.84782472  0.31279372  0.34077427  1  0.411674  -0.000764  0.08026  0.254078  -0.000244  4.035687  -0.001
C  C109  1  0.15205981  0.18670283  0.84067105  1  0.405857  -0.00115  0.08057  0.255101  -0.000436  4.034928  -0.001
C  C110  1  0.15206735  0.68706319  0.65927135  1  0.41144  -0.000432  0.080428  0.253616  -0.000143  4.035268  -0.001
C  C111  1  0.84779493  0.81352642  0.15930111  1  0.409556  -0.00099  0.08006  0.254313  -0.000426  4.03531  -0.001
C  C112  1  0.82779738  0.29015489  0.26997606  1  -0.003831  0.00555  -0.083654  -0.184166  0.002964  3.908191  0.004
C  C113  1  0.17219479  0.20962517  0.76994108  1  -0.061898  -4.7e-05  -0.083208  -0.183872  -0.000106  3.908964  0.0
C  C114  1  0.17211396  0.70984337  0.73004612  1  -0.004478  0.004756  -0.083292  -0.183234  0.002612  3.907868  0.003
C  C115  1  0.82768959  0.79052231  0.23004045  1  -0.067107  0.002559  -0.083366  -0.183745  0.001257  3.909354  0.002
C  C116  1  0.71313897  0.24885798  0.24486583  1  -0.01224  -0.004102  -0.021095  -0.021182  -0.00232  3.983867  -0.003
C  C117  1  0.28691769  0.25116731  0.74494092  1  0.072757  -0.008168  -0.021065  -0.021058  -0.004925  3.98662  -0.006
C  C118  1  0.28677346  0.75115919  0.75514853  1  -0.010517  0.008413  -0.020524  -0.020334  0.004995  3.984458  0.006
C  C119  1  0.71299042  0.74875198  0.25507344  1  0.05043  -0.002546  -0.02146  -0.020879  -0.001415  3.984902  -0.002
C  C120  1  0.00472010  0.44339944  0.40511200  1  0.356833  -0.002304  -0.067292  -0.132879  -0.001528  3.85073  -0.002
C  C121  1  0.99497549  0.05604266  0.90491477  1  0.346779  -0.001933  -0.067337  -0.133529  -0.001336  3.851046  -0.002
C  C122  1  0.99522815  0.55641576  0.59494353  1  0.354404  -0.002077  -0.067353  -0.133748  -0.001392  3.852095  -0.002
C  C123  1  0.00452096  0.94414490  0.09484679  1  0.346791  0.005144  -0.067317  -0.133523  0.002905  3.853011  0.003
C  C124  1  0.12067265  0.45503775  0.43772592  1  1.589455  -0.006263  0.215795  0.598188  -0.003625  4.144618  -0.005
C  C125  1  0.87910308  0.04468460  0.93757122  1  1.591374  -0.006368  0.216369  0.596846  -0.003724  4.145164  -0.005
C  C126  1  0.87927194  0.54473386  0.56234524  1  1.591441  -0.006685  0.215894  0.597076  -0.004036  4.146325  -0.005
C  C127  1  0.12048982  0.95563285  0.06225552  1  1.595582  0.004751  0.216746  0.599835  0.004425  4.143684  0.003
C  C128  1  0.69380707  0.22508495  0.16830804  1  1.542952  0.001288  0.211148  0.57821  0.000457  4.171017  0.001
C  C129  1  0.30630657  0.27531138  0.66850024  1  1.522875  -0.001237  0.211448  0.577456  -0.002272  4.173043  0.001
C  C130  1  0.30598722  0.77509635  0.83165004  1  1.54797  0.001558  0.210805  0.576854  0.002497  4.171567  0.0
C  C131  1  0.69370790  0.72477474  0.33160015  1  1.546888  0.001426  0.211009  0.576588  0.000521  4.174953  0.001
C  C132  1  0.54276165  0.23562645  0.41322613  1  1.569391  0.00157  0.214147  0.58749  0.000627  4.166131  0.002
C  C133  1  0.45702503  0.26415103  0.91319672  1  1.572658  -0.001812  0.213814  0.587397  -0.000908  4.16618  -0.002
C  C134  1  0.45706964  0.76415949  0.58688205  1  1.571694  -0.001659  0.214263  0.587553  0.000425  4.166733  -0.003
C  C135  1  0.54277814  0.73541872  0.08675556  1  1.569684  -0.001849  0.213531  0.586274  -0.000911  4.167606  -0.002
C  C136  1  0.14402661  0.24511272  0.11275771  1  -0.052908  0.000891  -0.017276  -0.017637  0.000456  3.993008  0.001
C  C137  1  0.85620591  0.25503999  0.61287344  1  0.017592  0.001616  -0.017533  -0.018579  0.000951  3.991274  0.001
C  C138  1  0.85616951  0.75518466  0.88716439  1  0.01802  0.010825  -0.01699  -0.017044  0.006322  3.991375  0.009
C  C139  1  0.14408416  0.74506719  0.38720712  1  -0.051271  0.000554  -0.017226  -0.017733  0.000378  3.992642  0.0
C  C140  1  0.11893029  0.22738827  0.18376028  1  -0.037941  0.002077  -0.082847  -0.126577  0.001207  3.940684  0.002
C  C141  1  0.88114163  0.27255319  0.68392720  1  -0.042679  -0.00236  -0.08271  -0.126885  -0.001285  3.940924  -0.001
C  C142  1  0.88109925  0.77278405  0.81612167  1  -0.038047  0.002751  -0.082933  -0.127385  0.001644  3.940969  0.002
C  C143  1  0.11905418  0.72749240  0.31617526  1  -0.043024  0.001621  -0.083378  -0.127726  0.000893  3.941443  0.001
C  C144  1  0.20878926  0.24172017  0.23147360  1  -0.010081  0.012292  -0.022067  -0.020796  0.007231  4.002129  0.01
C  C145  1  0.79121797  0.25820968  0.73164557  1  -0.007597  -0.000387  -0.022247  -0.020559  -0.000217  4.001086  0.0
C  C146  1  0.79114722  0.75845228  0.76845006  1  -0.011821  0.012272  -0.022209  -0.019625  0.007178  4.001466  0.01
C  C147  1  0.20894664  0.74192594  0.26845742  1  -0.008934  -0.001433  -0.021683  -0.019319  -0.000797  4.001408  -0.001
C  C148  1  0.32398818  0.27240961  0.20828427  1  -0.013471  0.001054  -0.090514  -0.19858  0.000623  3.942865  0.001
C  C149  1  0.67610444  0.22784347  0.70836460  1  -0.011028  -0.003065  -0.090774  -0.198832  -0.00171  3.942684  -0.002
C  C150  1  0.67604159  0.72800634  0.79176037  1  -0.012576  0.001885  -0.090764  -0.199588  0.001076  3.944299  0.001
C  C151  1  0.32412495  0.77266675  0.29167795  1  -0.008787  0.001463  -0.091308  -0.200705  0.00072  3.944396  0.001
C  C152  1  0.34729862  0.28969708  0.13750856  1  0.329168  0.000263  0.069517  0.231787  0.000238  4.057399  0.0
C  C153  1  0.65292060  0.21082612  0.63753550  1  0.381876  0.000596  0.069954  0.232327  0.000199  4.055358  0.001
C  C154  1  0.65289339  0.71089582  0.86256842  1  0.381463  0.000915  0.070453  0.233745  0.000565  4.056072  0.0
C  C155  1  0.34740450  0.78987487  0.36247788  1  0.327411  0.000219  0.069973  0.233231  0.000198  4.056408  0.0
C  C156  1  0.25903586  0.27697592  0.08929639  1  0.104923  -2.6e-05  -0.085044  -0.186807  -0.000101  3.935749  0.0
C  C157  1  0.74123835  0.22339254  0.58936448  1  -0.01749  -0.003726  -0.084899  -0.18598  -0.001903  3.934027  -0.003
C  C158  1  0.74121501  0.72346248  0.91070861  1  -0.016921  0.001856  -0.0849  -0.18645  0.000953  3.934067  0.001
C  C159  1  0.25907450  0.77702878  0.41068692  1  0.106772  0.001226  -0.084941  -0.186723  0.000691  3.935667  0.0
C  C160  1  0.51078658  0.42645771  0.08581756  1  0.352624  -0.001084  -0.065022  -0.127246  -0.000817  3.860182  -0.001
C  C161  1  0.48942890  0.07417224  0.58589423  1  0.355632  0.001757  -0.065093  -0.128425  0.001178  3.864486  0.002
C  C162  1  0.48961751  0.57400545  0.91409986  1  0.359777  -0.000999  -0.064631  -0.128184  -0.000763  3.865317  -0.001
C  C163  1  0.51084908  0.92657699  0.41424167  1  0.354138  0.004698  -0.065523  -0.128052  0.002684  3.861247  0.003
C  C164  1  0.62243066  0.44154825  0.04765896  1  1.575978  -0.003811  0.220483  0.601418  -0.001937  4.146873  -0.003
C  C165  1  0.37762509  0.05880874  0.54783925  1  1.578696  0.004439  0.220294  0.601223  0.002544  4.147436  0.003
C  C166  1  0.37769801  0.55840823  0.95204465  1  1.574577  -0.00408  0.220559  0.601962  -0.002059  4.147955  -0.003
C  C167  1  0.62245327  0.94159114  0.45245303  1  1.577043  0.004156  0.220442  0.602232  0.003905  4.147054  0.003
C  C168  1  0.04775600  0.23034945  0.06159340  1  1.567623  -0.001465  0.215669  0.59009  -0.001036  4.15755  -0.001
C  C169  1  0.95260736  0.26985210  0.56169918  1  1.568215  -0.001596  0.216272  0.591956  -0.000831  4.156119  -0.002
C  C170  1  0.95243992  0.76994135  0.93833444  1  1.564995  -0.002851  0.215949  0.590178  -0.000411  4.157864  -0.004
C  C171  1  0.04769227  0.73015952  0.43833445  1  1.567799  -0.001349  0.21584  0.59126  -0.000678  4.15669  -0.001
C  C172  1  0.18423745  0.22617974  0.30791726  1  1.572563  -0.001365  0.212119  0.587689  0.001023  4.18728  -0.003
C  C173  1  0.81581440  0.27327269  0.80816439  1  1.57137  -0.000493  0.212318  0.587157  -0.000688  4.185646  -0.001
C  C174  1  0.81548242  0.77352991  0.69193337  1  1.570349  -0.001312  0.211514  0.586672  0.001036  4.187473  -0.003
C  C175  1  0.18434207  0.72638899  0.19197556  1  1.572328  -0.000426  0.212226  0.587155  -0.000672  4.188096  -0.001
O  O176  1  0.96241429  0.34452227  0.36391207  1  -1.061716  0.028926  -0.183556  -0.214045  0.016936  2.624728  0.026
O  O177  1  0.03741507  0.15488852  0.86372361  1  -1.060709  0.028831  -0.183979  -0.21408  0.016875  2.626665  0.026
O  O178  1  0.03747547  0.65527624  0.63616900  1  -1.060274  0.02897  -0.183654  -0.213066  0.016919  2.623125  0.026
O  O179  1  0.96243339  0.84559838  0.13626631  1  -1.064069  0.028981  -0.183576  -0.213343  0.016861  2.624911  0.025
O  O180  1  0.18474178  0.54707376  0.46036260  1  -1.171187  0.003857  -0.295554  -0.51742  0.002216  2.205932  0.003
O  O181  1  0.81479615  0.95280307  0.96018237  1  -1.170608  0.003684  -0.294861  -0.515424  0.002131  2.208069  0.003
O  O182  1  0.81512991  0.45272413  0.53976904  1  -1.17187  0.001969  -0.294942  -0.516142  0.001332  2.207167  0.002
O  O183  1  0.18471504  0.04754894  0.03961465  1  -1.173803  0.015543  -0.294976  -0.516811  0.008108  2.207182  0.013
O  O184  1  0.14685248  0.36862603  0.44161885  1  -1.130808  0.021658  -0.308388  -0.571644  0.011772  2.523079  0.022
O  O185  1  0.85337124  0.13139564  0.94149078  1  -1.130141  0.024422  -0.308215  -0.570791  0.013816  2.528719  0.024
O  O186  1  0.85316077  0.63121400  0.55839444  1  -1.131093  0.023567  -0.308346  -0.571317  0.012995  2.527198  0.025
O  O187  1  0.14673543  0.86921870  0.05855858  1  -1.131496  0.106924  -0.309377  -0.572942  0.061506  2.526415  0.095
O  O188  1  0.78165490  0.26230252  0.12842340  1  -1.13151  -0.063954  -0.306732  -0.545029  -0.036122  2.336597  -0.059
O  O189  1  0.21829676  0.23835253  0.62872262  1  -1.130964  -0.071663  -0.3064  -0.54365  -0.039956  2.344615  -0.066
O  O190  1  0.21800432  0.73814841  0.87144401  1  -1.13076  0.072713  -0.306134  -0.543938  0.040651  2.341523  0.066
O  O191  1  0.78179672  0.76162743  0.37131988  1  -1.132316  -0.064229  -0.306251  -0.543675  -0.036314  2.339708  -0.059
O  O192  1  0.59029985  0.16561147  0.14786197  1  -1.172188  0.051672  -0.329324  -0.604463  0.029677  2.308844  0.046
O  O193  1  0.40975854  0.33470178  0.64793612  1  -1.176152  -0.05543  -0.329211  -0.604262  -0.031314  2.312391  -0.05
O  O194  1  0.40949200  0.83441600  0.85222122  1  -1.177692  0.055703  -0.329268  -0.603792  0.031382  2.312999  0.05
O  O195  1  0.59021618  0.66562917  0.35220028  1  -1.173836  0.052686  -0.329013  -0.603624  0.030266  2.308328  0.047
O  O196  1  0.44072791  0.17730918  0.39300325  1  -1.14985  0.058336  -0.316791  -0.57337  0.033138  2.321551  0.053
O  O197  1  0.55915023  0.32194438  0.89290932  1  -1.154206  -0.057448  -0.316538  -0.573166  -0.032719  2.320826  -0.052
O  O198  1  0.55925833  0.82203407  0.60707046  1  -1.151078  0.058776  -0.31667  -0.572806  0.032945  2.324966  0.054
O  O199  1  0.44082765  0.67676030  0.10699279  1  -1.151183  -0.058019  -0.316464  -0.572896  -0.033064  2.322212  -0.053
O  O200  1  0.57121658  0.28015880  0.47300408  1  -1.145921  -0.07339  -0.309924  -0.547839  -0.041579  2.379923  -0.067
O  O201  1  0.42837725  0.22000657  0.97306114  1  -1.145687  0.071215  -0.310437  -0.549162  0.040185  2.383312  0.065
O  O202  1  0.42848901  0.71989586  0.52704367  1  -1.145619  0.074138  -0.310159  -0.548403  0.041304  2.386733  0.069
O  O203  1  0.57103749  0.78006585  0.02701061  1  -1.145157  0.072201  -0.309625  -0.547631  0.040753  2.379958  0.066
O  O204  1  0.07853442  0.19478597  0.32717800  1  -1.139664  0.069251  -0.316077  -0.552466  0.038812  2.373368  0.063
O  O205  1  0.92163641  0.30478036  0.82720698  1  -1.140722  0.064824  -0.316978  -0.552622  0.036819  2.372176  0.059
O  O206  1  0.92124912  0.80532794  0.67271386  1  -1.136632  0.069688  -0.316356  -0.55239  0.03904  2.374608  0.063
O  O207  1  0.07873807  0.69594891  0.17269640  1  -1.139196  0.065753  -0.316183  -0.55176  0.037386  2.372805  0.059
O  O208  1  0.27307161  0.24643954  0.34690237  1  -1.146757  0.076137  -0.314898  -0.548715  0.042299  2.38619  0.07
O  O209  1  0.72708739  0.25246058  0.84733584  1  -1.149197  -0.072249  -0.314976  -0.548298  -0.040619  2.380194  -0.066
O  O210  1  0.72659985  0.75247066  0.65288352  1  -1.149591  0.076198  -0.315086  -0.549387  0.042479  2.383333  0.07
O  O211  1  0.27313409  0.74574798  0.15305626  1  -1.147897  -0.07281  -0.314794  -0.548185  -0.040941  2.38422  -0.066
O  O212  1  0.94415874  0.18038612  0.08322358  1  -1.144421  -0.058383  -0.316906  -0.568722  -0.033408  2.371088  -0.053
O  O213  1  0.05616377  0.32036169  0.58330544  1  -1.147044  -0.058521  -0.316935  -0.569615  -0.033419  2.368593  -0.053
O  O214  1  0.05607926  0.82039066  0.91686228  1  -1.145036  0.058072  -0.31716  -0.568774  0.032712  2.370877  0.054
O  O215  1  0.94420840  0.67984749  0.41655303  1  -1.146585  -0.057788  -0.317271  -0.569743  -0.033058  2.372495  -0.053
O  O216  1  0.07809192  0.26954294  0.00073298  1  -1.149382  0.063223  -0.313581  -0.557923  0.036018  2.391969  0.059
O  O217  1  0.92242449  0.23033237  0.50090065  1  -1.147121  0.066188  -0.312986  -0.557328  0.037823  2.389644  0.061
O  O218  1  0.92217151  0.73042868  0.99911817  1  -1.146642  0.065297  -0.3129  -0.557142  0.036768  2.39349  0.061
O  O219  1  0.07765534  0.76947986  0.49919397  1  -1.148004  0.066209  -0.312898  -0.557724  0.037798  2.389654  0.061
O  O220  1  0.46306347  0.31837640  0.11580323  1  -1.069167  0.0267  -0.192194  -0.229397  0.015669  2.628016  0.023
O  O221  1  0.53723006  0.18235232  0.61572242  1  -1.072285  -0.026151  -0.192089  -0.228966  -0.015415  2.628115  -0.023
O  O222  1  0.53718067  0.68222340  0.88437854  1  -1.072433  0.026775  -0.192337  -0.22964  0.015672  2.629052  0.023
O  O223  1  0.46310869  0.81854274  0.38421226  1  -1.069446  0.026665  -0.192124  -0.229383  0.015567  2.625715  0.023
O  O224  1  0.68194784  0.53616598  0.02506519  1  -1.192281  0.005883  -0.300589  -0.542552  0.003308  2.227841  0.005
O  O225  1  0.31810229  0.96400851  0.52543189  1  -1.194102  -0.004382  -0.30087  -0.542696  -0.002714  2.226686  -0.004
O  O226  1  0.31835052  0.46361345  0.97447312  1  -1.191647  0.005916  -0.300817  -0.54302  0.003314  2.228432  0.005
O  O227  1  0.68213086  0.03623182  0.47495786  1  -1.192279  0.013183  -0.300273  -0.542241  0.006817  2.228216  0.011
O  O228  1  0.65111183  0.35806689  0.03918507  1  -1.138384  0.023213  -0.298591  -0.559539  0.012982  2.535878  0.022
O  O229  1  0.34876607  0.14210191  0.53919136  1  -1.13719  -0.020352  -0.298703  -0.559518  -0.010845  2.534999  -0.021
O  O230  1  0.34852222  0.64158599  0.96053783  1  -1.139426  0.023154  -0.298806  -0.55994  0.012661  2.532865  0.023
O  O231  1  0.65114120  0.85814742  0.46095546  1  -1.141169  0.092216  -0.299617  -0.560973  0.053357  2.538023  0.082
O  O232  1  0.20967320  0.01172668  0.41086442  1  -1.209524  0.048218  -0.560227  -0.730398  0.027728  2.087582  0.043
O  O233  1  0.78940102  0.48755066  0.91030160  1  -1.178277  -0.049435  -0.56043  -0.728533  -0.028757  2.083837  -0.043
O  O234  1  0.79036060  0.98746227  0.58948714  1  -1.188512  0.048348  -0.561089  -0.731095  0.027829  2.084409  0.043
O  O235  1  0.20976503  0.51102878  0.08901767  1  -1.214905  -0.047675  -0.560187  -0.729432  -0.027603  2.085811  -0.042
O  O236  1  0.30356770  0.46998871  0.58345709  1  -1.175128  -0.04788  -0.549378  -0.71334  -0.027615  2.167105  -0.042
O  O237  1  0.69781633  0.03073115  0.08336434  1  -1.188051  -0.049621  -0.54937  -0.711786  -0.028749  2.164352  -0.042
O  O238  1  0.69742732  0.53014011  0.41643783  1  -1.183199  -0.047523  -0.549071  -0.711072  -0.027349  2.167058  -0.041
O  O239  1  0.30342838  0.96971455  0.91695759  1  -1.182768  0.047632  -0.549419  -0.712115  0.027274  2.165879  0.041
O  O240  1  0.35430501  0.32970327  0.49143451  1  -1.143021  -0.088396  -0.55107  -0.846337  -0.049506  2.349791  -0.08
O  O241  1  0.64519239  0.16986289  0.99229062  1  -1.138344  -0.048785  -0.54992  -0.843195  -0.029143  2.353372  -0.042
O  O242  1  0.64574548  0.66935683  0.50763086  1  -1.13239  0.113002  -0.55006  -0.843397  0.062399  2.352608  0.103
O  O243  1  0.35394201  0.82918882  0.00871633  1  -1.14652  0.089852  -0.550371  -0.845318  0.050202  2.350548  0.081
O  O244  1  0.87860919  0.08268945  0.39663256  1  -1.219913  0.046512  -0.56362  -0.749329  0.0269  2.156945  0.039
O  O245  1  0.12239138  0.41622918  0.89568784  1  -1.225213  0.046652  -0.563088  -0.749081  0.027082  2.154584  0.039
O  O246  1  0.12130686  0.91718698  0.60349179  1  -1.223954  0.046699  -0.563546  -0.74933  0.027029  2.156888  0.04
O  O247  1  0.87840482  0.58356821  0.10365337  1  -1.226682  0.047017  -0.564145  -0.750091  0.027293  2.153618  0.039
O  O248  1  0.39736617  0.04957091  0.06730468  1  -1.176367  0.047159  -0.539753  -0.713883  0.026953  2.164297  0.041
O  O249  1  0.60222695  0.45049044  0.56721528  1  -1.181673  -0.046348  -0.539487  -0.713879  -0.026684  2.165541  -0.04
O  O250  1  0.60187852  0.95046704  0.93284476  1  -1.184972  0.047059  -0.539695  -0.714209  0.027155  2.163993  0.041
O  O251  1  0.39770370  0.54967964  0.43291328  1  -1.180782  0.047214  -0.539857  -0.714331  0.027337  2.163869  0.041
O  O252  1  0.13089675  0.17501964  0.48268614  1  -1.11838  0.073206  -0.546489  -0.858547  0.041016  2.35989  0.068
O  O253  1  0.87006647  0.32549993  0.98177134  1  -1.116505  -0.058512  -0.545798  -0.857755  -0.034251  2.353901  -0.05
O  O254  1  0.86878473  0.82448469  0.51728229  1  -1.117969  0.074275  -0.546704  -0.859656  0.041718  2.359391  0.069
O  O255  1  0.13045768  0.67428141  0.01807038  1  -1.114624  0.107003  -0.545414  -0.857416  0.05973  2.353097  0.096
