# generated using pymatgen
data_Li2H4C2S(NO3)2
_symmetry_space_group_name_H-M   'P 1'
_cell_length_a   7.25035175
_cell_length_b   8.21188605
_cell_length_c   11.14204463
_cell_angle_alpha   89.99998225
_cell_angle_beta   89.99995702
_cell_angle_gamma   101.91334803
_symmetry_Int_Tables_number   1
_chemical_formula_structural   Li2H4C2S(NO3)2
_chemical_formula_sum   'Li8 H16 C8 S4 N8 O24'
_cell_volume   649.09814651
_cell_formula_units_Z   4
loop_
 _symmetry_equiv_pos_site_id
 _symmetry_equiv_pos_as_xyz
  1  'x, y, z'
loop_
 _atom_site_type_symbol
 _atom_site_label
 _atom_site_symmetry_multiplicity
 _atom_site_fract_x
 _atom_site_fract_y
 _atom_site_fract_z
 _atom_site_occupancy
 _atom_site_hle17_bader_spin_density
 _atom_site_hle17_ddec_charge
 _atom_site_hle17_ddec_spin_density
 _atom_site_hle17_ddec_sum_bond_order
 _atom_site_hle17_magmom
 _atom_site_hse06_10hf_bader_spin_density
 _atom_site_hse06_10hf_ddec_charge
 _atom_site_hse06_10hf_ddec_spin_density
 _atom_site_hse06_10hf_ddec_sum_bond_order
 _atom_site_hse06_10hf_magmom
 _atom_site_hse06_bader_spin_density
 _atom_site_hse06_ddec_charge
 _atom_site_hse06_ddec_spin_density
 _atom_site_hse06_ddec_sum_bond_order
 _atom_site_hse06_magmom
 _atom_site_pbe_bader_spin_density
 _atom_site_pbe_cm5_charge
 _atom_site_pbe_ddec_charge
 _atom_site_pbe_ddec_spin_density
 _atom_site_pbe_ddec_sum_bond_order
 _atom_site_pbe_magmom
Li  Li0  1  0.20548925  0.49713750  0.01158394  1  0  0.865742  0  0.356779  0  0  0.83466  0  0.444128  0  0  0.842904  0  0.429634  0  0  0.486569  0.828555  0  0.454651  0
Li  Li1  1  0.29451083  0.00286252  0.51158467  1  0  0.865732  0  0.356787  0  0  0.834645  0  0.44415  0  0  0.842887  0  0.429654  0  0  0.486556  0.82854  0  0.454672  0
Li  Li2  1  0.79451123  0.50286380  0.98841618  1  0  0.865733  0  0.356791  0  0  0.834647  0  0.444146  0  0  0.842888  0  0.429656  0  0  0.486557  0.828542  0  0.454668  0
Li  Li3  1  0.70548936  0.99713754  0.48841635  1  0  0.865735  0  0.356792  0  0  0.834652  0  0.444142  0  0  0.842894  0  0.429651  0  0  0.486558  0.828548  0  0.454664  0
Li  Li4  1  0.02545710  0.31249322  0.45103926  1  0  0.885822  0  0.320626  0  0  0.846372  0  0.42273  0  0  0.855598  0  0.406549  0  0  0.465481  0.839549  0  0.43456  0
Li  Li5  1  0.47454378  0.18750651  0.95103895  1  0  0.885822  0  0.320615  0  0  0.846365  0  0.422733  0  0  0.85559  0  0.406552  0  0  0.465471  0.83954  0  0.434564  0
Li  Li6  1  0.97454338  0.68750808  0.54896176  1  0  0.885818  0  0.320629  0  0  0.846369  0  0.422731  0  0  0.855596  0  0.406545  0  0  0.46548  0.839544  0  0.434561  0
Li  Li7  1  0.52545611  0.81249230  0.04896117  1  0  0.88582  0  0.320626  0  0  0.846368  0  0.422738  0  0  0.855595  0  0.406554  0  0  0.465479  0.839544  0  0.434569  0
H  H8  1  0.98118411  0.31867564  0.84795989  1  0  0.42576  0  0.871061  0  0  0.39362  0  0.936235  0  0  0.402977  0  0.922632  0  0  0.306806  0.387033  0  0.945814  0
H  H9  1  0.51881521  0.18132496  0.34796023  1  0  0.425779  0  0.871037  0  0  0.393637  0  0.936213  0  0  0.402997  0  0.922607  0  0  0.306802  0.387052  0  0.945792  0
H  H10  1  0.01881637  0.68132566  0.15203844  1  0  0.425764  0  0.871051  0  0  0.393627  0  0.936219  0  0  0.402986  0  0.922614  0  0  0.306808  0.387041  0  0.945798  0
H  H11  1  0.48118388  0.81867634  0.65203990  1  0  0.425784  0  0.871029  0  0  0.393644  0  0.936202  0  0  0.403002  0  0.922598  0  0  0.306813  0.387058  0  0.94578  0
H  H12  1  0.98748972  0.50148486  0.80528637  1  0  0.438053  0  0.836203  0  0  0.411102  0  0.904056  0  0  0.419661  0  0.891422  0  0  0.322494  0.405021  0  0.913047  0
H  H13  1  0.51250943  0.99851535  0.30528574  1  0  0.43807  0  0.836181  0  0  0.411117  0  0.904035  0  0  0.419677  0  0.891401  0  0  0.322497  0.405038  0  0.913026  0
H  H14  1  0.01250909  0.49851520  0.19471196  1  0  0.438082  0  0.836176  0  0  0.411131  0  0.904018  0  0  0.419691  0  0.891383  0  0  0.322512  0.405052  0  0.913008  0
H  H15  1  0.48749075  0.00148470  0.69471438  1  0  0.438043  0  0.836221  0  0  0.411091  0  0.904074  0  0  0.419649  0  0.891441  0  0  0.322488  0.405012  0  0.913064  0
H  H16  1  0.37756167  0.66811951  0.84815027  1  0  0.415074  0  0.892743  0  0  0.381557  0  0.961392  0  0  0.391011  0  0.947524  0  0  0.301967  0.374917  0  0.971133  0
H  H17  1  0.12243803  0.83188111  0.34815052  1  0  0.415065  0  0.892759  0  0  0.381548  0  0.961409  0  0  0.391003  0  0.947541  0  0  0.301962  0.374909  0  0.97115  0
H  H18  1  0.62243851  0.33188054  0.15185075  1  0  0.415062  0  0.892763  0  0  0.381547  0  0.961409  0  0  0.391002  0  0.947541  0  0  0.301949  0.374906  0  0.971152  0
H  H19  1  0.87756215  0.16811894  0.65184961  1  0  0.415081  0  0.892737  0  0  0.381565  0  0.961385  0  0  0.391019  0  0.947518  0  0  0.30196  0.374925  0  0.971125  0
H  H20  1  0.22781308  0.75212496  0.91122310  1  0  0.412668  0  0.900068  0  0  0.379874  0  0.968154  0  0  0.389654  0  0.953938  0  0  0.302542  0.373018  0  0.978108  0
H  H21  1  0.27218516  0.74787563  0.41122330  1  0  0.412525  0  0.900275  0  0  0.379764  0  0.968302  0  0  0.389544  0  0.954087  0  0  0.302494  0.37291  0  0.978258  0
H  H22  1  0.77218710  0.24787510  0.08877792  1  0  0.412662  0  0.900081  0  0  0.379855  0  0.968189  0  0  0.389636  0  0.953972  0  0  0.302519  0.372999  0  0.978143  0
H  H23  1  0.72781394  0.25212567  0.58877773  1  0  0.412676  0  0.900069  0  0  0.379877  0  0.968163  0  0  0.389657  0  0.953946  0  0  0.302537  0.373021  0  0.978117  0
C  C24  1  0.63708500  0.65928131  0.40999813  1  0  0.474353  0  3.898286  0  0  0.432192  0  4.19742  0  0  0.457255  0  4.196374  0  0  0.243967  0.415288  0  4.197705  0
C  C25  1  0.86291263  0.84071884  0.90999874  1  0  0.474362  0  3.898319  0  0  0.43218  0  4.197477  0  0  0.45724  0  4.196431  0  0  0.243952  0.415275  0  4.197758  0
C  C26  1  0.36291351  0.34071751  0.59000110  1  0  0.474314  0  3.898364  0  0  0.432137  0  4.197519  0  0  0.457199  0  4.196471  0  0  0.243938  0.415232  0  4.197806  0
C  C27  1  0.13708647  0.15928246  0.09000138  1  0  0.474274  0  3.898356  0  0  0.4321  0  4.197512  0  0  0.457162  0  4.196461  0  0  0.243919  0.415195  0  4.197793  0
C  C28  1  0.69892962  0.49806495  0.36969853  1  0  0.482996  0  3.880586  0  0  0.443345  0  4.171371  0  0  0.468554  0  4.170005  0  0  0.249883  0.426291  0  4.171917  0
C  C29  1  0.80106800  0.00193440  0.86969835  1  0  0.482977  0  3.880568  0  0  0.443334  0  4.171359  0  0  0.468541  0  4.169995  0  0  0.249907  0.426278  0  4.171899  0
C  C30  1  0.30107027  0.50193386  0.63030160  1  0  0.483021  0  3.880568  0  0  0.443351  0  4.171396  0  0  0.468561  0  4.17003  0  0  0.249864  0.426296  0  4.171945  0
C  C31  1  0.19893110  0.99806690  0.13030088  1  0  0.483036  0  3.880556  0  0  0.44337  0  4.171376  0  0  0.46858  0  4.170009  0  0  0.24987  0.426319  0  4.171921  0
S  S32  1  0.40277526  0.51260648  0.27463077  1  0  1.408684  0  5.488846  0  0  1.307781  0  6.00736  0  0  1.353349  0  5.990963  0  0  0.674455  1.276263  0  6.018083  0
S  S33  1  0.09722287  0.98739295  0.77463058  1  0  1.408663  0  5.48883  0  0  1.307754  0  6.007341  0  0  1.353317  0  5.990952  0  0  0.674452  1.276235  0  6.018057  0
S  S34  1  0.59722325  0.48739233  0.72537026  1  0  1.4088  0  5.488737  0  0  1.307877  0  6.007254  0  0  1.353447  0  5.990865  0  0  0.674519  1.276358  0  6.017969  0
S  S35  1  0.90277732  0.01260710  0.22537044  1  0  1.408687  0  5.488756  0  0  1.307774  0  6.007272  0  0  1.353342  0  5.990877  0  0  0.674466  1.276258  0  6.017993  0
N  N36  1  0.46665744  0.66763621  0.36754097  1  0  -0.65036  0  2.928158  0  0  -0.591541  0  3.199253  0  0  -0.615431  0  3.201365  0  0  -0.349199  -0.575307  0  3.197716  0
N  N37  1  0.03334224  0.83236440  0.86754085  1  0  -0.650392  0  2.928173  0  0  -0.591542  0  3.199287  0  0  -0.615426  0  3.201392  0  0  -0.349194  -0.575308  0  3.197744  0
N  N38  1  0.53334245  0.33236260  0.63246005  1  0  -0.650399  0  2.928166  0  0  -0.591533  0  3.199258  0  0  -0.615419  0  3.201365  0  0  -0.349183  -0.575299  0  3.197712  0
N  N39  1  0.96665824  0.16763690  0.13246017  1  0  -0.650366  0  2.928199  0  0  -0.591502  0  3.199286  0  0  -0.615383  0  3.201389  0  0  -0.34917  -0.575266  0  3.19774  0
N  N40  1  0.56750863  0.40418093  0.29823413  1  0  -0.682049  0  2.902247  0  0  -0.613123  0  3.155469  0  0  -0.637263  0  3.155382  0  0  -0.354793  -0.596618  0  3.155391  0
N  N41  1  0.93249046  0.09581846  0.79823297  1  0  -0.681978  0  2.90224  0  0  -0.613057  0  3.155462  0  0  -0.637194  0  3.155376  0  0  -0.35477  -0.596551  0  3.155378  0
N  N42  1  0.43248988  0.59581788  0.70176690  1  0  -0.682038  0  2.902208  0  0  -0.613103  0  3.15543  0  0  -0.637249  0  3.155347  0  0  -0.35478  -0.5966  0  3.15535  0
N  N43  1  0.06751110  0.90418159  0.20176626  1  0  -0.681972  0  2.902184  0  0  -0.613054  0  3.155411  0  0  -0.637198  0  3.15533  0  0  -0.354758  -0.596555  0  3.155334  0
O  O44  1  0.21680696  0.41707303  0.30525357  1  0  -0.676004  0  1.993097  0  0  -0.629633  0  2.254475  0  0  -0.649867  0  2.241916  0  0  -0.311405  -0.615351  0  2.262771  0
O  O45  1  0.28319106  0.08292555  0.80525338  1  0  -0.676011  0  1.993052  0  0  -0.62964  0  2.254461  0  0  -0.649857  0  2.24186  0  0  -0.311402  -0.615357  0  2.262754  0
O  O46  1  0.78318987  0.58292454  0.69474656  1  0  -0.676071  0  1.99311  0  0  -0.629705  0  2.25453  0  0  -0.649902  0  2.241878  0  0  -0.311433  -0.615424  0  2.262822  0
O  O47  1  0.71680913  0.91707450  0.19474674  1  0  -0.676032  0  1.993027  0  0  -0.629646  0  2.254407  0  0  -0.649861  0  2.241799  0  0  -0.311415  -0.615363  0  2.262701  0
O  O48  1  0.41698001  0.57461466  0.15138049  1  0  -0.707436  0  1.974298  0  0  -0.661415  0  2.236483  0  0  -0.680649  0  2.222059  0  0  -0.328804  -0.647807  0  2.246032  0
O  O49  1  0.08301966  0.92538485  0.65138032  1  0  -0.707447  0  1.974281  0  0  -0.661419  0  2.236446  0  0  -0.680656  0  2.222024  0  0  -0.328821  -0.647815  0  2.245995  0
O  O50  1  0.58301909  0.42538664  0.84862143  1  0  -0.707492  0  1.9743  0  0  -0.661449  0  2.236451  0  0  -0.680686  0  2.222027  0  0  -0.328831  -0.64784  0  2.245997  0
O  O51  1  0.91698161  0.07461396  0.34862160  1  0  -0.707476  0  1.974329  0  0  -0.661439  0  2.236469  0  0  -0.680674  0  2.222044  0  0  -0.328829  -0.647833  0  2.246019  0
O  O52  1  0.74165612  0.76413315  0.47488744  1  0  -0.638105  0  2.035856  0  0  -0.597437  0  2.278282  0  0  -0.614842  0  2.269156  0  0  -0.367478  -0.585433  0  2.284368  0
O  O53  1  0.75834280  0.73586695  0.97488723  1  0  -0.638098  0  2.035907  0  0  -0.597418  0  2.278345  0  0  -0.614821  0  2.269219  0  0  -0.367457  -0.585416  0  2.284431  0
O  O54  1  0.25834514  0.23586566  0.52511269  1  0  -0.63807  0  2.035903  0  0  -0.597396  0  2.278339  0  0  -0.614796  0  2.269213  0  0  -0.367458  -0.585384  0  2.284402  0
O  O55  1  0.24165659  0.26413559  0.02511290  1  0  -0.638079  0  2.035878  0  0  -0.597381  0  2.278268  0  0  -0.614783  0  2.269139  0  0  -0.367447  -0.585383  0  2.28436  0
O  O56  1  0.85217511  0.46788121  0.40295181  1  0  -0.598539  0  2.020679  0  0  -0.560446  0  2.265974  0  0  -0.577048  0  2.256052  0  0  -0.316916  -0.549049  0  2.272695  0
O  O57  1  0.64782276  0.03211935  0.90295171  1  0  -0.598573  0  2.020654  0  0  -0.560471  0  2.265945  0  0  -0.577073  0  2.256023  0  0  -0.316959  -0.549074  0  2.272665  0
O  O58  1  0.14782310  0.53211635  0.59704652  1  0  -0.598622  0  2.020719  0  0  -0.560493  0  2.265992  0  0  -0.577101  0  2.256066  0  0  -0.316915  -0.549074  0  2.272664  0
O  O59  1  0.35217634  0.96788195  0.09704573  1  0  -0.598623  0  2.020664  0  0  -0.560523  0  2.265994  0  0  -0.577127  0  2.25607  0  0  -0.316934  -0.54911  0  2.272683  0
O  O60  1  0.99914566  0.43524959  0.87699494  1  0  -0.908679  0  1.832982  0  0  -0.867252  0  2.021052  0  0  -0.881693  0  1.991249  0  0  -0.635358  -0.857084  0  2.041937  0
O  O61  1  0.50085195  0.06474975  0.37699531  1  0  -0.908719  0  1.832948  0  0  -0.86729  0  2.021026  0  0  -0.88173  0  1.991218  0  0  -0.635343  -0.857123  0  2.041909  0
O  O62  1  0.00085452  0.56475047  0.12300339  1  0  -0.908732  0  1.83297  0  0  -0.867303  0  2.021034  0  0  -0.881742  0  1.991228  0  0  -0.635381  -0.857134  0  2.041917  0
O  O63  1  0.49914685  0.93525031  0.62300571  1  0  -0.908692  0  1.832975  0  0  -0.867265  0  2.021057  0  0  -0.881704  0  1.991252  0  0  -0.635351  -0.857097  0  2.04194  0
O  O64  1  0.33647200  0.69834851  0.92867499  1  0  -0.947894  0  1.902991  0  0  -0.909611  0  2.097849  0  0  -0.924146  0  2.06614  0  0  -0.690205  -0.899247  0  2.119962  0
O  O65  1  0.16352623  0.80165207  0.42867523  1  0  -0.947779  0  1.903205  0  0  -0.9095  0  2.098007  0  0  -0.924034  0  2.066296  0  0  -0.690152  -0.89914  0  2.120106  0
O  O66  1  0.66352848  0.30165279  0.07132603  1  0  -0.947877  0  1.903009  0  0  -0.909588  0  2.097862  0  0  -0.924122  0  2.066154  0  0  -0.690151  -0.899225  0  2.119979  0
O  O67  1  0.83647258  0.19834799  0.57132490  1  0  -0.947938  0  1.903047  0  0  -0.909653  0  2.09789  0  0  -0.924186  0  2.066181  0  0  -0.6902  -0.899293  0  2.120008  0
