# generated using pymatgen
data_ZnH6(C5N2)2
_symmetry_space_group_name_H-M   'P 1'
_cell_length_a   14.75287523
_cell_length_b   14.75228376
_cell_length_c   14.75284150
_cell_angle_alpha   109.47072529
_cell_angle_beta   109.47312771
_cell_angle_gamma   109.47103527
_symmetry_Int_Tables_number   1
_chemical_formula_structural   ZnH6(C5N2)2
_chemical_formula_sum   'Zn6 H36 C60 N24'
_cell_volume   2471.62818677
_cell_formula_units_Z   6
loop_
 _symmetry_equiv_pos_site_id
 _symmetry_equiv_pos_as_xyz
  1  'x, y, z'
loop_
 _atom_site_type_symbol
 _atom_site_label
 _atom_site_symmetry_multiplicity
 _atom_site_fract_x
 _atom_site_fract_y
 _atom_site_fract_z
 _atom_site_occupancy
 _atom_site_pbe_bader_charge
 _atom_site_pbe_bader_spin_density
 _atom_site_pbe_cm5_charge
 _atom_site_pbe_ddec_charge
 _atom_site_pbe_ddec_spin_density
 _atom_site_pbe_ddec_sum_bond_order
 _atom_site_pbe_magmom
Zn  Zn0  1  0.74997193  0.49999696  0.24997508  1  1.195579  0  0.726305  0.661322  0  2.532605  0
Zn  Zn1  1  0.25001755  0.50000369  0.75001058  1  1.196057  0  0.726562  0.661512  0  2.532539  0
Zn  Zn2  1  0.49999691  0.24999952  0.74997396  1  1.195813  0  0.726355  0.6613  0  2.532703  0
Zn  Zn3  1  0.24997014  0.74998250  0.49996348  1  1.195629  0  0.726266  0.661317  0  2.532603  0
Zn  Zn4  1  0.75002020  0.25001984  0.50001555  1  1.195844  0  0.726451  0.66139  0  2.532448  0
Zn  Zn5  1  0.49996835  0.75000015  0.24999622  1  1.195742  0  0.726302  0.661286  0  2.532744  0
H  H6  1  0.86999665  0.64154512  0.64155934  1  0.208463  0  0.139497  0.218721  0  0.996388  0
H  H7  1  0.77156642  0.77155026  0.13002300  1  0.181719  0  0.139511  0.218626  0  0.996548  0
H  H8  1  0.35847084  0.22844590  0.00001422  1  0.16207  0  0.13951  0.218639  0  0.996522  0
H  H9  1  0.13002056  0.77155513  0.77156655  1  0.181584  0  0.139524  0.218665  0  0.996449  0
H  H10  1  0.22844160  0.99999902  0.35844814  1  0.161978  0  0.139529  0.218696  0  0.996331  0
H  H11  1  0.35844784  0.99999658  0.22844017  1  0.161921  0  0.139532  0.21872  0  0.996366  0
H  H12  1  0.00000577  0.22844032  0.35846481  1  0.162021  0  0.139493  0.218607  0  0.99637  0
H  H13  1  0.22845296  0.35845971  0.00000858  1  0.159876  0  0.1396  0.218793  0  0.99641  0
H  H14  1  0.00001424  0.35846183  0.22845554  1  0.159822  0  0.139569  0.218725  0  0.996503  0
H  H15  1  0.64154815  0.64153829  0.86999046  1  0.208306  0  0.139585  0.218763  0  0.99649  0
H  H16  1  0.77155776  0.13001678  0.77155767  1  0.171233  0  0.139574  0.218711  0  0.996495  0
H  H17  1  0.64153353  0.86997694  0.64153303  1  0.207973  0  0.139527  0.218703  0  0.996443  0
H  H18  1  0.65431629  0.23635349  0.12086214  1  0.104844  0  0.110944  0.103067  0  1.022057  0
H  H19  1  0.58204408  0.46655223  0.34569566  1  0.099248  0  0.110991  0.103193  0  1.021978  0
H  H20  1  0.87914209  0.53344485  0.11549056  1  0.117996  0  0.110967  0.103106  0  1.022071  0
H  H21  1  0.34570036  0.46655013  0.58204981  1  0.099198  0  0.110957  0.103087  0  1.021996  0
H  H22  1  0.53345819  0.11549668  0.87913875  1  0.117972  0  0.110973  0.10314  0  1.022064  0
H  H23  1  0.41795860  0.88449680  0.76364100  1  0.101021  0  0.111002  0.103192  0  1.021948  0
H  H24  1  0.87914764  0.11550054  0.53346143  1  0.117799  0  0.11099  0.103164  0  1.022001  0
H  H25  1  0.76363730  0.88450153  0.41795729  1  0.101296  0  0.110969  0.103144  0  1.022111  0
H  H26  1  0.46654256  0.58204313  0.34569178  1  0.097621  0  0.11097  0.103117  0  1.021921  0
H  H27  1  0.88452522  0.41796496  0.76365790  1  0.101308  0  0.110954  0.103133  0  1.021992  0
H  H28  1  0.34568352  0.58204258  0.46654943  1  0.098136  0  0.110964  0.103063  0  1.022043  0
H  H29  1  0.76364834  0.41795155  0.88449949  1  0.101366  0  0.110963  0.103098  0  1.022003  0
H  H30  1  0.53345955  0.87915391  0.11550385  1  0.117688  0  0.110957  0.103104  0  1.02197  0
H  H31  1  0.11548775  0.87913855  0.53345271  1  0.117973  0  0.110949  0.103119  0  1.022145  0
H  H32  1  0.65431892  0.12086009  0.23636141  1  0.105017  0  0.110966  0.103109  0  1.022076  0
H  H33  1  0.23634752  0.12084681  0.65430576  1  0.104559  0  0.110956  0.103098  0  1.021965  0
H  H34  1  0.46655041  0.34569082  0.58203467  1  0.098059  0  0.110945  0.103067  0  1.022017  0
H  H35  1  0.58204961  0.34569444  0.46655005  1  0.09798  0  0.11095  0.103054  0  1.02206  0
H  H36  1  0.12084730  0.65429965  0.23634110  1  0.104606  0  0.110941  0.103109  0  1.021981  0
H  H37  1  0.23634002  0.65429930  0.12085270  1  0.104722  0  0.110957  0.103078  0  1.022102  0
H  H38  1  0.88449937  0.76364677  0.41796625  1  0.101268  0  0.110978  0.103142  0  1.02201  0
H  H39  1  0.41797417  0.76364906  0.88451191  1  0.101488  0  0.110961  0.10314  0  1.022097  0
H  H40  1  0.12086343  0.23635264  0.65432238  1  0.104996  0  0.110964  0.103152  0  1.022141  0
H  H41  1  0.11551580  0.53345645  0.87915467  1  0.117668  0  0.110979  0.103049  0  1.021969  0
C  C42  1  0.68237779  0.26565323  0.20829029  1  0.295166  0  -0.012054  -0.046596  0  4.042283  0
C  C43  1  0.58326806  0.52591122  0.31762176  1  0.300464  0  -0.012161  -0.047005  0  4.042338  0
C  C44  1  0.79171104  0.47408599  0.05735790  1  0.285741  0  -0.012125  -0.046875  0  4.042312  0
C  C45  1  0.31762766  0.52591095  0.58328095  1  0.444692  0  -0.012061  -0.046626  0  4.042205  0
C  C46  1  0.47409233  0.05736268  0.79170795  1  0.285773  0  -0.012163  -0.046774  0  4.04229  0
C  C47  1  0.41672326  0.94262761  0.73433947  1  0.442452  0  -0.012117  -0.046653  0  4.042108  0
C  C48  1  0.79171507  0.05737052  0.47409542  1  0.429984  0  -0.012101  -0.046697  0  4.042294  0
C  C49  1  0.73434335  0.94263531  0.41672769  1  0.298551  0  -0.012115  -0.046705  0  4.042295  0
C  C50  1  0.52590537  0.58327846  0.31762621  1  0.446004  0  -0.012079  -0.046452  0  4.042348  0
C  C51  1  0.94265470  0.41673328  0.73436122  1  0.299214  0  -0.012122  -0.046977  0  4.042098  0
C  C52  1  0.31762266  0.58327497  0.52591258  1  0.301655  0  -0.012079  -0.04652  0  4.042117  0
C  C53  1  0.73434733  0.41671841  0.94262669  1  0.441904  0  -0.012042  -0.046495  0  4.042428  0
C  C54  1  0.47409604  0.79172006  0.05737318  1  0.430176  0  -0.01205  -0.046543  0  4.04245  0
C  C55  1  0.05735556  0.79170987  0.47408758  1  0.286112  0  -0.012129  -0.04698  0  4.042379  0
C  C56  1  0.68238373  0.20829098  0.26566001  1  0.439153  0  -0.012089  -0.046586  0  4.042042  0
C  C57  1  0.26565283  0.20828040  0.68237540  1  0.439585  0  -0.012017  -0.046453  0  4.042392  0
C  C58  1  0.52591313  0.31762554  0.58326834  1  0.301718  0  -0.012085  -0.046784  0  4.042041  0
C  C59  1  0.58328443  0.31762927  0.52591156  1  0.446032  0  -0.012071  -0.04658  0  4.042384  0
C  C60  1  0.20827599  0.68236628  0.26564318  1  0.439666  0  -0.011995  -0.046625  0  4.042289  0
C  C61  1  0.26563811  0.68236747  0.20827982  1  0.295313  0  -0.012138  -0.046946  0  4.042326  0
C  C62  1  0.94262446  0.73434387  0.41672140  1  0.441779  0  -0.012056  -0.046534  0  4.042379  0
C  C63  1  0.41673593  0.73435525  0.94264372  1  0.298762  0  -0.012145  -0.046864  0  4.042523  0
C  C64  1  0.20828812  0.26564646  0.68237897  1  0.295383  0  -0.012144  -0.04697  0  4.042573  0
C  C65  1  0.05738615  0.47409630  0.79172392  1  0.430099  0  -0.012125  -0.046416  0  4.042075  0
C  C66  1  0.75091344  0.38231658  0.38230940  1  1.034779  0  0.197678  0.312921  0  4.125201  0
C  C67  1  0.63138012  0.63139911  0.24908382  1  1.028955  0  0.19766  0.312779  0  4.125224  0
C  C68  1  0.61768479  0.36859847  0.99998113  1  1.039383  0  0.197716  0.312837  0  4.125073  0
C  C69  1  0.24908890  0.63139755  0.63139929  1  1.028054  0  0.197752  0.312965  0  4.125038  0
C  C70  1  0.36860277  0.99999504  0.61768391  1  1.038956  0  0.197622  0.312874  0  4.125241  0
C  C71  1  0.61769161  0.00001034  0.36861255  1  1.04033  0  0.197623  0.312858  0  4.125222  0
C  C72  1  0.00001339  0.36860932  0.61770043  1  1.041458  0  0.197752  0.312748  0  4.125227  0
C  C73  1  0.36860739  0.61769466  0.00000470  1  1.039034  0  0.197724  0.312841  0  4.125116  0
C  C74  1  0.99998000  0.61768298  0.36859111  1  1.039626  0  0.197663  0.312762  0  4.125122  0
C  C75  1  0.38231016  0.38230424  0.75091109  1  1.033963  0  0.197707  0.312784  0  4.125243  0
C  C76  1  0.63140197  0.24909283  0.63139807  1  1.027529  0  0.19776  0.31282  0  4.125183  0
C  C77  1  0.38229813  0.75090531  0.38230579  1  1.033768  0  0.197832  0.312755  0  4.125026  0
C  C78  1  0.79709397  0.48146942  0.48145699  1  -0.464133  0  -0.041948  -0.048641  0  4.189423  0
C  C79  1  0.68435099  0.68437062  0.20290770  1  -0.199624  0  -0.04203  -0.048913  0  4.189596  0
C  C80  1  0.51853572  0.31562572  0.99997951  1  -0.561727  0  -0.042036  -0.048922  0  4.189573  0
C  C81  1  0.20291026  0.68436731  0.68436840  1  -0.199294  0  -0.042069  -0.04894  0  4.189744  0
C  C82  1  0.31563385  0.99999788  0.51853524  1  -0.561931  0  -0.042029  -0.04879  0  4.189452  0
C  C83  1  0.51854312  0.00001289  0.31564176  1  -0.561577  0  -0.041945  -0.048679  0  4.189495  0
C  C84  1  0.00000827  0.31563359  0.51854557  1  -0.563166  0  -0.042066  -0.048838  0  4.189667  0
C  C85  1  0.31563689  0.51854585  0.00000232  1  -0.57947  0  -0.041939  -0.048744  0  4.189547  0
C  C86  1  0.99998201  0.51853573  0.31562274  1  -0.579521  0  -0.042006  -0.048807  0  4.18963  0
C  C87  1  0.48145658  0.48145117  0.79708849  1  -0.464342  0  -0.041956  -0.04879  0  4.189583  0
C  C88  1  0.68437094  0.20291570  0.68436959  1  -0.200841  0  -0.04204  -0.04898  0  4.189692  0
C  C89  1  0.48144644  0.79708189  0.48145105  1  -0.465117  0  -0.042015  -0.048885  0  4.189611  0
C  C90  1  0.83566395  0.56658929  0.56658728  1  0.119714  0  -0.131347  -0.282815  0  3.716281  0
C  C91  1  0.73091765  0.73092445  0.16434526  1  -0.108919  0  -0.131242  -0.282434  0  3.716398  0
C  C92  1  0.43342286  0.26907486  0.99999581  1  0.270957  0  -0.131258  -0.282472  0  3.716421  0
C  C93  1  0.16434777  0.73092557  0.73092464  1  -0.108808  0  -0.13129  -0.282527  0  3.716454  0
C  C94  1  0.26907820  0.00000111  0.43341247  1  0.26858  0  -0.131265  -0.282639  0  3.7161  0
C  C95  1  0.43341349  0.00000166  0.26907852  1  0.271955  0  -0.131334  -0.28275  0  3.716264  0
C  C96  1  0.00000312  0.26907677  0.43342954  1  0.272447  0  -0.131219  -0.282439  0  3.716474  0
C  C97  1  0.26907998  0.43341882  0.99999895  1  0.288145  0  -0.131446  -0.28279  0  3.716296  0
C  C98  1  0.99999618  0.43341681  0.26907604  1  0.288149  0  -0.131329  -0.282655  0  3.716409  0
C  C99  1  0.56658128  0.56657954  0.83565959  1  0.12029  0  -0.131365  -0.28267  0  3.716346  0
C  C100  1  0.73092537  0.16434688  0.73092357  1  -0.09613  0  -0.131293  -0.282485  0  3.716351  0
C  C101  1  0.56657160  0.83564850  0.56657097  1  0.121885  0  -0.131243  -0.282497  0  3.716297  0
N  N102  1  0.72537858  0.37513554  0.28182007  1  -1.220187  0  -0.36251  -0.322146  0  3.55712  0
N  N103  1  0.64973271  0.55643990  0.27461017  1  -1.220203  0  -0.362285  -0.321419  0  3.556758  0
N  N104  1  0.71816936  0.44355516  0.09329321  1  -1.232916  0  -0.362321  -0.321439  0  3.556691  0
N  N105  1  0.27462432  0.55644098  0.64975439  1  -1.220892  0  -0.362582  -0.322058  0  3.556998  0
N  N106  1  0.44356449  0.09330742  0.71817135  1  -1.233237  0  -0.362448  -0.321919  0  3.557111  0
N  N107  1  0.35024778  0.90668098  0.62485903  1  -1.222636  0  -0.36247  -0.322136  0  3.556918  0
N  N108  1  0.71818420  0.09332028  0.44357110  1  -1.23537  0  -0.362517  -0.321991  0  3.556921  0
N  N109  1  0.62486262  0.90669560  0.35025579  1  -1.223159  0  -0.362438  -0.321974  0  3.557125  0
N  N110  1  0.55642746  0.64975417  0.27462010  1  -1.220964  0  -0.362451  -0.322159  0  3.556964  0
N  N111  1  0.90670958  0.35025975  0.62488188  1  -1.222935  0  -0.362253  -0.321301  0  3.556729  0
N  N112  1  0.27461449  0.64974817  0.55643930  1  -1.220375  0  -0.362456  -0.322073  0  3.556957  0
N  N113  1  0.62486602  0.35024391  0.90667439  1  -1.222931  0  -0.362547  -0.322154  0  3.556988  0
N  N114  1  0.44356176  0.71818468  0.09331566  1  -1.233267  0  -0.362482  -0.321864  0  3.557126  0
N  N115  1  0.09329109  0.71816805  0.44355037  1  -1.233033  0  -0.362227  -0.321195  0  3.556528  0
N  N116  1  0.72539230  0.28183307  0.37513874  1  -1.219671  0  -0.362478  -0.321952  0  3.5569  0
N  N117  1  0.37513018  0.28181419  0.72537733  1  -1.220044  0  -0.362537  -0.321923  0  3.557092  0
N  N118  1  0.55644290  0.27461946  0.64974108  1  -1.220437  0  -0.362239  -0.321224  0  3.556337  0
N  N119  1  0.64975994  0.27462735  0.55644657  1  -1.221021  0  -0.36253  -0.322018  0  3.556964  0
N  N120  1  0.28180989  0.72537230  0.37512094  1  -1.220185  0  -0.362479  -0.321739  0  3.556896  0
N  N121  1  0.37511701  0.72537608  0.28182014  1  -1.219045  0  -0.362258  -0.321139  0  3.556213  0
N  N122  1  0.90667276  0.62486232  0.35024029  1  -1.222804  0  -0.36251  -0.322125  0  3.556872  0
N  N123  1  0.35026319  0.62487321  0.90669839  1  -1.223191  0  -0.362384  -0.321682  0  3.556799  0
N  N124  1  0.28182733  0.37512838  0.72538697  1  -1.219618  0  -0.362415  -0.321624  0  3.556942  0
N  N125  1  0.09332692  0.44356615  0.71818820  1  -1.236057  0  -0.362541  -0.322148  0  3.556822  0
