# generated using pymatgen
data_ZnH12C20S(NO2)3
_symmetry_space_group_name_H-M   'P 1'
_cell_length_a   7.21980356
_cell_length_b   12.48014636
_cell_length_c   14.42319363
_cell_angle_alpha   75.19598746
_cell_angle_beta   76.78904928
_cell_angle_gamma   88.41702746
_symmetry_Int_Tables_number   1
_chemical_formula_structural   ZnH12C20S(NO2)3
_chemical_formula_sum   'Zn2 H24 C40 S2 N6 O12'
_cell_volume   1222.54565826
_cell_formula_units_Z   2
loop_
 _symmetry_equiv_pos_site_id
 _symmetry_equiv_pos_as_xyz
  1  'x, y, z'
loop_
 _atom_site_type_symbol
 _atom_site_label
 _atom_site_symmetry_multiplicity
 _atom_site_fract_x
 _atom_site_fract_y
 _atom_site_fract_z
 _atom_site_occupancy
 _atom_site_hle17_bader_spin_density
 _atom_site_hle17_ddec_charge
 _atom_site_hle17_ddec_spin_density
 _atom_site_hle17_ddec_sum_bond_order
 _atom_site_hle17_magmom
 _atom_site_hse06_10hf_bader_spin_density
 _atom_site_hse06_10hf_ddec_charge
 _atom_site_hse06_10hf_ddec_spin_density
 _atom_site_hse06_10hf_ddec_sum_bond_order
 _atom_site_hse06_10hf_magmom
 _atom_site_hse06_bader_spin_density
 _atom_site_hse06_ddec_charge
 _atom_site_hse06_ddec_spin_density
 _atom_site_hse06_ddec_sum_bond_order
 _atom_site_hse06_magmom
 _atom_site_pbe_bader_spin_density
 _atom_site_pbe_cm5_charge
 _atom_site_pbe_ddec_charge
 _atom_site_pbe_ddec_spin_density
 _atom_site_pbe_ddec_sum_bond_order
 _atom_site_pbe_magmom
Zn  Zn0  1  0.81698612  0.98252519  0.07037470  1  0  1.042775  0  1.857477  0  0  0.86794  0  2.325464  0  0  0.920793  0  2.259919  0  0  0.678865  0.831116  0  2.37038  0
Zn  Zn1  1  0.18301261  0.01748443  0.92962613  1  0  1.042687  0  1.857656  0  0  0.867827  0  2.325655  0  0  0.920731  0  2.260017  0  0  0.678833  0.830992  0  2.370587  0
H  H2  1  0.08269790  0.32436156  0.73898634  1  0  0.115923  0  0.926237  0  0  0.12589  0  0.98128  0  0  0.129886  0  0.978556  0  0  0.113059  0.122977  0  0.983355  0
H  H3  1  0.91731432  0.67563333  0.26100634  1  0  0.115945  0  0.926344  0  0  0.125904  0  0.981385  0  0  0.129899  0  0.978659  0  0  0.113085  0.122992  0  0.983456  0
H  H4  1  0.39166260  0.68976597  0.81768374  1  0  0.110657  0  0.93568  0  0  0.122184  0  0.990238  0  0  0.125597  0  0.988488  0  0  0.110575  0.119666  0  0.991637  0
H  H5  1  0.60832943  0.31025130  0.18230516  1  0  0.110635  0  0.935614  0  0  0.122172  0  0.990153  0  0  0.125571  0  0.988426  0  0  0.11058  0.119654  0  0.991554  0
H  H6  1  0.97463144  0.49665864  0.63500110  1  0  0.117763  0  0.925635  0  0  0.129095  0  0.979072  0  0  0.132492  0  0.977338  0  0  0.116381  0.126663  0  0.980349  0
H  H7  1  0.02537076  0.50333466  0.36498820  1  0  0.117746  0  0.925794  0  0  0.12908  0  0.979212  0  0  0.132481  0  0.977479  0  0  0.116379  0.126644  0  0.980489  0
H  H8  1  0.77947920  0.01694388  0.26853868  1  0  0.089553  0  0.96635  0  0  0.089687  0  1.044247  0  0  0.093185  0  1.040117  0  0  0.119126  0.087091  0  1.047297  0
H  H9  1  0.22051299  0.98304915  0.73146637  1  0  0.089467  0  0.966325  0  0  0.089665  0  1.044155  0  0  0.093162  0  1.04003  0  0  0.119145  0.087068  0  1.047206  0
H  H10  1  0.12464170  0.92146995  0.26557075  1  0  0.124021  0  0.943489  0  0  0.128193  0  1.011315  0  0  0.131758  0  1.009798  0  0  0.117161  0.125633  0  1.012543  0
H  H11  1  0.87536666  0.07853309  0.73442828  1  0  0.123939  0  0.943522  0  0  0.128108  0  1.011361  0  0  0.131671  0  1.009846  0  0  0.117124  0.125547  0  1.01259  0
H  H12  1  0.40271789  0.92257758  0.12419415  1  0  0.097671  0  0.968902  0  0  0.103174  0  1.034701  0  0  0.105591  0  1.033163  0  0  0.12346  0.101329  0  1.035938  0
H  H13  1  0.59729055  0.07742709  0.87580662  1  0  0.097706  0  0.968749  0  0  0.103145  0  1.034651  0  0  0.105563  0  1.033112  0  0  0.123456  0.101302  0  1.035887  0
H  H14  1  0.52018333  0.02425162  0.41390304  1  0  0.112975  0  0.973647  0  0  0.111243  0  1.053058  0  0  0.115647  0  1.04959  0  0  0.110866  0.108062  0  1.055656  0
H  H15  1  0.47981300  0.97573893  0.58610206  1  0  0.113027  0  0.973706  0  0  0.11126  0  1.053135  0  0  0.115664  0  1.049674  0  0  0.110894  0.1081  0  1.055716  0
H  H16  1  0.51314850  0.25605584  0.91876935  1  0  0.111614  0  0.971844  0  0  0.116852  0  1.040274  0  0  0.120805  0  1.037249  0  0  0.105725  0.113996  0  1.042489  0
H  H17  1  0.48684847  0.74394717  0.08123168  1  0  0.111609  0  0.971869  0  0  0.116869  0  1.040275  0  0  0.120821  0  1.037245  0  0  0.105743  0.114013  0  1.042488  0
H  H18  1  0.40492160  0.43006319  0.81716678  1  0  0.111395  0  0.931591  0  0  0.122958  0  0.985089  0  0  0.126345  0  0.983572  0  0  0.112142  0.120502  0  0.986289  0
H  H19  1  0.59506262  0.56994071  0.18283136  1  0  0.111441  0  0.931641  0  0  0.123054  0  0.985081  0  0  0.126441  0  0.983562  0  0  0.112202  0.120597  0  0.986284  0
H  H20  1  0.48591683  0.79809749  0.92505656  1  0  0.114925  0  0.968549  0  0  0.119045  0  1.038184  0  0  0.122933  0  1.03544  0  0  0.105976  0.116201  0  1.040301  0
H  H21  1  0.51406928  0.20191552  0.07493945  1  0  0.114893  0  0.96866  0  0  0.119024  0  1.038288  0  0  0.12291  0  1.035544  0  0  0.105964  0.116181  0  1.040406  0
H  H22  1  0.97736229  0.69674151  0.65939705  1  0  0.114832  0  0.929524  0  0  0.125971  0  0.984788  0  0  0.129295  0  0.983182  0  0  0.112447  0.123551  0  0.986041  0
H  H23  1  0.02263420  0.30325230  0.34061082  1  0  0.114775  0  0.929589  0  0  0.125958  0  0.984783  0  0  0.129283  0  0.983174  0  0  0.112443  0.123534  0  0.986036  0
H  H24  1  0.07036693  0.80262655  0.76794491  1  0  0.104234  0  0.946505  0  0  0.113381  0  1.008523  0  0  0.116871  0  1.006072  0  0  0.106781  0.110846  0  1.010378  0
H  H25  1  0.92963521  0.19736645  0.23206249  1  0  0.10424  0  0.94643  0  0  0.113382  0  1.008468  0  0  0.116874  0  1.006012  0  0  0.106741  0.110847  0  1.010328  0
C  C26  1  0.93515779  0.34870785  0.75560739  1  0  -0.051223  0  3.698822  0  0  -0.074444  0  3.944263  0  0  -0.07474  0  3.96399  0  0  -0.073577  -0.074124  0  3.930878  0
C  C27  1  0.06484183  0.65129113  0.24438794  1  0  -0.05129  0  3.698787  0  0  -0.074516  0  3.944242  0  0  -0.07481  0  3.963963  0  0  -0.073592  -0.074195  0  3.930855  0
C  C28  1  0.53976964  0.71495846  0.80764904  1  0  -0.072812  0  3.741005  0  0  -0.093636  0  3.987539  0  0  -0.095273  0  4.009007  0  0  -0.082656  -0.092361  0  3.972804  0
C  C29  1  0.46022761  0.28504967  0.19234256  1  0  -0.072801  0  3.740884  0  0  -0.09357  0  3.987442  0  0  -0.095197  0  4.008924  0  0  -0.082638  -0.092296  0  3.972708  0
C  C30  1  0.87517290  0.44448521  0.69786363  1  0  -0.06406  0  3.726104  0  0  -0.087143  0  3.975035  0  0  -0.088709  0  3.996313  0  0  -0.075524  -0.085975  0  3.960424  0
C  C31  1  0.12482673  0.55551381  0.30212892  1  0  -0.064087  0  3.726219  0  0  -0.087163  0  3.97514  0  0  -0.088735  0  3.996421  0  0  -0.07558  -0.085991  0  3.960529  0
C  C32  1  0.84433697  0.87405036  0.91448860  1  0  0.654653  0  3.89202  0  0  0.60215  0  4.183731  0  0  0.637468  0  4.176495  0  0  0.214929  0.578272  0  4.187734  0
C  C33  1  0.15564986  0.12594927  0.08551706  1  0  0.654266  0  3.892383  0  0  0.60167  0  4.184198  0  0  0.636993  0  4.176971  0  0  0.21474  0.577793  0  4.188195  0
C  C34  1  0.63233274  0.99664022  0.27133753  1  0  0.143826  0  3.656099  0  0  0.113179  0  3.903064  0  0  0.119518  0  3.921894  0  0  0.057458  0.109153  0  3.890237  0
C  C35  1  0.36766527  0.00335532  0.72866634  1  0  0.143904  0  3.655833  0  0  0.113227  0  3.902763  0  0  0.119565  0  3.921598  0  0  0.057413  0.109203  0  3.889941  0
C  C36  1  0.29994597  0.97506769  0.35029902  1  0  0.04565  0  3.761329  0  0  0.056848  0  3.990454  0  0  0.058695  0  4.014756  0  0  0.017856  0.055955  0  3.973855  0
C  C37  1  0.70005640  0.02492953  0.64970261  1  0  0.045713  0  3.761435  0  0  0.056797  0  3.99057  0  0  0.058643  0  4.014875  0  0  0.017825  0.055908  0  3.973969  0
C  C38  1  0.26756904  0.94289269  0.26901862  1  0  -0.123722  0  3.672821  0  0  -0.146208  0  3.924926  0  0  -0.154013  0  3.947405  0  0  -0.067771  -0.141215  0  3.909883  0
C  C39  1  0.73243634  0.05710783  0.73098337  1  0  -0.123681  0  3.672902  0  0  -0.146092  0  3.924969  0  0  -0.153894  0  3.947452  0  0  -0.067709  -0.1411  0  3.909925  0
C  C40  1  0.80623495  0.28245520  0.83667728  1  0  -0.063809  0  3.741894  0  0  -0.041478  0  3.975054  0  0  -0.04935  0  3.998966  0  0  -0.014216  -0.036341  0  3.958884  0
C  C41  1  0.19376751  0.71754373  0.16332052  1  0  -0.063747  0  3.741842  0  0  -0.041356  0  3.975003  0  0  -0.049226  0  3.99891  0  0  -0.014158  -0.03622  0  3.958833  0
C  C42  1  0.42116712  0.94246290  0.19080177  1  0  0.13448  0  3.656766  0  0  0.102934  0  3.907808  0  0  0.109008  0  3.927502  0  0  0.056085  0.099056  0  3.894523  0
C  C43  1  0.57883545  0.05753842  0.80920176  1  0  0.134481  0  3.656647  0  0  0.102899  0  3.907794  0  0  0.10897  0  3.927494  0  0  0.056071  0.099021  0  3.894509  0
C  C44  1  0.48696720  0.00038458  0.35194722  1  0  -0.123143  0  3.678805  0  0  -0.143698  0  3.927283  0  0  -0.1515  0  3.949443  0  0  -0.067699  -0.138603  0  3.91232  0
C  C45  1  0.51303215  0.99960931  0.64805546  1  0  -0.123164  0  3.678843  0  0  -0.143684  0  3.927369  0  0  -0.151488  0  3.949532  0  0  -0.067697  -0.138609  0  3.912388  0
C  C46  1  0.78466124  0.80559759  0.85354930  1  0  -0.058209  0  3.734252  0  0  -0.033536  0  3.963921  0  0  -0.040622  0  3.987012  0  0  -0.013985  -0.028954  0  3.948375  0
C  C47  1  0.21533177  0.19441125  0.14644888  1  0  -0.058152  0  3.734191  0  0  -0.033434  0  3.963842  0  0  -0.040524  0  3.986934  0  0  -0.013905  -0.028852  0  3.948297  0
C  C48  1  0.61423837  0.31028385  0.85811843  1  0  -0.06294  0  3.702038  0  0  -0.086235  0  3.950595  0  0  -0.086874  0  3.970686  0  0  -0.079183  -0.085645  0  3.936943  0
C  C49  1  0.38576296  0.68972088  0.14187898  1  0  -0.062905  0  3.702171  0  0  -0.086238  0  3.95075  0  0  -0.086874  0  3.970833  0  0  -0.079211  -0.085649  0  3.937098  0
C  C50  1  0.87499606  0.18009575  0.89837464  1  0  0.652322  0  3.88744  0  0  0.600369  0  4.178552  0  0  0.635641  0  4.171324  0  0  0.215683  0.576523  0  4.182611  0
C  C51  1  0.12500070  0.81990309  0.10162867  1  0  0.652486  0  3.8872  0  0  0.600413  0  4.178476  0  0  0.635686  0  4.171243  0  0  0.215715  0.576565  0  4.182535  0
C  C52  1  0.68473948  0.47315474  0.72246272  1  0  -0.094773  0  3.733266  0  0  -0.072921  0  3.98237  0  0  -0.078554  0  4.007208  0  0  -0.016363  -0.068991  0  3.965453  0
C  C53  1  0.31526145  0.52684184  0.27752742  1  0  -0.094738  0  3.733418  0  0  -0.072896  0  3.982528  0  0  -0.078533  0  4.007369  0  0  -0.016341  -0.068964  0  3.965605  0
C  C54  1  0.55295485  0.40631783  0.80111227  1  0  -0.067593  0  3.735922  0  0  -0.089031  0  3.980919  0  0  -0.090715  0  4.002216  0  0  -0.079138  -0.087807  0  3.966367  0
C  C55  1  0.44704371  0.59368849  0.19888858  1  0  -0.067703  0  3.736122  0  0  -0.089172  0  3.981137  0  0  -0.090854  0  4.002429  0  0  -0.079192  -0.08795  0  3.966588  0
C  C56  1  0.67869087  0.68814065  0.73295433  1  0  -0.100612  0  3.745893  0  0  -0.079338  0  3.997134  0  0  -0.084981  0  4.021916  0  0  -0.020693  -0.075393  0  3.980163  0
C  C57  1  0.32130499  0.31186823  0.26704213  1  0  -0.100473  0  3.74563  0  0  -0.079343  0  3.997093  0  0  -0.085  0  4.021902  0  0  -0.020651  -0.075392  0  3.980107  0
C  C58  1  0.13996948  0.98673418  0.43057840  1  0  0.267087  0  3.71878  0  0  0.2569  0  3.976423  0  0  0.262888  0  3.992456  0  0  0.257807  0.252492  0  3.965821  0
C  C59  1  0.86003660  0.01325229  0.56942367  1  0  0.266721  0  3.719077  0  0  0.256783  0  3.976482  0  0  0.262773  0  3.992515  0  0  0.25773  0.252373  0  3.965881  0
C  C60  1  0.59320687  0.77412916  0.86795048  1  0  -0.062098  0  3.693814  0  0  -0.085016  0  3.942439  0  0  -0.085784  0  3.962834  0  0  -0.079117  -0.08436  0  3.928594  0
C  C61  1  0.40679156  0.22587468  0.13205091  1  0  -0.062137  0  3.694075  0  0  -0.085101  0  3.942701  0  0  -0.085863  0  3.963087  0  0  -0.079213  -0.084446  0  3.928859  0
C  C62  1  0.87041987  0.71884343  0.71764214  1  0  -0.076638  0  3.747535  0  0  -0.101002  0  4.001216  0  0  -0.102753  0  4.023028  0  0  -0.085242  -0.099642  0  3.986212  0
C  C63  1  0.12958075  0.28114784  0.28236925  1  0  -0.076559  0  3.747404  0  0  -0.100915  0  4.001106  0  0  -0.10266  0  4.022915  0  0  -0.085224  -0.099551  0  3.986095  0
C  C64  1  0.92232648  0.77741455  0.77835369  1  0  -0.060074  0  3.720953  0  0  -0.085559  0  3.973417  0  0  -0.086267  0  3.993472  0  0  -0.081004  -0.084971  0  3.959816  0
C  C65  1  0.07767579  0.22258095  0.22165178  1  0  -0.06011  0  3.720958  0  0  -0.085607  0  3.973421  0  0  -0.086312  0  3.993473  0  0  -0.080968  -0.08502  0  3.959821  0
S  S66  1  0.61437018  0.60517994  0.66005104  1  0  1.054775  0  5.27026  0  0  0.986262  0  5.770406  0  0  1.025737  0  5.756327  0  0  0.465497  0.958385  0  5.780508  0
S  S67  1  0.38564696  0.39482743  0.33993638  1  0  1.054776  0  5.270373  0  0  0.986316  0  5.770506  0  0  1.025799  0  5.756414  0  0  0.465462  0.958437  0  5.780617  0
N  N68  1  0.59928369  0.97049316  0.19140210  1  0  -0.297437  0  3.258172  0  0  -0.212688  0  3.524433  0  0  -0.232238  0  3.539516  0  0  -0.320932  -0.199503  0  3.514046  0
N  N69  1  0.40071884  0.02950731  0.80860229  1  0  -0.297418  0  3.257916  0  0  -0.212642  0  3.5242  0  0  -0.232196  0  3.539289  0  0  -0.320926  -0.199461  0  3.513818  0
N  N70  1  0.81983674  0.00271477  0.48502458  1  0  -0.143777  0  2.934627  0  0  -0.121508  0  3.20119  0  0  -0.124013  0  3.210873  0  0  -0.132707  -0.119725  0  3.19482  0
N  N71  1  0.18016499  0.99727003  0.51497833  1  0  -0.143976  0  2.934629  0  0  -0.121574  0  3.201227  0  0  -0.124076  0  3.210908  0  0  -0.132806  -0.119792  0  3.194859  0
N  N72  1  0.96250478  0.98916673  0.41419948  1  0  -0.140021  0  2.93222  0  0  -0.121919  0  3.204519  0  0  -0.124275  0  3.214534  0  0  -0.13167  -0.120251  0  3.197947  0
N  N73  1  0.03750406  0.01081804  0.58580541  1  0  -0.139951  0  2.932347  0  0  -0.121954  0  3.204569  0  0  -0.12431  0  3.214581  0  0  -0.131609  -0.120287  0  3.197999  0
O  O74  1  0.75659337  0.12595698  0.97516451  1  0  -0.624215  0  2.092669  0  0  -0.554306  0  2.35388  0  0  -0.582734  0  2.339848  0  0  -0.30686  -0.534585  0  2.362829  0
O  O75  1  0.24342392  0.87405419  0.02484290  1  0  -0.624378  0  2.092424  0  0  -0.554414  0  2.353671  0  0  -0.58287  0  2.339691  0  0  -0.306957  -0.534689  0  2.362618  0
O  O76  1  0.72301701  0.88765867  0.98969038  1  0  -0.610957  0  2.046493  0  0  -0.543219  0  2.303591  0  0  -0.571669  0  2.29091  0  0  -0.305192  -0.523447  0  2.311631  0
O  O77  1  0.27697579  0.11234606  0.01030661  1  0  -0.610879  0  2.046543  0  0  -0.543063  0  2.303608  0  0  -0.571521  0  2.290927  0  0  -0.305191  -0.523288  0  2.311646  0
O  O78  1  0.01270281  0.91594441  0.88417966  1  0  -0.647844  0  2.107113  0  0  -0.582504  0  2.373524  0  0  -0.611543  0  2.360727  0  0  -0.312965  -0.562233  0  2.381544  0
O  O79  1  0.98729864  0.08403530  0.11583129  1  0  -0.647593  0  2.107543  0  0  -0.582182  0  2.373927  0  0  -0.611221  0  2.36114  0  0  -0.312743  -0.561911  0  2.381944  0
O  O80  1  0.04500233  0.15358803  0.86796151  1  0  -0.623076  0  2.081601  0  0  -0.559326  0  2.339786  0  0  -0.587819  0  2.326476  0  0  -0.312394  -0.539572  0  2.348217  0
O  O81  1  0.95499000  0.84640758  0.13203814  1  0  -0.623092  0  2.081526  0  0  -0.559323  0  2.33976  0  0  -0.587809  0  2.326451  0  0  -0.31234  -0.539574  0  2.348197  0
O  O82  1  0.40861913  0.60393071  0.67466537  1  0  -0.579506  0  1.88787  0  0  -0.542169  0  2.108807  0  0  -0.560421  0  2.097133  0  0  -0.328433  -0.529167  0  2.116592  0
O  O83  1  0.59137643  0.39607236  0.32533234  1  0  -0.579349  0  1.888372  0  0  -0.542023  0  2.109303  0  0  -0.560275  0  2.09762  0  0  -0.328337  -0.529025  0  2.117094  0
O  O84  1  0.73701191  0.63874683  0.56209277  1  0  -0.572335  0  1.881082  0  0  -0.537225  0  2.097393  0  0  -0.555175  0  2.086288  0  0  -0.330504  -0.524451  0  2.104795  0
O  O85  1  0.26299239  0.36126033  0.43790725  1  0  -0.572532  0  1.880518  0  0  -0.537437  0  2.096806  0  0  -0.555386  0  2.085692  0  0  -0.330613  -0.524659  0  2.104211  0
