# generated using pymatgen
data_ZnH8C11N3O5
_symmetry_space_group_name_H-M   'P 1'
_cell_length_a   7.11019621
_cell_length_b   9.91677754
_cell_length_c   34.95080586
_cell_angle_alpha   89.99998806
_cell_angle_beta   90.00022036
_cell_angle_gamma   89.99968493
_symmetry_Int_Tables_number   1
_chemical_formula_structural   ZnH8C11N3O5
_chemical_formula_sum   'Zn8 H64 C88 N24 O40'
_cell_volume   2464.38950160
_cell_formula_units_Z   8
loop_
 _symmetry_equiv_pos_site_id
 _symmetry_equiv_pos_as_xyz
  1  'x, y, z'
loop_
 _atom_site_type_symbol
 _atom_site_label
 _atom_site_symmetry_multiplicity
 _atom_site_fract_x
 _atom_site_fract_y
 _atom_site_fract_z
 _atom_site_occupancy
 _atom_site_pbe_bader_charge
 _atom_site_pbe_bader_spin_density
 _atom_site_pbe_cm5_charge
 _atom_site_pbe_ddec_charge
 _atom_site_pbe_ddec_spin_density
 _atom_site_pbe_ddec_sum_bond_order
 _atom_site_pbe_magmom
Zn  Zn0  1  0.02116298  0.47600121  0.38941791  1  1.312606  0  0.693469  0.834007  0  2.310825  0
Zn  Zn1  1  0.02115929  0.02399864  0.11058144  1  1.312618  0  0.693408  0.833958  0  2.310896  0
Zn  Zn2  1  0.47884261  0.52399757  0.88941829  1  1.312602  0  0.693453  0.833998  0  2.310771  0
Zn  Zn3  1  0.47883546  0.97599934  0.61058208  1  1.31259  0  0.693443  0.834022  0  2.310854  0
Zn  Zn4  1  0.97883605  0.52399971  0.61058200  1  1.312608  0  0.693452  0.833969  0  2.310849  0
Zn  Zn5  1  0.97883271  0.97600128  0.88941733  1  1.31257  0  0.693419  0.833906  0  2.311  0
Zn  Zn6  1  0.52116627  0.47599932  0.11058276  1  1.312584  0  0.693441  0.833941  0  2.310883  0
Zn  Zn7  1  0.52116357  0.02399956  0.38941784  1  1.312601  0  0.693416  0.833913  0  2.31094  0
H  H8  1  0.12392761  0.40380319  0.30963725  1  0.135333  0  0.125309  0.105946  0  0.984691  0
H  H9  1  0.12392908  0.09619726  0.19036247  1  0.135362  0  0.12531  0.105959  0  0.98469  0
H  H10  1  0.37607368  0.59619666  0.80963783  1  0.135382  0  0.12531  0.105949  0  0.984707  0
H  H11  1  0.37607420  0.90380066  0.69036274  1  0.135316  0  0.125291  0.105952  0  0.984679  0
H  H12  1  0.87607564  0.59619773  0.69036295  1  0.135326  0  0.125313  0.105949  0  0.984711  0
H  H13  1  0.87607136  0.90380063  0.80963659  1  0.135337  0  0.125299  0.105921  0  0.984674  0
H  H14  1  0.62392676  0.40380023  0.19036294  1  0.135296  0  0.125298  0.105919  0  0.984666  0
H  H15  1  0.62392624  0.09619825  0.30963717  1  0.135326  0  0.125302  0.105929  0  0.984691  0
H  H16  1  0.14150275  0.51649201  0.24565360  1  0.090627  0  0.113237  0.123404  0  0.991071  0
H  H17  1  0.14150385  0.98350964  0.25434609  1  0.090631  0  0.113248  0.123419  0  0.991063  0
H  H18  1  0.35849875  0.48351092  0.74565389  1  0.09062  0  0.113244  0.123397  0  0.991086  0
H  H19  1  0.35849500  0.01649025  0.75434641  1  0.09063  0  0.113239  0.123408  0  0.991037  0
H  H20  1  0.85849348  0.48350892  0.75434631  1  0.090617  0  0.113221  0.12338  0  0.991072  0
H  H21  1  0.85849237  0.01649028  0.74565296  1  0.090587  0  0.113251  0.123459  0  0.990966  0
H  H22  1  0.64150591  0.51648900  0.25434659  1  0.090602  0  0.113277  0.123482  0  0.990954  0
H  H23  1  0.64150685  0.98350865  0.24565350  1  0.090635  0  0.113241  0.123418  0  0.991041  0
H  H24  1  0.00888104  0.89197410  0.30346709  1  0.087513  0  0.113651  0.126571  0  1.000397  0
H  H25  1  0.00888394  0.60802706  0.19653308  1  0.087534  0  0.113625  0.126556  0  1.000274  0
H  H26  1  0.49111873  0.10802475  0.80346693  1  0.0875  0  0.113646  0.126552  0  1.000406  0
H  H27  1  0.49111524  0.39197388  0.69653262  1  0.087507  0  0.11367  0.126576  0  1.000378  0
H  H28  1  0.99111518  0.10802582  0.69653311  1  0.087525  0  0.113668  0.126575  0  1.000393  0
H  H29  1  0.99111650  0.39197285  0.80346683  1  0.087522  0  0.113647  0.12655  0  1.000403  0
H  H30  1  0.50888452  0.89197416  0.19653327  1  0.087534  0  0.11367  0.126575  0  1.000392  0
H  H31  1  0.50888521  0.60802502  0.30346701  1  0.087493  0  0.113667  0.12657  0  1.000365  0
H  H32  1  0.99862271  0.76430968  0.36381201  1  0.139453  0  0.125225  0.102699  0  1.00402  0
H  H33  1  0.99862491  0.73569059  0.13618836  1  0.139428  0  0.125258  0.102739  0  1.004032  0
H  H34  1  0.50137591  0.23568714  0.86381203  1  0.139408  0  0.125222  0.102693  0  1.00407  0
H  H35  1  0.50137507  0.26430943  0.63618810  1  0.139261  0  0.125225  0.102671  0  1.004075  0
H  H36  1  0.00137632  0.23569023  0.63618819  1  0.139445  0  0.125252  0.102751  0  1.004003  0
H  H37  1  0.00137412  0.26430832  0.86381184  1  0.139277  0  0.125237  0.1027  0  1.004084  0
H  H38  1  0.49862735  0.76431075  0.13618816  1  0.139274  0  0.125221  0.102674  0  1.004083  0
H  H39  1  0.49862255  0.73568948  0.36381182  1  0.139432  0  0.12524  0.102722  0  1.00403  0
H  H40  1  0.26238345  0.24220498  0.51642853  1  0.13128  0  0.121319  0.10132  0  1.01423  0
H  H41  1  0.26238213  0.25780060  0.98357227  1  0.131332  0  0.12133  0.101311  0  1.014338  0
H  H42  1  0.23761798  0.75780114  0.01642745  1  0.131342  0  0.121339  0.101334  0  1.014326  0
H  H43  1  0.23762101  0.74220214  0.48357175  1  0.131319  0  0.121315  0.1013  0  1.014343  0
H  H44  1  0.73761700  0.75779796  0.48357138  1  0.131283  0  0.121324  0.101326  0  1.014289  0
H  H45  1  0.73761831  0.74220234  0.01642764  1  0.13134  0  0.121335  0.101339  0  1.014319  0
H  H46  1  0.76237965  0.24220180  0.98357218  1  0.131333  0  0.121343  0.101345  0  1.014318  0
H  H47  1  0.76238084  0.25779676  0.51642873  1  0.131268  0  0.121305  0.101285  0  1.014342  0
H  H48  1  0.17867152  0.44594272  0.47621368  1  0.195089  0  0.120702  0.102303  0  1.038564  0
H  H49  1  0.17866738  0.05406055  0.02378579  1  0.195095  0  0.120717  0.102342  0  1.038557  0
H  H50  1  0.32133430  0.55406003  0.97621423  1  0.19512  0  0.120708  0.10233  0  1.038548  0
H  H51  1  0.32132716  0.94594153  0.52378659  1  0.195138  0  0.120717  0.102325  0  1.038541  0
H  H52  1  0.82132752  0.55405821  0.52378594  1  0.195122  0  0.12073  0.102339  0  1.038537  0
H  H53  1  0.82132603  0.94594239  0.97621355  1  0.195117  0  0.120709  0.102311  0  1.038541  0
H  H54  1  0.67867177  0.44594089  0.02378683  1  0.195133  0  0.120716  0.102325  0  1.038559  0
H  H55  1  0.67867047  0.05405838  0.47621418  1  0.195121  0  0.120722  0.102348  0  1.038568  0
H  H56  1  0.28695432  0.61944344  0.42642918  1  0.66743  0  0.291946  0.387111  0  0.95637  0
H  H57  1  0.28694861  0.88055662  0.07356949  1  0.667504  0  0.291912  0.387092  0  0.95641  0
H  H58  1  0.21305478  0.38055632  0.92643050  1  0.667512  0  0.291924  0.387109  0  0.95639  0
H  H59  1  0.21304404  0.11944341  0.57357026  1  0.66745  0  0.291951  0.387152  0  0.956318  0
H  H60  1  0.71304612  0.38055748  0.57357074  1  0.66746  0  0.291954  0.387128  0  0.956339  0
H  H61  1  0.71304620  0.11944330  0.92642899  1  0.667462  0  0.291958  0.387128  0  0.956332  0
H  H62  1  0.78695269  0.61944359  0.07357113  1  0.667469  0  0.291949  0.387114  0  0.956354  0
H  H63  1  0.78695500  0.88055752  0.42642965  1  0.667458  0  0.291966  0.387141  0  0.95632  0
H  H64  1  0.09538824  0.70797863  0.42572697  1  0.656086  0  0.287563  0.376667  0  0.972849  0
H  H65  1  0.09538181  0.79202219  0.07427327  1  0.656025  0  0.287563  0.376674  0  0.97285  0
H  H66  1  0.40462085  0.29202114  0.92572702  1  0.656023  0  0.287546  0.37664  0  0.972894  0
H  H67  1  0.40461085  0.20797683  0.57427361  1  0.656081  0  0.287578  0.376708  0  0.972792  0
H  H68  1  0.90461221  0.29202230  0.57427352  1  0.656056  0  0.287574  0.376681  0  0.972821  0
H  H69  1  0.90461441  0.20797672  0.92572636  1  0.656081  0  0.28758  0.376704  0  0.972797  0
H  H70  1  0.59538381  0.70797676  0.07427347  1  0.656076  0  0.287577  0.376695  0  0.972822  0
H  H71  1  0.59538818  0.79202208  0.42572602  1  0.65606  0  0.287574  0.376681  0  0.972823  0
C  C72  1  0.09912054  0.51158926  0.30634318  1  0.467327  0  0.056931  0.106782  0  3.92888  0
C  C73  1  0.09912047  0.98841154  0.19365678  1  0.467279  0  0.056889  0.106751  0  3.928939  0
C  C74  1  0.40088351  0.48841160  0.80634350  1  0.467068  0  0.056948  0.106825  0  3.92885  0
C  C75  1  0.40087584  0.01158941  0.69365713  1  0.467439  0  0.056923  0.10673  0  3.928923  0
C  C76  1  0.90087990  0.48841065  0.69365702  1  0.467336  0  0.056925  0.106764  0  3.928941  0
C  C77  1  0.90087997  0.01158737  0.80634256  1  0.467462  0  0.056937  0.106939  0  3.928817  0
C  C78  1  0.59912116  0.51158731  0.19365727  1  0.467435  0  0.056932  0.106929  0  3.928865  0
C  C79  1  0.59912179  0.98841051  0.30634279  1  0.467437  0  0.056962  0.106831  0  3.928881  0
C  C80  1  0.10724913  0.57541544  0.27102124  1  -0.044465  0  -0.080693  -0.181561  0  3.951509  0
C  C81  1  0.10724740  0.92458634  0.22897871  1  -0.044477  0  -0.080699  -0.181601  0  3.951541  0
C  C82  1  0.39275284  0.42458545  0.77102128  1  -0.044447  0  -0.080694  -0.181577  0  3.951526  0
C  C83  1  0.39274956  0.07541357  0.72897877  1  -0.044502  0  -0.080712  -0.18156  0  3.951459  0
C  C84  1  0.89274990  0.42458549  0.72897924  1  -0.044497  0  -0.080714  -0.181582  0  3.951497  0
C  C85  1  0.89274741  0.07541257  0.77102063  1  -0.043768  0  -0.08076  -0.18185  0  3.951476  0
C  C86  1  0.60725041  0.57541245  0.22897921  1  -0.043717  0  -0.080767  -0.181818  0  3.951567  0
C  C87  1  0.60725088  0.92458534  0.27102143  1  -0.044486  0  -0.080711  -0.181621  0  3.951513  0
C  C88  1  0.07387819  0.71482974  0.26859639  1  -0.036223  0  0.010619  0.096493  0  3.994211  0
C  C89  1  0.07387898  0.78517116  0.23140383  1  0.007964  0  0.010638  0.096523  0  3.994232  0
C  C90  1  0.42612093  0.28517114  0.76859617  1  -0.036181  0  0.0106  0.096437  0  3.994229  0
C  C91  1  0.42612085  0.21482875  0.73140333  1  0.007993  0  0.010663  0.096547  0  3.994106  0
C  C92  1  0.92611944  0.28517017  0.73140352  1  -0.03623  0  0.010624  0.096482  0  3.994202  0
C  C93  1  0.92611724  0.21482876  0.76859609  1  0.0072  0  0.010659  0.096631  0  3.994179  0
C  C94  1  0.57388092  0.71482776  0.23140374  1  0.007184  0  0.010574  0.096464  0  3.994237  0
C  C95  1  0.57388100  0.78516915  0.26859659  1  -0.036175  0  0.010642  0.09653  0  3.994187  0
C  C96  1  0.03722947  0.78408516  0.30279301  1  0.004487  0  -0.07784  -0.169135  0  3.925003  0
C  C97  1  0.03723155  0.71591790  0.19720718  1  0.004482  0  -0.077791  -0.169081  0  3.924963  0
C  C98  1  0.46277170  0.21591469  0.80279282  1  0.004505  0  -0.077802  -0.169041  0  3.924961  0
C  C99  1  0.46276763  0.28408506  0.69720670  1  0.004508  0  -0.077811  -0.169073  0  3.924884  0
C  C100  1  0.96276535  0.21591576  0.69720690  1  0.004491  0  -0.07783  -0.169098  0  3.924951  0
C  C101  1  0.96276748  0.28408403  0.80279245  1  0.004491  0  -0.077824  -0.169068  0  3.924905  0
C  C102  1  0.53723437  0.78408422  0.19720737  1  0.004513  0  -0.077801  -0.169053  0  3.924869  0
C  C103  1  0.53723281  0.71591485  0.30279292  1  0.004434  0  -0.07784  -0.169106  0  3.924944  0
C  C104  1  0.03017400  0.71306209  0.33700281  1  0.508135  0  0.059252  0.113188  0  3.904444  0
C  C105  1  0.03017349  0.78693495  0.16299709  1  0.508099  0  0.059203  0.113119  0  3.904377  0
C  C106  1  0.46982781  0.28693673  0.83700348  1  0.508135  0  0.05922  0.113142  0  3.904405  0
C  C107  1  0.46982506  0.21306098  0.66299662  1  0.508308  0  0.059233  0.113184  0  3.904388  0
C  C108  1  0.96982785  0.28693681  0.66299739  1  0.508112  0  0.059212  0.113111  0  3.904336  0
C  C109  1  0.96982695  0.21306194  0.83700282  1  0.508305  0  0.059204  0.113101  0  3.904367  0
C  C110  1  0.53017404  0.71306218  0.16299700  1  0.508317  0  0.059252  0.113217  0  3.904349  0
C  C111  1  0.53017117  0.78693490  0.33700272  1  0.508125  0  0.05923  0.113146  0  3.904262  0
C  C112  1  0.06182843  0.20128789  0.41694691  1  0.535249  0  0.116227  0.034643  0  3.936785  0
C  C113  1  0.06182915  0.29871281  0.08305332  1  0.535395  0  0.116174  0.034506  0  3.936807  0
C  C114  1  0.43817065  0.79871188  0.91694582  1  0.535176  0  0.116306  0.03488  0  3.936539  0
C  C115  1  0.43817634  0.70128620  0.58305338  1  0.535247  0  0.116177  0.034558  0  3.936749  0
C  C116  1  0.93817342  0.79871303  0.58305271  1  0.535248  0  0.116204  0.034611  0  3.936867  0
C  C117  1  0.93817692  0.70129013  0.91694688  1  0.535708  0  0.116263  0.034525  0  3.93673  0
C  C118  1  0.56182557  0.20128703  0.08305295  1  0.535254  0  0.116298  0.03478  0  3.936769  0
C  C119  1  0.56182411  0.29871271  0.41694739  1  0.535235  0  0.116202  0.034533  0  3.936778  0
C  C120  1  0.12428162  0.08994211  0.43836791  1  0.546069  0  0.129231  0.056724  0  3.950593  0
C  C121  1  0.12428390  0.41006036  0.06163324  1  0.545847  0  0.12918  0.056617  0  3.950688  0
C  C122  1  0.37571645  0.91005562  0.93836590  1  0.545901  0  0.129144  0.056612  0  3.950571  0
C  C123  1  0.37572540  0.58993867  0.56163239  1  0.546024  0  0.129173  0.056605  0  3.950734  0
C  C124  1  0.87571882  0.91005982  0.56163229  1  0.546032  0  0.129215  0.056707  0  3.950649  0
C  C125  1  0.87572779  0.58994258  0.93836782  1  0.546012  0  0.129145  0.056724  0  3.950685  0
C  C126  1  0.62427274  0.08994026  0.06163201  1  0.546001  0  0.129176  0.056669  0  3.950663  0
C  C127  1  0.62427645  0.41006024  0.43836810  1  0.546035  0  0.129178  0.056726  0  3.950564  0
C  C128  1  0.20739458  0.23058843  0.48755679  1  0.51815  0  0.056638  0.06233  0  3.921436  0
C  C129  1  0.20739280  0.26941876  0.01244385  1  0.51816  0  0.056578  0.062232  0  3.921768  0
C  C130  1  0.29260723  0.76941835  0.98755586  1  0.518179  0  0.056568  0.062221  0  3.92181  0
C  C131  1  0.29260996  0.73058434  0.51244350  1  0.518144  0  0.056611  0.062278  0  3.921805  0
C  C132  1  0.79260586  0.76941653  0.51244312  1  0.518177  0  0.056653  0.062312  0  3.921551  0
C  C133  1  0.79260905  0.73058418  0.98755606  1  0.518154  0  0.056621  0.062257  0  3.921744  0
C  C134  1  0.70738759  0.23058358  0.01244348  1  0.518156  0  0.056577  0.062251  0  3.921633  0
C  C135  1  0.70739189  0.26941457  0.48755727  1  0.518387  0  0.056662  0.062343  0  3.921678  0
C  C136  1  0.15927854  0.34329248  0.46575927  1  0.436508  0  0.053562  0.054287  0  3.885037  0
C  C137  1  0.15927662  0.15670985  0.03423990  1  0.436573  0  0.053615  0.054402  0  3.884878  0
C  C138  1  0.34072427  0.65671230  0.96575982  1  0.436541  0  0.053625  0.054393  0  3.884885  0
C  C139  1  0.34072374  0.84328919  0.53424072  1  0.436546  0  0.05361  0.054336  0  3.884957  0
C  C140  1  0.84072331  0.65670945  0.53424036  1  0.436544  0  0.053557  0.054336  0  3.884989  0
C  C141  1  0.84072242  0.84329107  0.96575916  1  0.436514  0  0.05359  0.054374  0  3.884905  0
C  C142  1  0.65927758  0.34329064  0.03424066  1  0.436524  0  0.053571  0.054317  0  3.884949  0
C  C143  1  0.65927671  0.15670971  0.46576033  1  0.436245  0  0.053539  0.05425  0  3.885079  0
C  C144  1  0.95841378  0.18994273  0.37901138  1  1.64302  0  0.194378  0.544727  0  4.275037  0
C  C145  1  0.95840669  0.31007258  0.12098814  1  1.64304  0  0.194648  0.54534  0  4.27465  0
C  C146  1  0.54158934  0.81005610  0.87901111  1  1.642971  0  0.194459  0.544815  0  4.27483  0
C  C147  1  0.54159442  0.68992745  0.62098874  1  1.642543  0  0.194556  0.545011  0  4.274903  0
C  C148  1  0.04158806  0.81006021  0.62098854  1  1.643042  0  0.194442  0.544824  0  4.274965  0
C  C149  1  0.04159516  0.68992633  0.87901063  1  1.643065  0  0.194618  0.545226  0  4.274991  0
C  C150  1  0.45840970  0.18994079  0.12098823  1  1.64301  0  0.194364  0.544746  0  4.275014  0
C  C151  1  0.45840603  0.31007347  0.37901232  1  1.643036  0  0.194589  0.545148  0  4.274863  0
C  C152  1  0.13454935  0.94925350  0.42195167  1  1.638464  0  0.229755  0.583938  0  4.198006  0
C  C153  1  0.13455187  0.55075019  0.07804974  1  1.638575  0  0.229666  0.583964  0  4.198009  0
C  C154  1  0.36544701  0.05075131  0.92195027  1  1.63861  0  0.229699  0.583958  0  4.198035  0
C  C155  1  0.36544930  0.44925185  0.57804861  1  1.638355  0  0.22975  0.58397  0  4.198167  0
C  C156  1  0.86544969  0.05074742  0.57804824  1  1.638362  0  0.22975  0.583954  0  4.198151  0
C  C157  1  0.86545701  0.44925275  0.92195189  1  1.638037  0  0.2298  0.58396  0  4.198014  0
C  C158  1  0.63454358  0.94925163  0.07804764  1  1.638447  0  0.229831  0.584018  0  4.197989  0
C  C159  1  0.63454973  0.55074705  0.42195159  1  1.638359  0  0.229754  0.583912  0  4.19805  0
N  N160  1  0.05915825  0.57916572  0.33872381  1  -1.24047  0  -0.31893  -0.209104  0  3.531331  0
N  N161  1  0.05915950  0.92083625  0.16127611  1  -1.240401  0  -0.318906  -0.209071  0  3.531199  0
N  N162  1  0.44084218  0.42083411  0.83872417  1  -1.240253  0  -0.318944  -0.209125  0  3.531306  0
N  N163  1  0.44084182  0.07916371  0.66127648  1  -1.24057  0  -0.318924  -0.209102  0  3.531371  0
N  N164  1  0.94084078  0.42083621  0.66127639  1  -1.240437  0  -0.318915  -0.209053  0  3.531263  0
N  N165  1  0.94083812  0.07916367  0.83872323  1  -1.240532  0  -0.318868  -0.209029  0  3.531298  0
N  N166  1  0.55916108  0.57916379  0.16127660  1  -1.240547  0  -0.318888  -0.209102  0  3.531328  0
N  N167  1  0.55915862  0.92083721  0.33872343  1  -1.240497  0  -0.318923  -0.209066  0  3.531157  0
N  N168  1  0.08628029  0.32630627  0.43068738  1  -1.257737  0  -0.307333  -0.218546  0  3.572047  0
N  N169  1  0.08627890  0.17369635  0.06931231  1  -1.257854  0  -0.307311  -0.218554  0  3.572067  0
N  N170  1  0.41372186  0.67369550  0.93068741  1  -1.257713  0  -0.307412  -0.21879  0  3.572009  0
N  N171  1  0.41372352  0.82630469  0.56931291  1  -1.257711  0  -0.307356  -0.218542  0  3.572031  0
N  N172  1  0.91372015  0.67369465  0.56931225  1  -1.257715  0  -0.307328  -0.218596  0  3.572115  0
N  N173  1  0.91372295  0.82630760  0.93068703  1  -1.257759  0  -0.307362  -0.218556  0  3.572143  0
N  N174  1  0.58627717  0.32630542  0.06931279  1  -1.257734  0  -0.307387  -0.218655  0  3.572107  0
N  N175  1  0.58627833  0.17369422  0.43068815  1  -1.257665  0  -0.307303  -0.218491  0  3.57206  0
N  N176  1  0.19435873  0.10475323  0.47381318  1  -1.159389  0  -0.286976  -0.22504  0  3.281754  0
N  N177  1  0.19436046  0.39525099  0.02618802  1  -1.159435  0  -0.286903  -0.224943  0  3.281916  0
N  N178  1  0.30563861  0.89525154  0.97381198  1  -1.159405  0  -0.286919  -0.224975  0  3.281874  0
N  N179  1  0.30564678  0.60475109  0.52618683  1  -1.159404  0  -0.286916  -0.224926  0  3.281875  0
N  N180  1  0.80564171  0.89524971  0.52618673  1  -1.159471  0  -0.286961  -0.225015  0  3.281797  0
N  N181  1  0.80564842  0.60475095  0.97381247  1  -1.159418  0  -0.286959  -0.225028  0  3.282035  0
N  N182  1  0.69435058  0.10474938  0.02618651  1  -1.15943  0  -0.286908  -0.224996  0  3.28184  0
N  N183  1  0.69435507  0.39524781  0.47381366  1  -1.159411  0  -0.286958  -0.225027  0  3.281705  0
O  O184  1  0.93166288  0.30107768  0.36112909  1  -1.16676  0  -0.326302  -0.554604  0  2.275127  0
O  O185  1  0.93165978  0.19892160  0.13887098  1  -1.166613  0  -0.326368  -0.554842  0  2.274702  0
O  O186  1  0.56833710  0.69892217  0.86112942  1  -1.166778  0  -0.326301  -0.554615  0  2.275156  0
O  O187  1  0.56833744  0.80107741  0.63887102  1  -1.166649  0  -0.326353  -0.554704  0  2.274829  0
O  O188  1  0.06833757  0.69892223  0.63887083  1  -1.166726  0  -0.326317  -0.554625  0  2.275034  0
O  O189  1  0.06833644  0.80108235  0.86112807  1  -1.166646  0  -0.326423  -0.554853  0  2.274727  0
O  O190  1  0.43166615  0.30107674  0.13887107  1  -1.166723  0  -0.326296  -0.554607  0  2.27508  0
O  O191  1  0.43166300  0.19892351  0.36112889  1  -1.166609  0  -0.326374  -0.554743  0  2.274749  0
O  O192  1  0.90056341  0.07525438  0.36962731  1  -1.163827  0  -0.315506  -0.536594  0  2.140435  0
O  O193  1  0.90056265  0.42473897  0.13037216  1  -1.164015  0  -0.315705  -0.53692  0  2.140929  0
O  O194  1  0.59943813  0.92474748  0.86962651  1  -1.16381  0  -0.315585  -0.536694  0  2.140339  0
O  O195  1  0.59944004  0.57525601  0.63037252  1  -1.163527  0  -0.315601  -0.536724  0  2.140921  0
O  O196  1  0.09943844  0.92474553  0.63037232  1  -1.163874  0  -0.315541  -0.536643  0  2.140506  0
O  O197  1  0.09944061  0.57526296  0.86962718  1  -1.164016  0  -0.315605  -0.536784  0  2.141285  0
O  O198  1  0.40056372  0.07525244  0.13037312  1  -1.163856  0  -0.315522  -0.536644  0  2.140491  0
O  O199  1  0.40056181  0.42473987  0.36962825  1  -1.164  0  -0.315597  -0.536771  0  2.140973  0
O  O200  1  0.27323318  0.92375604  0.40037855  1  -1.1672  0  -0.303273  -0.517777  0  2.32816  0
O  O201  1  0.27323591  0.57624508  0.09962326  1  -1.167314  0  -0.303156  -0.517641  0  2.328054  0
O  O202  1  0.22676137  0.07624576  0.90037675  1  -1.16735  0  -0.303198  -0.517687  0  2.328086  0
O  O203  1  0.22676707  0.42375493  0.59962087  1  -1.167214  0  -0.303207  -0.51768  0  2.328241  0
O  O204  1  0.72676586  0.07624387  0.59962137  1  -1.167208  0  -0.303268  -0.517782  0  2.328158  0
O  O205  1  0.72677297  0.42375282  0.90037980  1  -1.167169  0  -0.303261  -0.517689  0  2.328065  0
O  O206  1  0.77322782  0.92375416  0.09962087  1  -1.167185  0  -0.303243  -0.517692  0  2.32809  0
O  O207  1  0.77323196  0.57624398  0.40037904  1  -1.167194  0  -0.303253  -0.517749  0  2.328186  0
O  O208  1  0.01549962  0.86177975  0.43256483  1  -1.190785  0  -0.297921  -0.535165  0  2.262831  0
O  O209  1  0.01549846  0.63822340  0.06743820  1  -1.190664  0  -0.297898  -0.535218  0  2.262895  0
O  O210  1  0.48449835  0.13822101  0.93256152  1  -1.190643  0  -0.29789  -0.535205  0  2.262964  0
O  O211  1  0.48450392  0.36177361  0.56743745  1  -1.190702  0  -0.297934  -0.535225  0  2.262833  0
O  O212  1  0.98449941  0.13822319  0.56743651  1  -1.190692  0  -0.297909  -0.53518  0  2.262904  0
O  O213  1  0.98451463  0.36177551  0.93256371  1  -1.190805  0  -0.297946  -0.535222  0  2.262851  0
O  O214  1  0.51548803  0.86177487  0.06743639  1  -1.190819  0  -0.297997  -0.535289  0  2.262854  0
O  O215  1  0.51549512  0.63822429  0.43256303  1  -1.190707  0  -0.297937  -0.535182  0  2.262829  0
O  O216  1  0.14690616  0.61366664  0.42575331  1  -1.308045  0  -0.584255  -0.76563  0  2.202057  0
O  O217  1  0.14689761  0.88633498  0.07424582  1  -1.308045  0  -0.584217  -0.765625  0  2.202071  0
O  O218  1  0.35310293  0.38633312  0.92575446  1  -1.30807  0  -0.58423  -0.765619  0  2.202037  0
O  O219  1  0.35308943  0.11366504  0.57424641  1  -1.308054  0  -0.584269  -0.765712  0  2.201998  0
O  O220  1  0.85309428  0.38633428  0.57424660  1  -1.308042  0  -0.584284  -0.765664  0  2.202088  0
O  O221  1  0.85309299  0.11366493  0.92575324  1  -1.308054  0  -0.584283  -0.765657  0  2.202057  0
O  O222  1  0.64690595  0.61366477  0.07424659  1  -1.308067  0  -0.584284  -0.765652  0  2.202009  0
O  O223  1  0.64690679  0.88633386  0.42575293  1  -1.308036  0  -0.584271  -0.765634  0  2.202052  0
