# generated using pymatgen
data_SmH10C9S3N3O8
_symmetry_space_group_name_H-M   'P 1'
_cell_length_a   8.58998095
_cell_length_b   8.73770390
_cell_length_c   11.39531291
_cell_angle_alpha   105.44381664
_cell_angle_beta   96.91655519
_cell_angle_gamma   94.49357470
_symmetry_Int_Tables_number   1
_chemical_formula_structural   SmH10C9S3N3O8
_chemical_formula_sum   'Sm2 H20 C18 S6 N6 O16'
_cell_volume   812.94526653
_cell_formula_units_Z   2
loop_
 _symmetry_equiv_pos_site_id
 _symmetry_equiv_pos_as_xyz
  1  'x, y, z'
loop_
 _atom_site_type_symbol
 _atom_site_label
 _atom_site_symmetry_multiplicity
 _atom_site_fract_x
 _atom_site_fract_y
 _atom_site_fract_z
 _atom_site_occupancy
 _atom_site_hle17_bader_spin_density
 _atom_site_hle17_ddec_charge
 _atom_site_hle17_ddec_spin_density
 _atom_site_hle17_ddec_sum_bond_order
 _atom_site_hle17_magmom
 _atom_site_hse06_10hf_bader_spin_density
 _atom_site_hse06_10hf_ddec_charge
 _atom_site_hse06_10hf_ddec_spin_density
 _atom_site_hse06_10hf_ddec_sum_bond_order
 _atom_site_hse06_10hf_magmom
 _atom_site_hse06_bader_spin_density
 _atom_site_hse06_ddec_charge
 _atom_site_hse06_ddec_spin_density
 _atom_site_hse06_ddec_sum_bond_order
 _atom_site_hse06_magmom
 _atom_site_pbe_bader_spin_density
 _atom_site_pbe_cm5_charge
 _atom_site_pbe_ddec_charge
 _atom_site_pbe_ddec_spin_density
 _atom_site_pbe_ddec_sum_bond_order
 _atom_site_pbe_magmom
Sm  Sm0  1  0.54666158  0.16395181  0.41294941  1  0  2.280408  0  1.625502  0  0  2.126624  0  2.091318  0  0  2.236709  0  1.926533  0  0  1.498246  2.093104  0  2.123466  0
Sm  Sm1  1  0.45333812  0.83603945  0.58704855  1  0  2.280392  0  1.625529  0  0  2.126643  0  2.091283  0  0  2.236692  0  1.926555  0  0  1.498219  2.09308  0  2.123511  0
H  H2  1  0.02243358  0.91612057  0.21936499  1  0  0.129184  0  0.947632  0  0  0.132268  0  1.024119  0  0  0.134758  0  1.022794  0  0  0.103731  0.130766  0  1.024607  0
H  H3  1  0.97757809  0.08389095  0.78063934  1  0  0.129066  0  0.94773  0  0  0.132211  0  1.024163  0  0  0.134701  0  1.022839  0  0  0.103692  0.130711  0  1.02464  0
H  H4  1  0.94743138  0.01222527  0.35387720  1  0  0.164618  0  0.914402  0  0  0.179381  0  0.966086  0  0  0.183014  0  0.96359  0  0  0.122785  0.176872  0  0.967813  0
H  H5  1  0.05256580  0.98778104  0.64611507  1  0  0.164678  0  0.914383  0  0  0.179386  0  0.966145  0  0  0.183021  0  0.963646  0  0  0.122781  0.176877  0  0.967869  0
H  H6  1  0.56704149  0.73720845  0.15705721  1  0  0.141683  0  0.919969  0  0  0.151474  0  0.983427  0  0  0.154088  0  0.982369  0  0  0.11542  0.149628  0  0.984216  0
H  H7  1  0.43296341  0.26277807  0.84294227  1  0  0.141579  0  0.919917  0  0  0.151358  0  0.9834  0  0  0.15397  0  0.982346  0  0  0.11539  0.149514  0  0.984187  0
H  H8  1  0.37186695  0.79085640  0.16548183  1  0  0.151157  0  0.930037  0  0  0.158819  0  0.998016  0  0  0.161395  0  0.997168  0  0  0.121669  0.156836  0  0.999023  0
H  H9  1  0.62813664  0.20912081  0.83451949  1  0  0.151198  0  0.929978  0  0  0.158818  0  0.99801  0  0  0.16139  0  0.997167  0  0  0.121694  0.156837  0  0.999013  0
H  H10  1  0.63873557  0.27299637  0.06059602  1  0  0.124976  0  0.960441  0  0  0.129133  0  1.038691  0  0  0.131408  0  1.038159  0  0  0.103568  0.127449  0  1.039194  0
H  H11  1  0.36127628  0.72703597  0.93941880  1  0  0.124875  0  0.96053  0  0  0.129003  0  1.038723  0  0  0.131279  0  1.038197  0  0  0.103522  0.12732  0  1.039227  0
H  H12  1  0.60132385  0.06527509  0.98147594  1  0  0.143895  0  0.952567  0  0  0.160268  0  1.004967  0  0  0.163061  0  1.003574  0  0  0.112636  0.158299  0  1.00594  0
H  H13  1  0.39865822  0.93476692  0.01851449  1  0  0.143988  0  0.952643  0  0  0.160291  0  1.005057  0  0  0.163088  0  1.003672  0  0  0.112604  0.158329  0  1.006017  0
H  H14  1  0.76681701  0.41727047  0.33755790  1  0  0.433116  0  0.854186  0  0  0.39775  0  0.925186  0  0  0.408349  0  0.90952  0  0  0.301779  0.39035  0  0.93622  0
H  H15  1  0.23319332  0.58272380  0.66245311  1  0  0.433024  0  0.85436  0  0  0.397657  0  0.925335  0  0  0.408257  0  0.909667  0  0  0.301729  0.390254  0  0.936373  0
H  H16  1  0.70451034  0.51271213  0.46163586  1  0  0.448742  0  0.836787  0  0  0.42005  0  0.895377  0  0  0.430952  0  0.879475  0  0  0.306568  0.412496  0  0.906508  0
H  H17  1  0.29549886  0.48727396  0.53837631  1  0  0.448707  0  0.836833  0  0  0.420015  0  0.895429  0  0  0.430913  0  0.879532  0  0  0.306521  0.412463  0  0.906557  0
H  H18  1  0.25964670  0.27642601  0.33653675  1  0  0.452265  0  0.802028  0  0  0.429375  0  0.860417  0  0  0.438472  0  0.849408  0  0  0.32748  0.422823  0  0.868109  0
H  H19  1  0.74034328  0.72355866  0.66348282  1  0  0.452283  0  0.802052  0  0  0.429357  0  0.86052  0  0  0.438453  0  0.849452  0  0  0.327419  0.422805  0  0.868201  0
H  H20  1  0.37081931  0.44328879  0.35797482  1  0  0.450536  0  0.842909  0  0  0.416343  0  0.911195  0  0  0.427175  0  0.895705  0  0  0.308777  0.40876  0  0.922194  0
H  H21  1  0.62916765  0.55669766  0.64203506  1  0  0.450598  0  0.842814  0  0  0.416472  0  0.911013  0  0  0.427302  0  0.895525  0  0  0.308831  0.40889  0  0.922009  0
C  C22  1  0.98331700  0.58536741  0.22493569  1  0  0.3878  0  3.79391  0  0  0.369357  0  4.082843  0  0  0.391374  0  4.090198  0  0  0.248778  0.354648  0  4.077548  0
C  C23  1  0.01668720  0.41463879  0.77505730  1  0  0.387802  0  3.793767  0  0  0.369401  0  4.082635  0  0  0.39142  0  4.089992  0  0  0.248736  0.354698  0  4.077331  0
C  C24  1  0.18813961  0.49161200  0.13362568  1  0  0.387949  0  3.819596  0  0  0.368616  0  4.111682  0  0  0.390427  0  4.119046  0  0  0.24748  0.354061  0  4.106336  0
C  C25  1  0.81186015  0.50838709  0.86636567  1  0  0.388143  0  3.819391  0  0  0.368693  0  4.111622  0  0  0.390506  0  4.118986  0  0  0.247486  0.35415  0  4.106261  0
C  C26  1  0.96629047  0.32551423  0.11538607  1  0  0.388105  0  3.809721  0  0  0.367497  0  4.103756  0  0  0.389314  0  4.11138  0  0  0.244606  0.352934  0  4.098255  0
C  C27  1  0.03370460  0.67449127  0.88459354  1  0  0.388206  0  3.809532  0  0  0.367557  0  4.103621  0  0  0.389387  0  4.111221  0  0  0.244604  0.352989  0  4.098129  0
C  C28  1  0.01449902  0.91359783  0.31419309  1  0  -0.310448  0  3.599873  0  0  -0.341856  0  3.85218  0  0  -0.345842  0  3.854183  0  0  -0.146422  -0.338983  0  3.849632  0
C  C29  1  0.98550424  0.08641108  0.68580465  1  0  -0.310269  0  3.599855  0  0  -0.34173  0  3.852097  0  0  -0.345719  0  3.854108  0  0  -0.146381  -0.338892  0  3.849624  0
C  C30  1  0.18011774  0.94298802  0.38700978  1  0  0.774733  0  3.818646  0  0  0.728104  0  4.121048  0  0  0.762835  0  4.113913  0  0  0.228778  0.704925  0  4.127157  0
C  C31  1  0.81987240  0.05701219  0.61299480  1  0  0.774296  0  3.819315  0  0  0.727813  0  4.121497  0  0  0.76254  0  4.114375  0  0  0.228573  0.704629  0  4.127605  0
C  C32  1  0.45402301  0.70865768  0.18719742  1  0  -0.320267  0  3.642291  0  0  -0.352076  0  3.894094  0  0  -0.356587  0  3.898282  0  0  -0.144147  -0.348933  0  3.891213  0
C  C33  1  0.54599058  0.29132409  0.81280483  1  0  -0.320211  0  3.642109  0  0  -0.351964  0  3.893942  0  0  -0.356483  0  3.898136  0  0  -0.144132  -0.348825  0  3.89106  0
C  C34  1  0.47975838  0.74058226  0.32543253  1  0  0.757551  0  3.830395  0  0  0.708396  0  4.128222  0  0  0.741876  0  4.125892  0  0  0.222579  0.685277  0  4.134035  0
C  C35  1  0.52025514  0.25940783  0.67457021  1  0  0.757665  0  3.830419  0  0  0.708449  0  4.128306  0  0  0.741944  0  4.125955  0  0  0.222587  0.685329  0  4.134123  0
C  C36  1  0.66993148  0.15384761  0.06210909  1  0  -0.311881  0  3.648046  0  0  -0.340757  0  3.891982  0  0  -0.345088  0  3.896633  0  0  -0.154013  -0.337479  0  3.888347  0
C  C37  1  0.33006080  0.84617576  0.93788900  1  0  -0.311967  0  3.648356  0  0  -0.34073  0  3.892354  0  0  -0.34509  0  3.897063  0  0  -0.153904  -0.337455  0  3.888727  0
C  C38  1  0.62562872  0.12172634  0.17840775  1  0  0.685575  0  3.910281  0  0  0.64645  0  4.201473  0  0  0.677117  0  4.20288  0  0  0.180352  0.624813  0  4.204632  0
C  C39  1  0.37435857  0.87827678  0.82158646  1  0  0.685717  0  3.910277  0  0  0.646493  0  4.201577  0  0  0.677168  0  4.202979  0  0  0.18029  0.624854  0  4.204729  0
S  S40  1  0.38214299  0.50626695  0.10229979  1  0  0.054859  0  2.431673  0  0  0.047772  0  2.782804  0  0  0.044746  0  2.777355  0  0  0.059081  0.050104  0  2.78643  0
S  S41  1  0.61787027  0.49372237  0.89770895  1  0  0.05473  0  2.431595  0  0  0.047697  0  2.78273  0  0  0.044668  0  2.777289  0  0  0.059023  0.050027  0  2.786354  0
S  S42  1  0.88957638  0.73675819  0.31105765  1  0  0.082348  0  2.348511  0  0  0.075881  0  2.674592  0  0  0.072531  0  2.669515  0  0  0.068663  0.078641  0  2.677659  0
S  S43  1  0.11042161  0.26324415  0.68892878  1  0  0.082294  0  2.348544  0  0  0.07582  0  2.674622  0  0  0.07247  0  2.669548  0  0  0.068683  0.078582  0  2.677691  0
S  S44  1  0.87007084  0.13719968  0.03735589  1  0  0.094012  0  2.426286  0  0  0.084303  0  2.772124  0  0  0.081082  0  2.766208  0  0  0.074594  0.086674  0  2.775707  0
S  S45  1  0.12992027  0.86281384  0.96263606  1  0  0.094049  0  2.426241  0  0  0.084324  0  2.772056  0  0  0.081106  0  2.766152  0  0  0.074597  0.086688  0  2.775651  0
N  N46  1  0.12693824  0.61964985  0.19685188  1  0  -0.451131  0  3.020818  0  0  -0.41427  0  3.288372  0  0  -0.434078  0  3.299805  0  0  -0.320457  -0.401085  0  3.280337  0
N  N47  1  0.87307064  0.38035808  0.80315068  1  0  -0.451081  0  3.020786  0  0  -0.414211  0  3.28838  0  0  -0.433999  0  3.299774  0  0  -0.32039  -0.401032  0  3.280345  0
N  N48  1  0.11312292  0.34385587  0.08703434  1  0  -0.469175  0  2.999861  0  0  -0.438204  0  3.271262  0  0  -0.455702  0  3.276618  0  0  -0.339407  -0.426722  0  3.267644  0
N  N49  1  0.88686596  0.65615552  0.91294295  1  0  -0.46935  0  2.999752  0  0  -0.438311  0  3.271186  0  0  -0.455813  0  3.276536  0  0  -0.339423  -0.426826  0  3.267565  0
N  N50  1  0.89906540  0.43835173  0.19186839  1  0  -0.498654  0  3.010997  0  0  -0.45405  0  3.270963  0  0  -0.473359  0  3.277839  0  0  -0.324976  -0.441207  0  3.266195  0
N  N51  1  0.10093686  0.56165659  0.80812035  1  0  -0.498699  0  3.01097  0  0  -0.454086  0  3.270911  0  0  -0.473407  0  3.277795  0  0  -0.32498  -0.441236  0  3.266127  0
O  O52  1  0.27110522  0.04823289  0.36151651  1  0  -0.742829  0  2.012859  0  0  -0.688455  0  2.263373  0  0  -0.722367  0  2.250706  0  0  -0.388893  -0.669995  0  2.269954  0
O  O53  1  0.72889886  0.95175765  0.63848970  1  0  -0.742605  0  2.012874  0  0  -0.688262  0  2.263267  0  0  -0.72217  0  2.250613  0  0  -0.388751  -0.669785  0  2.269846  0
O  O54  1  0.21556718  0.86869037  0.46602490  1  0  -0.73156  0  2.020831  0  0  -0.685488  0  2.277653  0  0  -0.718744  0  2.264745  0  0  -0.391401  -0.668363  0  2.28424  0
O  O55  1  0.78441590  0.13130380  0.53399288  1  0  -0.731393  0  2.021384  0  0  -0.68535  0  2.27809  0  0  -0.71861  0  2.265183  0  0  -0.391327  -0.668228  0  2.284679  0
O  O56  1  0.53693838  0.88222106  0.38916577  1  0  -0.824971  0  2.163313  0  0  -0.769786  0  2.433864  0  0  -0.810677  0  2.422857  0  0  -0.436156  -0.751779  0  2.44074  0
O  O57  1  0.46307925  0.11776400  0.61083394  1  0  -0.824936  0  2.163032  0  0  -0.769849  0  2.433851  0  0  -0.810749  0  2.422849  0  0  -0.436186  -0.751835  0  2.440722  0
O  O58  1  0.44319653  0.63614462  0.37873181  1  0  -0.684864  0  2.054411  0  0  -0.623257  0  2.289859  0  0  -0.65546  0  2.281544  0  0  -0.340232  -0.604771  0  2.29469  0
O  O59  1  0.55680760  0.36384574  0.62127174  1  0  -0.684852  0  2.054555  0  0  -0.623205  0  2.289994  0  0  -0.655415  0  2.28167  0  0  -0.340141  -0.604726  0  2.294828  0
O  O60  1  0.72838342  0.09963846  0.26026291  1  0  -0.678713  0  1.973196  0  0  -0.630665  0  2.208628  0  0  -0.66158  0  2.201454  0  0  -0.376302  -0.613556  0  2.212855  0
O  O61  1  0.27159342  0.90033677  0.73971769  1  0  -0.678918  0  1.973092  0  0  -0.630782  0  2.208481  0  0  -0.661694  0  2.2013  0  0  -0.376423  -0.613659  0  2.212699  0
O  O62  1  0.47966905  0.12390840  0.19166544  1  0  -0.708511  0  1.938747  0  0  -0.665852  0  2.179173  0  0  -0.696527  0  2.16957  0  0  -0.398395  -0.649166  0  2.184853  0
O  O63  1  0.52032078  0.87611363  0.80832953  1  0  -0.708447  0  1.938844  0  0  -0.665763  0  2.179305  0  0  -0.696428  0  2.169698  0  0  -0.398261  -0.649109  0  2.185067  0
O  O64  1  0.70197851  0.40763569  0.40125486  1  0  -0.911766  0  1.865159  0  0  -0.860104  0  2.051135  0  0  -0.885591  0  2.013027  0  0  -0.635913  -0.847773  0  2.073865  0
O  O65  1  0.29802354  0.59235728  0.59875154  1  0  -0.911665  0  1.865345  0  0  -0.860009  0  2.05127  0  0  -0.885487  0  2.013176  0  0  -0.635852  -0.847676  0  2.074008  0
O  O66  1  0.34187092  0.35390586  0.39319881  1  0  -0.888767  0  1.877489  0  0  -0.833038  0  2.067768  0  0  -0.859064  0  2.034472  0  0  -0.600838  -0.819612  0  2.088065  0
O  O67  1  0.65812714  0.64608537  0.60681568  1  0  -0.888876  0  1.877409  0  0  -0.833206  0  2.067589  0  0  -0.859229  0  2.034247  0  0  -0.600846  -0.819779  0  2.087881  0
