# generated using pymatgen
data_AgH9C9SN2O3
_symmetry_space_group_name_H-M   'P 1'
_cell_length_a   7.07029438
_cell_length_b   8.25303452
_cell_length_c   9.14908624
_cell_angle_alpha   70.55633417
_cell_angle_beta   84.72218192
_cell_angle_gamma   80.90877210
_symmetry_Int_Tables_number   1
_chemical_formula_structural   AgH9C9SN2O3
_chemical_formula_sum   'Ag2 H18 C18 S2 N4 O6'
_cell_volume   496.64644850
_cell_formula_units_Z   2
loop_
 _symmetry_equiv_pos_site_id
 _symmetry_equiv_pos_as_xyz
  1  'x, y, z'
loop_
 _atom_site_type_symbol
 _atom_site_label
 _atom_site_symmetry_multiplicity
 _atom_site_fract_x
 _atom_site_fract_y
 _atom_site_fract_z
 _atom_site_occupancy
 _atom_site_hle17_bader_spin_density
 _atom_site_hle17_ddec_charge
 _atom_site_hle17_ddec_spin_density
 _atom_site_hle17_ddec_sum_bond_order
 _atom_site_hle17_magmom
 _atom_site_hse06_10hf_bader_spin_density
 _atom_site_hse06_10hf_ddec_charge
 _atom_site_hse06_10hf_ddec_spin_density
 _atom_site_hse06_10hf_ddec_sum_bond_order
 _atom_site_hse06_10hf_magmom
 _atom_site_hse06_bader_spin_density
 _atom_site_hse06_ddec_charge
 _atom_site_hse06_ddec_spin_density
 _atom_site_hse06_ddec_sum_bond_order
 _atom_site_hse06_magmom
 _atom_site_pbe_bader_spin_density
 _atom_site_pbe_cm5_charge
 _atom_site_pbe_ddec_charge
 _atom_site_pbe_ddec_spin_density
 _atom_site_pbe_ddec_sum_bond_order
 _atom_site_pbe_magmom
Ag  Ag0  1  0.99244065  0.08466209  0.80474599  1  0  0.536853  0  1.386487  0  0  0.392964  0  1.830243  0  0  0.424068  0  1.785423  0  0  0.44392  0.369599  0  1.862103  0
Ag  Ag1  1  0.00755935  0.91533690  0.19525466  1  0  0.536868  0  1.38645  0  0  0.392977  0  1.83024  0  0  0.424081  0  1.78542  0  0  0.443925  0.369613  0  1.862106  0
H  H2  1  0.71545469  0.50650655  0.64280342  1  0  0.115387  0  0.964899  0  0  0.120552  0  1.031786  0  0  0.124664  0  1.028826  0  0  0.108788  0.117247  0  1.034507  0
H  H3  1  0.28454325  0.49348725  0.35719893  1  0  0.115396  0  0.964873  0  0  0.120535  0  1.031793  0  0  0.124646  0  1.028834  0  0  0.108774  0.117235  0  1.034514  0
H  H4  1  0.92512818  0.50427657  0.84865964  1  0  0.097145  0  0.958434  0  0  0.107876  0  1.017435  0  0  0.110351  0  1.017083  0  0  0.103835  0.106024  0  1.017868  0
H  H5  1  0.07487200  0.49572114  0.15133920  1  0  0.097126  0  0.958447  0  0  0.107893  0  1.017405  0  0  0.110371  0  1.017049  0  0  0.10382  0.10604  0  1.017837  0
H  H6  1  0.84618426  0.35327399  0.12694521  1  0  0.088877  0  0.974472  0  0  0.098188  0  1.038039  0  0  0.101581  0  1.035939  0  0  0.099025  0.095441  0  1.040463  0
H  H7  1  0.15381632  0.64672111  0.87305545  1  0  0.088916  0  0.974496  0  0  0.098254  0  1.03802  0  0  0.101646  0  1.035924  0  0  0.099056  0.095506  0  1.040445  0
H  H8  1  0.56654057  0.18655238  0.20319503  1  0  0.112243  0  0.932467  0  0  0.122836  0  0.990722  0  0  0.126578  0  0.988295  0  0  0.112338  0.120159  0  0.992498  0
H  H9  1  0.43345680  0.81344530  0.79680731  1  0  0.112144  0  0.932607  0  0  0.122833  0  0.99076  0  0  0.126579  0  0.988329  0  0  0.112336  0.120153  0  0.992536  0
H  H10  1  0.11228982  0.27915794  0.44626134  1  0  0.066727  0  0.947633  0  0  0.084815  0  1.010459  0  0  0.084741  0  1.010894  0  0  0.102006  0.085054  0  1.009852  0
H  H11  1  0.88771385  0.72084494  0.55373678  1  0  0.066764  0  0.9476  0  0  0.084818  0  1.010436  0  0  0.084744  0  1.010871  0  0  0.102006  0.085053  0  1.009829  0
H  H12  1  0.00155662  0.20649661  0.31604683  1  0  0.032761  0  0.959958  0  0  0.051918  0  1.031127  0  0  0.051473  0  1.030843  0  0  0.087319  0.051978  0  1.032387  0
H  H13  1  0.99844706  0.79350627  0.68395238  1  0  0.032788  0  0.959948  0  0  0.051941  0  1.031094  0  0  0.051496  0  1.030809  0  0  0.087334  0.052  0  1.032353  0
H  H14  1  0.31927161  0.03611162  0.37878368  1  0  0.084204  0  0.939078  0  0  0.100756  0  0.999843  0  0  0.101595  0  0.999457  0  0  0.10587  0.100204  0  1.000154  0
H  H15  1  0.68073348  0.96389127  0.62121432  1  0  0.084228  0  0.939065  0  0  0.100805  0  0.999846  0  0  0.101644  0  0.999464  0  0  0.105867  0.10025  0  1.000159  0
H  H16  1  0.25514211  0.97839588  0.58071832  1  0  0.039251  0  0.948198  0  0  0.056485  0  1.020918  0  0  0.056612  0  1.019821  0  0  0.088396  0.056657  0  1.021745  0
H  H17  1  0.74486014  0.02160700  0.41927991  1  0  0.039215  0  0.948151  0  0  0.056516  0  1.020853  0  0  0.056646  0  1.019751  0  0  0.088402  0.056684  0  1.021685  0
H  H18  1  0.78710490  0.24184006  0.52607319  1  0  0.256249  0  0.92211  0  0  0.249897  0  0.97484  0  0  0.254198  0  0.973407  0  0  0.289368  0.24719  0  0.975233  0
H  H19  1  0.21289878  0.75816282  0.47392603  1  0  0.256278  0  0.922123  0  0  0.2499  0  0.974881  0  0  0.254199  0  0.973448  0  0  0.289362  0.247192  0  0.975275  0
C  C20  1  0.52762117  0.34751187  0.81156112  1  0  -0.127118  0  3.758206  0  0  -0.107893  0  4.000651  0  0  -0.112352  0  4.021334  0  0  -0.013786  -0.105205  0  3.986954  0
C  C21  1  0.47237783  0.65248451  0.18844257  1  0  -0.127121  0  3.758206  0  0  -0.107907  0  4.000636  0  0  -0.112366  0  4.021322  0  0  -0.01375  -0.105215  0  3.986943  0
C  C22  1  0.68431701  0.43749756  0.76451023  1  0  -0.055894  0  3.714831  0  0  -0.079354  0  3.965512  0  0  -0.07847  0  3.981115  0  0  -0.079483  -0.079808  0  3.955025  0
C  C23  1  0.31568138  0.56250272  0.23549016  1  0  -0.055926  0  3.714934  0  0  -0.07937  0  3.965634  0  0  -0.078486  0  3.98124  0  0  -0.079498  -0.079829  0  3.955148  0
C  C24  1  0.80006113  0.43604816  0.88142364  1  0  -0.051033  0  3.719617  0  0  -0.063104  0  3.969068  0  0  -0.064415  0  3.988737  0  0  -0.080683  -0.061734  0  3.955067  0
C  C25  1  0.19993342  0.56394952  0.11858001  1  0  -0.050977  0  3.719522  0  0  -0.063058  0  3.968943  0  0  -0.064369  0  3.988611  0  0  -0.080659  -0.061686  0  3.954938  0
C  C26  1  0.75687597  0.34904297  0.03782027  1  0  -0.07086  0  3.745453  0  0  -0.087794  0  4.005383  0  0  -0.089345  0  4.023848  0  0  -0.085536  -0.086774  0  3.993266  0
C  C27  1  0.24312240  0.65095732  0.96217903  1  0  -0.070977  0  3.745483  0  0  -0.08794  0  4.005446  0  0  -0.089492  0  4.023916  0  0  -0.085572  -0.086916  0  3.993322  0
C  C28  1  0.60004253  0.25661821  0.08208237  1  0  -0.050282  0  3.697342  0  0  -0.073489  0  3.949935  0  0  -0.07306  0  3.967949  0  0  -0.07261  -0.073786  0  3.937576  0
C  C29  1  0.39995464  0.74338077  0.91791959  1  0  -0.050145  0  3.697439  0  0  -0.073455  0  3.950075  0  0  -0.073024  0  3.968076  0  0  -0.072632  -0.073756  0  3.93772  0
C  C30  1  0.48604281  0.25578151  0.96621735  1  0  -0.05579  0  3.795237  0  0  -0.040497  0  4.022746  0  0  -0.046798  0  4.04687  0  0  -0.011463  -0.03602  0  4.006538  0
C  C31  1  0.51395254  0.74422007  0.03378289  1  0  -0.055796  0  3.79523  0  0  -0.040504  0  4.02277  0  0  -0.046805  0  4.046897  0  0  -0.011451  -0.036033  0  4.006566  0
C  C32  1  0.31540026  0.16408006  0.98395114  1  0  0.551467  0  3.893827  0  0  0.505127  0  4.17199  0  0  0.535704  0  4.17443  0  0  0.225603  0.484097  0  4.169826  0
C  C33  1  0.68459087  0.83592150  0.01605271  1  0  0.5515  0  3.89378  0  0  0.505157  0  4.171941  0  0  0.535735  0  4.174381  0  0  0.22556  0.484138  0  4.169767  0
C  C34  1  0.05023611  0.17043540  0.43572364  1  0  0.013981  0  3.677165  0  0  -0.045914  0  3.935583  0  0  -0.041993  0  3.949584  0  0  -0.08093  -0.048677  0  3.925473  0
C  C35  1  0.94976918  0.82956620  0.56427474  1  0  0.013935  0  3.677127  0  0  -0.045853  0  3.935443  0  0  -0.041931  0  3.949449  0  0  -0.080905  -0.048607  0  3.925318  0
C  C36  1  0.19934097  0.01110362  0.46382779  1  0  0.01196  0  3.662393  0  0  -0.047107  0  3.920067  0  0  -0.043164  0  3.932809  0  0  -0.082153  -0.049966  0  3.910602  0
C  C37  1  0.80066127  0.98889927  0.53617044  1  0  0.012038  0  3.662223  0  0  -0.047198  0  3.920058  0  0  -0.04326  0  3.932804  0  0  -0.082166  -0.050049  0  3.910588  0
S  S38  1  0.35021068  0.32191867  0.69941169  1  0  1.213286  0  5.388466  0  0  1.12351  0  5.898209  0  0  1.16873  0  5.883345  0  0  0.550272  1.092463  0  5.907778  0
S  S39  1  0.64978574  0.67808548  0.30059098  1  0  1.213504  0  5.388463  0  0  1.123748  0  5.898184  0  0  1.168966  0  5.88332  0  0  0.55042  1.092689  0  5.907774  0
N  N40  1  0.23697651  0.18969773  0.84695950  1  0  -0.68635  0  3.152004  0  0  -0.606101  0  3.482497  0  0  -0.637449  0  3.483021  0  0  -0.414888  -0.584457  0  3.481169  0
N  N41  1  0.76302208  0.81030125  0.15304126  1  0  -0.686398  0  3.152031  0  0  -0.606188  0  3.482576  0  0  -0.637534  0  3.483091  0  0  -0.414887  -0.584543  0  3.481243  0
N  N42  1  0.88793467  0.13405264  0.54940093  1  0  -0.409028  0  3.207829  0  0  -0.325378  0  3.458307  0  0  -0.34516  0  3.470578  0  0  -0.491027  -0.309724  0  3.447454  0
N  N43  1  0.11206919  0.86594895  0.45059756  1  0  -0.409112  0  3.20796  0  0  -0.325464  0  3.458332  0  0  -0.34525  0  3.470602  0  0  -0.491039  -0.30981  0  3.447483  0
O  O44  1  0.22458837  0.48387903  0.63518020  1  0  -0.598589  0  1.929692  0  0  -0.548376  0  2.174994  0  0  -0.569905  0  2.164176  0  0  -0.310825  -0.533267  0  2.182164  0
O  O45  1  0.77541809  0.51611478  0.36482041  1  0  -0.598619  0  1.929348  0  0  -0.548426  0  2.174653  0  0  -0.56997  0  2.16385  0  0  -0.310839  -0.533317  0  2.181835  0
O  O46  1  0.43449062  0.23588815  0.58943744  1  0  -0.578232  0  1.931317  0  0  -0.523824  0  2.170427  0  0  -0.545558  0  2.160765  0  0  -0.29822  -0.509123  0  2.176823  0
O  O47  1  0.56551580  0.76410567  0.41056097  1  0  -0.578385  0  1.931784  0  0  -0.523943  0  2.170857  0  0  -0.545653  0  2.161154  0  0  -0.298336  -0.509238  0  2.177255  0
O  O48  1  0.25709781  0.07304781  0.11447650  1  0  -0.537192  0  2.097173  0  0  -0.466064  0  2.36373  0  0  -0.492603  0  2.355255  0  0  -0.295141  -0.447556  0  2.369653  0
O  O49  1  0.74289032  0.92696413  0.88552341  1  0  -0.53727  0  2.097131  0  0  -0.466097  0  2.36365  0  0  -0.492637  0  2.355174  0  0  -0.295124  -0.44757  0  2.369519  0
