# generated using pymatgen
data_CuH6C10(NO)4
_symmetry_space_group_name_H-M   'P 1'
_cell_length_a   7.91483967
_cell_length_b   12.59265454
_cell_length_c   12.59094607
_cell_angle_alpha   115.72179540
_cell_angle_beta   102.12324113
_cell_angle_gamma   102.07654488
_symmetry_Int_Tables_number   1
_chemical_formula_structural   CuH6C10(NO)4
_chemical_formula_sum   'Cu3 H18 C30 N12 O12'
_cell_volume   1039.10862984
_cell_formula_units_Z   3
loop_
 _symmetry_equiv_pos_site_id
 _symmetry_equiv_pos_as_xyz
  1  'x, y, z'
loop_
 _atom_site_type_symbol
 _atom_site_label
 _atom_site_symmetry_multiplicity
 _atom_site_fract_x
 _atom_site_fract_y
 _atom_site_fract_z
 _atom_site_occupancy
 _atom_site_pbe_bader_charge
 _atom_site_pbe_bader_spin_density
 _atom_site_pbe_cm5_charge
 _atom_site_pbe_ddec_charge
 _atom_site_pbe_ddec_spin_density
 _atom_site_pbe_ddec_sum_bond_order
 _atom_site_pbe_magmom
Cu  Cu0  1  0.49999912  0.49999772  0.00000104  1  1.058202  0.547556  0.748352  0.759802  0.711598  2.207723  0.548
Cu  Cu1  1  0.00000206  0.50000389  0.50000293  1  1.051695  0.547476  0.746571  0.757189  0.711481  2.207996  0.548
Cu  Cu2  1  0.50000066  0.00000423  0.49999991  1  1.083097  0.54789  0.747894  0.759185  0.711714  2.207323  0.548
H  H3  1  0.07686057  0.62130439  0.01198705  1  0.14321  0.000854  0.121529  0.100219  0.000583  1.001392  0.001
H  H4  1  0.31626451  0.58702071  0.74032129  1  0.181238  0.000587  0.133425  0.095782  0.000247  1.002581  0.0
H  H5  1  0.74589242  0.47787393  0.62852805  1  0.157658  0.002201  0.124137  0.096805  0.00098  1.033723  0.002
H  H6  1  0.45580541  0.39050249  0.37848381  1  0.145504  0.000858  0.121334  0.100607  0.00058  1.001217  0.001
H  H7  1  0.72975744  0.15331438  0.41304566  1  0.186163  0.000583  0.134363  0.09751  0.000247  1.003488  0.0
H  H8  1  0.26839049  0.15058940  0.52191746  1  0.145639  0.002222  0.124763  0.098651  0.00098  1.032669  0.002
H  H9  1  0.06538293  0.98808988  0.60946728  1  0.131226  0.000874  0.121183  0.100979  0.000582  1.000884  0.001
H  H10  1  0.57653845  0.25992565  0.84655467  1  0.164154  0.00059  0.133602  0.09751  0.000248  1.003085  0.0
H  H11  1  0.11776876  0.37152621  0.84887893  1  0.160845  0.002201  0.123696  0.096828  0.000985  1.030889  0.002
H  H12  1  0.92313638  0.37868644  0.98801284  1  0.14319  0.000854  0.121519  0.100216  0.000583  1.001393  0.001
H  H13  1  0.68373560  0.41297387  0.25967906  1  0.181411  0.000587  0.133412  0.095753  0.000247  1.002632  0.0
H  H14  1  0.25411048  0.52212628  0.37147272  1  0.157597  0.0022  0.124125  0.09681  0.00098  1.033707  0.002
H  H15  1  0.54419159  0.60950148  0.62151545  1  0.145582  0.000858  0.121365  0.100648  0.00058  1.001202  0.001
H  H16  1  0.27023603  0.84668771  0.58695154  1  0.186108  0.000583  0.134349  0.097513  0.000247  1.003495  0.0
H  H17  1  0.73160781  0.84941456  0.47808276  1  0.145821  0.002223  0.124757  0.098673  0.00098  1.03271  0.002
H  H18  1  0.93461468  0.01190752  0.39053079  1  0.131265  0.000874  0.121165  0.100942  0.000582  1.000906  0.001
H  H19  1  0.42346249  0.74006799  0.15344696  1  0.164171  0.00059  0.133598  0.097575  0.000248  1.003154  0.0
H  H20  1  0.88223803  0.62847400  0.15112394  1  0.160789  0.002201  0.123694  0.096808  0.000985  1.03089  0.002
C  C21  1  0.70431457  0.52218026  0.84795117  1  1.61684  -0.00068  0.203282  0.575688  -0.000871  4.237318  -0.003
C  C22  1  0.88339130  0.54280006  0.82356373  1  0.031036  0.016428  -0.0028  -0.095883  0.011489  3.915976  0.013
C  C23  1  0.05830793  0.59294095  0.91385661  1  0.462115  -0.003671  0.077213  0.127345  -0.004297  3.873607  -0.003
C  C24  1  0.19297942  0.57731661  0.76578414  1  1.033384  -0.001652  0.189916  0.244965  -0.001726  3.921292  0.0
C  C25  1  0.87671174  0.51398317  0.70273675  1  0.523731  0.000197  0.072826  0.126264  -0.00066  3.871976  0.0
C  C26  1  0.18252038  0.32578561  0.47788405  1  1.610271  -0.000676  0.20464  0.579786  -0.00087  4.232407  -0.003
C  C27  1  0.34107133  0.28084966  0.45727142  1  0.024335  0.016392  -0.003288  -0.097771  0.011505  3.914635  0.013
C  C28  1  0.46566879  0.32085252  0.40700477  1  0.485449  -0.003681  0.077137  0.126942  -0.004299  3.871063  -0.003
C  C29  1  0.61610775  0.18843247  0.42269763  1  1.029539  -0.001655  0.189493  0.243794  -0.001694  3.919934  0.0
C  C30  1  0.36322129  0.18876529  0.48597778  1  0.513179  0.000202  0.071278  0.12325  -0.000675  3.875054  0.0
C  C31  1  0.85671884  0.15211940  0.67408055  1  1.628354  -0.000718  0.202193  0.576281  -0.000877  4.234085  -0.003
C  C32  1  0.06024773  0.17652552  0.71899736  1  0.067598  0.01631  -0.005372  -0.098262  0.011506  3.913288  0.013
C  C33  1  0.14489488  0.08624680  0.67905201  1  0.48683  -0.003703  0.078517  0.127028  -0.004295  3.869344  -0.003
C  C34  1  0.42775673  0.23444420  0.81133980  1  1.076391  -0.001739  0.186812  0.239727  -0.001704  3.923456  0.0
C  C35  1  0.17445089  0.29737671  0.81086762  1  0.468101  0.000367  0.073459  0.12595  -0.000668  3.870382  0.0
C  C36  1  0.29568070  0.47781245  0.15204535  1  1.61684  -0.000681  0.203267  0.575713  -0.000872  4.237208  -0.003
C  C37  1  0.11660010  0.45719265  0.17643229  1  0.031072  0.016428  -0.002743  -0.095841  0.011489  3.916024  0.013
C  C38  1  0.94168982  0.40704895  0.08614059  1  0.461915  -0.003671  0.077154  0.127245  -0.004297  3.873741  -0.003
C  C39  1  0.80702210  0.42268079  0.23421920  1  1.03316  -0.001653  0.190049  0.245051  -0.001726  3.92111  0.0
C  C40  1  0.12329328  0.48601611  0.29726389  1  0.523699  0.000197  0.072838  0.126279  -0.000661  3.871823  0.0
C  C41  1  0.81748508  0.67422491  0.52211916  1  1.610342  -0.000675  0.204498  0.579469  -0.000869  4.232619  -0.003
C  C42  1  0.65893048  0.71915618  0.54272928  1  0.024577  0.016393  -0.003286  -0.097673  0.011505  3.914649  0.013
C  C43  1  0.53433210  0.67915144  0.59299579  1  0.485097  -0.003681  0.077121  0.126905  -0.004298  3.870972  -0.003
C  C44  1  0.38389312  0.81157149  0.57730134  1  1.029905  -0.001657  0.189548  0.243802  -0.001695  3.920168  0.0
C  C45  1  0.63677571  0.81123867  0.51402069  1  0.512851  0.000204  0.071323  0.123134  -0.000674  3.875098  0.0
C  C46  1  0.14328545  0.84788363  0.32592004  1  1.628331  -0.000718  0.202215  0.576243  -0.000877  4.233974  -0.003
C  C47  1  0.93975303  0.82347563  0.28100037  1  0.067607  0.016311  -0.005394  -0.098281  0.011507  3.913343  0.013
C  C48  1  0.85510319  0.91375154  0.32094573  1  0.486862  -0.003703  0.078546  0.127053  -0.004295  3.869391  -0.003
C  C49  1  0.57224164  0.76554945  0.18866230  1  1.076452  -0.001737  0.186824  0.239573  -0.001704  3.923813  0.0
C  C50  1  0.82555284  0.70262256  0.18913364  1  0.468059  0.000367  0.073374  0.125863  -0.000667  3.87038  0.0
N  N51  1  0.02993112  0.53171267  0.67371765  1  -1.20473  0.08564  -0.343499  -0.260144  0.057924  3.585035  0.075
N  N52  1  0.21219175  0.60939236  0.88461720  1  -1.186272  0.012987  -0.30838  -0.292861  0.008284  3.292706  0.01
N  N53  1  0.49859969  0.14192194  0.46817097  1  -1.204599  0.085685  -0.343308  -0.259736  0.057948  3.586574  0.075
N  N54  1  0.60313878  0.27514468  0.39059816  1  -1.179796  0.01301  -0.309491  -0.293672  0.008301  3.290419  0.01
N  N55  1  0.35670155  0.32643599  0.85773061  1  -1.25287  0.085844  -0.340642  -0.256314  0.058  3.584352  0.075
N  N56  1  0.32810832  0.11560791  0.72470591  1  -1.170521  0.013018  -0.308201  -0.292547  0.008296  3.291517  0.01
N  N57  1  0.97007004  0.46828660  0.32628487  1  -1.204631  0.085642  -0.343546  -0.260186  0.057926  3.584898  0.075
N  N58  1  0.78780743  0.39060035  0.11538300  1  -1.186088  0.012989  -0.308445  -0.292822  0.008285  3.292598  0.01
N  N59  1  0.50140035  0.85808296  0.53182750  1  -1.205074  0.085687  -0.343414  -0.259752  0.057949  3.586635  0.075
N  N60  1  0.39686114  0.72485741  0.60939828  1  -1.179513  0.01301  -0.309476  -0.293615  0.008301  3.290553  0.01
N  N61  1  0.64330209  0.67356047  0.14227260  1  -1.252537  0.085842  -0.34059  -0.256193  0.057999  3.584394  0.075
N  N62  1  0.67188661  0.88438668  0.27529218  1  -1.170875  0.013016  -0.308176  -0.292455  0.008296  3.291586  0.01
O  O63  1  0.71351943  0.50697245  0.94410866  1  -1.110603  0.111311  -0.323173  -0.550795  0.071898  2.417123  0.101
O  O64  1  0.56672165  0.52099305  0.77741346  1  -1.174391  0.001884  -0.318198  -0.547135  0.000284  2.122505  0.002
O  O65  1  0.20686773  0.43726250  0.49347347  1  -1.110603  0.111451  -0.321903  -0.550661  0.071953  2.414703  0.101
O  O66  1  0.04603927  0.25619973  0.47864979  1  -1.169843  0.001894  -0.318755  -0.547716  0.000288  2.120922  0.002
O  O67  1  0.76954414  0.05600917  0.56273410  1  -1.135517  0.111234  -0.323166  -0.550943  0.071847  2.415261  0.101
O  O68  1  0.78980698  0.22263827  0.74353153  1  -1.169553  0.001887  -0.316058  -0.545589  0.000282  2.121584  0.002
O  O69  1  0.28647642  0.49302401  0.05588877  1  -1.110592  0.111315  -0.323185  -0.550849  0.071901  2.417156  0.101
O  O70  1  0.43326742  0.47899497  0.22258260  1  -1.174374  0.001884  -0.318144  -0.547102  0.000284  2.122449  0.002
O  O71  1  0.79314431  0.56275084  0.50653340  1  -1.110764  0.111443  -0.321779  -0.550463  0.071948  2.414855  0.101
O  O72  1  0.95396095  0.74381080  0.52134640  1  -1.169706  0.001894  -0.318732  -0.54764  0.000288  2.1209  0.002
O  O73  1  0.23045500  0.94399386  0.43726741  1  -1.135558  0.111237  -0.323135  -0.550916  0.071848  2.415281  0.101
O  O74  1  0.21020094  0.77736944  0.25647077  1  -1.169471  0.001888  -0.316075  -0.545537  0.000282  2.121507  0.002
