# generated using pymatgen
data_Zn2H16C41N12O13
_symmetry_space_group_name_H-M   'P 1'
_cell_length_a   19.52400678
_cell_length_b   19.71012706
_cell_length_c   19.93866088
_cell_angle_alpha   110.74714203
_cell_angle_beta   105.52228144
_cell_angle_gamma   110.74834648
_symmetry_Int_Tables_number   1
_chemical_formula_structural   Zn2H16C41N12O13
_chemical_formula_sum   'Zn4 H32 C82 N24 O26'
_cell_volume   5993.74711278
_cell_formula_units_Z   2
loop_
 _symmetry_equiv_pos_site_id
 _symmetry_equiv_pos_as_xyz
  1  'x, y, z'
loop_
 _atom_site_type_symbol
 _atom_site_label
 _atom_site_symmetry_multiplicity
 _atom_site_fract_x
 _atom_site_fract_y
 _atom_site_fract_z
 _atom_site_occupancy
 _atom_site_pbe_bader_charge
 _atom_site_pbe_bader_spin_density
 _atom_site_pbe_cm5_charge
 _atom_site_pbe_ddec_charge
 _atom_site_pbe_ddec_spin_density
 _atom_site_pbe_ddec_sum_bond_order
 _atom_site_pbe_magmom
Zn  Zn0  1  0.39464907  0.89426527  0.01525044  1  1.243848  0  0.73426  0.626137  0  2.489312  0
Zn  Zn1  1  0.61665925  0.12251068  0.99883967  1  1.270087  0  0.705255  0.638431  0  2.368744  0
Zn  Zn2  1  0.49679725  0.11415951  0.11380220  1  1.219817  0  0.753953  0.631241  0  2.384673  0
Zn  Zn3  1  0.50857240  0.89796554  0.90497560  1  1.222597  0  0.748354  0.620938  0  2.465793  0
H  H4  1  0.23619594  0.86357782  0.87807737  1  0.139424  0  0.118802  0.112208  0  1.007469  0
H  H5  1  0.77167661  0.12859993  0.95978364  1  0.120814  0  0.122642  0.121046  0  1.003006  0
H  H6  1  0.51488100  0.30250064  0.17048830  1  0.100907  0  0.131063  0.125423  0  0.97587  0
H  H7  1  0.65712519  0.90225787  0.02106119  1  0.104626  0  0.130185  0.125828  0  0.979973  0
H  H8  1  0.64406928  0.30279413  0.02438134  1  0.124808  0  0.125013  0.123844  0  1.000261  0
H  H9  1  0.51060196  0.88360273  0.15010913  1  0.086812  0  0.121955  0.113031  0  0.996355  0
H  H10  1  0.35310164  0.85950755  0.75032671  1  0.134726  0  0.126434  0.119975  0  0.983707  0
H  H11  1  0.43698491  0.14184350  0.26773885  1  0.13065  0  0.138618  0.139945  0  0.963544  0
H  H12  1  0.37740058  0.13372013  0.99104619  1  0.120878  0  0.124404  0.118518  0  0.991173  0
H  H13  1  0.62595266  0.85765739  0.82608900  1  0.119191  0  0.126812  0.128604  0  0.995967  0
H  H14  1  0.02515646  0.53396994  0.55712909  1  0.134799  0  0.129714  0.144793  0  0.945865  0
H  H15  1  0.03650740  0.27356784  0.46441713  1  0.154488  0  0.132604  0.147502  0  0.939538  0
H  H16  1  0.21030757  0.93201087  0.39873702  1  0.129325  0  0.124518  0.133801  0  0.953156  0
H  H17  1  0.49763857  0.03396769  0.57190247  1  0.11445  0  0.122388  0.12969  0  0.955546  0
H  H18  1  0.39921247  0.89042902  0.41542529  1  0.101568  0  0.120776  0.128026  0  0.960153  0
H  H19  1  0.30871753  0.07576271  0.55487561  1  0.112226  0  0.123496  0.132195  0  0.957482  0
H  H20  1  0.54115591  0.53096510  0.99711412  1  0.137989  0  0.126842  0.140952  0  0.946735  0
H  H21  1  0.72209821  0.74654458  0.28142382  1  0.155597  0  0.125302  0.140635  0  0.951465  0
H  H22  1  0.95806808  0.06784814  0.78180005  1  0.113801  0  0.118841  0.126805  0  0.962869  0
H  H23  1  0.02050358  0.91142569  0.91045930  1  0.106883  0  0.119974  0.127864  0  0.957799  0
H  H24  1  0.01093984  0.05799726  0.98566609  1  0.115121  0  0.119321  0.125808  0  0.958966  0
H  H25  1  0.96850848  0.92198712  0.70698069  1  0.112025  0  0.118517  0.126491  0  0.962999  0
H  H26  1  0.08221143  0.51681419  0.41586815  1  0.070923  0  0.11575  0.055594  0  0.933517  0
H  H27  1  0.02640200  0.38491173  0.67786445  1  0.089906  0  0.114156  0.05281  0  0.935404  0
H  H28  1  0.79164786  0.59878309  0.14171885  1  0.07782  0  0.109185  0.046774  0  0.943782  0
H  H29  1  0.46590601  0.66894647  0.13821470  1  0.095658  0  0.105874  0.042412  0  0.947738  0
H  H30  1  0.53806811  0.15449085  0.80625570  1  0.082338  0  0.118511  0.064937  0  0.943492  0
H  H31  1  0.31663446  0.82211404  0.16256900  1  0.092036  0  0.122327  0.07013  0  0.938759  0
H  H32  1  0.37964425  0.64873842  0.69531336  1  0.117888  0  0.123591  0.075299  0  0.935393  0
H  H33  1  0.69291767  0.20611290  0.36043315  1  0.070677  0  0.112899  0.060825  0  0.951144  0
H  H34  1  0.15820596  0.63501514  0.83492702  1  0.059724  0  0.108489  0.048153  0  0.949422  0
H  H35  1  0.85417521  0.24529791  0.17317748  1  0.143878  0  0.125798  0.079244  0  0.938603  0
C  C36  1  0.28299255  0.92917261  0.91175274  1  0.410097  0  0.016504  -0.040682  0  3.942156  0
C  C37  1  0.72606083  0.06325093  0.93172904  1  0.464588  0  0.014461  -0.043924  0  3.950158  0
C  C38  1  0.48996881  0.05888126  0.83883521  1  0.439204  0  0.080776  0.032417  0  4.024206  0
C  C39  1  0.37070472  0.94058154  0.16219741  1  0.409333  0  0.078421  0.025905  0  4.057885  0
C  C40  1  0.54430974  0.28904530  0.13232703  1  0.442055  0  0.021651  -0.046524  0  3.950643  0
C  C41  1  0.61449774  0.90348151  0.04641054  1  0.44031  0  0.024614  -0.031756  0  3.913512  0
C  C42  1  0.36535986  0.71923950  0.79925863  1  0.415044  0  0.087126  0.035824  0  4.017872  0
C  C43  1  0.66554886  0.16050585  0.23396580  1  0.421237  0  0.086426  0.038345  0  3.973877  0
C  C44  1  0.61036555  0.28894350  0.05744880  1  0.459176  0  0.019818  -0.03681  0  3.943564  0
C  C45  1  0.53929546  0.89405794  0.11238902  1  0.458171  0  0.022449  -0.02927  0  3.933231  0
C  C46  1  0.28134857  0.71629879  0.85639091  1  0.427002  0  0.093468  0.046117  0  3.975287  0
C  C47  1  0.73215677  0.17080217  0.16010552  1  0.39347  0  0.085093  0.032749  0  4.001595  0
C  C48  1  0.40061029  0.92486274  0.78744366  1  0.369089  0  0.024181  -0.045798  0  3.895235  0
C  C49  1  0.41665683  0.07751337  0.22627553  1  0.457851  0  0.036809  -0.021097  0  3.868442  0
C  C50  1  0.35504871  0.06753099  0.96997378  1  0.449765  0  0.019118  -0.037341  0  3.91358  0
C  C51  1  0.65177543  0.92451986  0.86311470  1  0.484751  0  0.018658  -0.043554  0  3.934063  0
C  C52  1  0.27629169  0.99862082  0.91330609  1  0.09185  0  -0.030219  0.030423  0  4.188065  0
C  C53  1  0.72639841  0.99136322  0.88275045  1  0.051622  0  -0.034786  0.020544  0  4.218021  0
C  C54  1  0.42133707  0.98783242  0.76681459  1  0.149901  0  -0.006953  0.033744  0  4.147494  0
C  C55  1  0.37909891  0.00516074  0.23111179  1  0.123805  0  -0.007044  0.026412  0  4.157138  0
C  C56  1  0.58454348  0.33794217  0.10332512  1  0.100628  0  -0.033227  0.017583  0  4.21895  0
C  C57  1  0.60493908  0.88277052  0.10541545  1  0.171117  0  -0.029767  0.019493  0  4.194959  0
C  C58  1  0.28581299  0.66798459  0.78709975  1  0.086377  0  0.0059  0.008748  0  4.125493  0
C  C59  1  0.74547084  0.18994920  0.23965094  1  0.114112  0  0.009274  0.018784  0  4.109022  0
C  C60  1  0.02694830  0.42747982  0.45387568  1  -0.01203  0  0.010367  -0.015817  0  3.621474  0
C  C61  1  0.03096226  0.37601937  0.56535407  1  -0.027018  0  0.009253  -0.015548  0  3.632647  0
C  C62  1  0.02701166  0.47570890  0.53637957  1  -0.02872  0  -0.049698  -0.119288  0  3.582325  0
C  C63  1  0.03242381  0.33060441  0.48462133  1  -0.021763  0  -0.043068  -0.106351  0  3.556554  0
C  C64  1  0.22292748  0.59254172  0.71849193  1  -0.33768  0  -0.027938  -0.056944  0  4.16565  0
C  C65  1  0.82040145  0.23713563  0.30886848  1  -0.387959  0  -0.023624  -0.051349  0  4.150375  0
C  C66  1  0.09696860  0.41623066  0.50014779  1  0.306482  0  0.102539  0.051025  0  3.585774  0
C  C67  1  0.96370259  0.39241071  0.52305761  1  0.316177  0  0.101639  0.03974  0  3.619758  0
C  C68  1  0.09856855  0.46491446  0.58273058  1  0.10972  0  0.025804  0.103445  0  3.786203  0
C  C69  1  0.96087373  0.34161635  0.43863071  1  0.115246  0  0.030145  0.116134  0  3.767177  0
C  C70  1  0.16694769  0.53018735  0.65625332  1  0.090541  0  -0.045456  -0.111399  0  4.108509  0
C  C71  1  0.88705528  0.28184964  0.36781773  1  0.140958  0  -0.041605  -0.105318  0  4.082573  0
C  C72  1  0.27433264  0.95561043  0.43745712  1  -0.01837  0  -0.054739  -0.099919  0  3.586902  0
C  C73  1  0.43388646  0.01069145  0.53264827  1  -0.011281  0  -0.056746  -0.099704  0  3.599843  0
C  C74  1  0.30672733  0.90459939  0.46676447  1  0.322326  0  0.096357  0.053645  0  3.622281  0
C  C75  1  0.40165568  0.06179217  0.50405169  1  0.292541  0  0.09625  0.054606  0  3.62796  0
C  C76  1  0.39060396  0.98250349  0.69191075  1  -0.238488  0  -0.033908  -0.064384  0  4.162881  0
C  C77  1  0.36094360  0.99774165  0.29240659  1  -0.329304  0  -0.033359  -0.059716  0  4.165945  0
C  C78  1  0.32814891  0.03413577  0.52361287  1  -0.00677  0  -0.057873  -0.103414  0  3.599448  0
C  C79  1  0.37993756  0.93205412  0.44692677  1  0.007236  0  -0.05849  -0.100406  0  3.60347  0
C  C80  1  0.36075874  0.98307773  0.55572123  1  0.088322  0  0.022507  0.126871  0  3.777898  0
C  C81  1  0.34775682  0.98333834  0.41483380  1  0.088467  0  0.02405  0.129178  0  3.775594  0
C  C82  1  0.37158004  0.98183112  0.62807070  1  -0.045916  0  -0.05231  -0.124923  0  4.105925  0
C  C83  1  0.34868469  0.98847503  0.34625795  1  0.046031  0  -0.054146  -0.130477  0  4.108322  0
C  C84  1  0.70693205  0.64376694  0.16391621  1  -0.018199  0  0.003668  -0.019004  0  3.6385  0
C  C85  1  0.55555304  0.63258720  0.11475747  1  -0.020574  0  0.005255  -0.020331  0  3.640701  0
C  C86  1  0.66558868  0.65564868  0.09350311  1  0.315451  0  0.102838  0.04045  0  3.609959  0
C  C87  1  0.59742213  0.62169645  0.18534306  1  0.29782  0  0.100141  0.037649  0  3.617491  0
C  C88  1  0.63524328  0.83884227  0.13438798  1  -0.368508  0  -0.026876  -0.028922  0  4.143659  0
C  C89  1  0.59658723  0.41647260  0.11475583  1  -0.174867  0  -0.026186  -0.028283  0  4.154099  0
C  C90  1  0.68197750  0.69910258  0.21827455  1  -0.024858  0  -0.055041  -0.120318  0  3.603137  0
C  C91  1  0.58095841  0.57829058  0.06037362  1  -0.022799  0  -0.052764  -0.114416  0  3.595684  0
C  C92  1  0.64271306  0.71529899  0.14939403  1  0.100659  0  0.032155  0.127232  0  3.758793  0
C  C93  1  0.62026470  0.56182483  0.12928019  1  0.127713  0  0.030572  0.125047  0  3.766588  0
C  C94  1  0.64818884  0.78932255  0.15127048  1  0.052904  0  -0.0748  -0.17144  0  4.12422  0
C  C95  1  0.60800436  0.48403515  0.12143506  1  -0.134414  0  -0.071722  -0.167637  0  4.142916  0
C  C96  1  0.97180791  0.03277860  0.80994442  1  -0.02136  0  -0.061978  -0.110116  0  3.603795  0
C  C97  1  0.00694003  0.94687890  0.88271579  1  -0.014366  0  -0.059732  -0.102414  0  3.608926  0
C  C98  1  0.05053283  0.06935087  0.88675535  1  0.28468  0  0.095314  0.069449  0  3.600358  0
C  C99  1  0.92857815  0.91050083  0.80557012  1  0.286902  0  0.094993  0.053865  0  3.621861  0
C  C100  1  0.20283474  0.99765606  0.87839657  1  -0.466783  0  -0.038841  -0.055494  0  4.15627  0
C  C101  1  0.78978384  0.98869356  0.86330834  1  -0.182768  0  -0.037741  -0.050522  0  4.169264  0
C  C102  1  0.97834210  0.95281434  0.76895045  1  -0.012011  0  -0.061211  -0.107774  0  3.604795  0
C  C103  1  0.00149801  0.02704380  0.92384767  1  -0.021932  0  -0.058511  -0.103735  0  3.604759  0
C  C104  1  0.06006789  0.98921866  0.84621893  1  0.123406  0  0.022028  0.129405  0  3.768854  0
C  C105  1  0.91945984  0.99067325  0.84711077  1  0.111869  0  0.022167  0.134507  0  3.780481  0
C  C106  1  0.13563934  0.99245013  0.85481786  1  0.131208  0  -0.069373  -0.156572  0  4.11982  0
C  C107  1  0.84775924  0.98908429  0.85081454  1  -0.133605  0  -0.071399  -0.161831  0  4.135279  0
C  C108  1  0.02670676  0.45640555  0.39400006  1  1.008978  0  0.114939  0.285043  0  3.951533  0
C  C109  1  0.03507791  0.34885045  0.62651069  1  0.985977  0  0.112096  0.28238  0  3.955231  0
C  C110  1  0.78718261  0.64633982  0.18865069  1  0.998379  0  0.10905  0.289411  0  3.967785  0
C  C111  1  0.47639500  0.63194008  0.08900376  1  0.970903  0  0.107321  0.291045  0  3.961246  0
C  C112  1  0.55081533  0.13709357  0.85341393  1  0.901248  0  0.106366  0.252027  0  3.95124  0
C  C113  1  0.34159021  0.85233745  0.13070712  1  0.904737  0  0.106006  0.251893  0  3.947708  0
C  C114  1  0.40913571  0.70962936  0.75113527  1  0.923309  0  0.110718  0.254526  0  3.960838  0
C  C115  1  0.64584034  0.18642706  0.30100673  1  0.963393  0  0.104408  0.256938  0  3.98001  0
C  C116  1  0.21117174  0.70001739  0.87412131  1  0.988354  0  0.104949  0.256081  0  3.99009  0
C  C117  1  0.78757379  0.21102611  0.13311599  1  0.89028  0  0.11299  0.256823  0  3.923092  0
N  N118  1  0.35880432  0.95541168  0.96405865  1  -0.789895  0  -0.277868  -0.188704  0  3.647546  0
N  N119  1  0.65743296  0.04099989  0.94117256  1  -0.782503  0  -0.262717  -0.19298  0  3.515115  0
N  N120  1  0.50538434  0.03759955  0.89638289  1  -0.719304  0  -0.237386  -0.170399  0  3.536316  0
N  N121  1  0.40128249  0.97427634  0.12153841  1  -0.727834  0  -0.244084  -0.178379  0  3.536159  0
N  N122  1  0.54641455  0.21723814  0.10519570  1  -0.79413  0  -0.272208  -0.175589  0  3.5925  0
N  N123  1  0.55748389  0.92322258  0.01972808  1  -0.786847  0  -0.276472  -0.184693  0  3.590773  0
N  N124  1  0.40323713  0.79134492  0.87031606  1  -0.699024  0  -0.220855  -0.143969  0  3.511204  0
N  N125  1  0.60998454  0.12236234  0.15540022  1  -0.672226  0  -0.214141  -0.133285  0  3.475135  0
N  N126  1  0.58683058  0.21678351  0.05831832  1  -0.781746  0  -0.254145  -0.18309  0  3.478744  0
N  N127  1  0.51112508  0.91712071  0.06019372  1  -0.808635  0  -0.278327  -0.189513  0  3.610955  0
N  N128  1  0.35353672  0.78956759  0.90481824  1  -0.683423  0  -0.203721  -0.115076  0  3.450301  0
N  N129  1  0.65014128  0.12769954  0.11145165  1  -0.657111  0  -0.213129  -0.142997  0  3.494462  0
N  N130  1  0.45274469  0.95645616  0.86515694  1  -0.709738  0  -0.241127  -0.132789  0  3.544053  0
N  N131  1  0.42956697  0.05678578  0.16004467  1  -0.716306  0  -0.230675  -0.114856  0  3.527195  0
N  N132  1  0.40336632  0.04043053  0.00026755  1  -0.797014  0  -0.276918  -0.191438  0  3.587187  0
N  N133  1  0.61143508  0.95526142  0.89819568  1  -0.805959  0  -0.277759  -0.175068  0  3.610078  0
N  N134  1  0.88790649  0.37544644  0.53124668  1  0.396268  0  0.054776  0.504219  0  4.243259  0
N  N135  1  0.16914436  0.42689587  0.48560440  1  0.377558  0  0.06093  0.50796  0  4.232228  0
N  N136  1  0.25604695  0.82096306  0.45268073  1  0.360727  0  0.054411  0.514605  0  4.237382  0
N  N137  1  0.45206551  0.14510009  0.51750467  1  0.406433  0  0.055286  0.513664  0  4.238236  0
N  N138  1  0.70156351  0.67827588  0.04368408  1  0.380302  0  0.055874  0.515154  0  4.229352  0
N  N139  1  0.56016545  0.59745015  0.23377651  1  0.401907  0  0.056422  0.513489  0  4.232322  0
N  N140  1  0.12132423  0.15373108  0.93090126  1  0.388581  0  0.053239  0.512436  0  4.234217  0
N  N141  1  0.85797943  0.82599093  0.76269057  1  0.394454  0  0.052691  0.51369  0  4.238029  0
O  O142  1  0.97036993  0.41872917  0.32683392  1  -1.05404  0  -0.237676  -0.318131  0  2.106772  0
O  O143  1  0.04933821  0.29246059  0.62216007  1  -1.037426  0  -0.238744  -0.314523  0  2.074695  0
O  O144  1  0.86231633  0.42462975  0.53159016  1  -0.430876  0  -0.120667  -0.307192  0  1.840249  0
O  O145  1  0.85387374  0.31018718  0.53315555  1  -0.443122  0  -0.126881  -0.325448  0  1.857286  0
O  O146  1  0.15855492  0.40906922  0.41611264  1  -0.417377  0  -0.121826  -0.315709  0  1.853195  0
O  O147  1  0.23312661  0.45066398  0.54292701  1  -0.421718  0  -0.118379  -0.309389  0  1.864555  0
O  O148  1  0.28429677  0.77286371  0.44232328  1  -0.441524  0  -0.14346  -0.340006  0  1.841301  0
O  O149  1  0.19003608  0.80629404  0.45566644  1  -0.444123  0  -0.140682  -0.336759  0  1.841565  0
O  O150  1  0.52148231  0.16280254  0.52240110  1  -0.447874  0  -0.140237  -0.335253  0  1.84213  0
O  O151  1  0.42010958  0.18956738  0.51911189  1  -0.45322  0  -0.139699  -0.334434  0  1.837122  0
O  O152  1  0.77398672  0.69586755  0.06191604  1  -0.445732  0  -0.132884  -0.331378  0  1.854837  0
O  O153  1  0.65633194  0.68022436  0.98826467  1  -0.432594  0  -0.129536  -0.321335  0  1.847504  0
O  O154  1  0.48470406  0.56705198  0.20698175  1  -0.446618  0  -0.133816  -0.332103  0  1.85242  0
O  O155  1  0.60695519  0.60614181  0.29589964  1  -0.439048  0  -0.128647  -0.318592  0  1.843315  0
O  O156  1  0.84382363  0.69544169  0.25598494  1  -1.066817  0  -0.257028  -0.338167  0  2.075275  0
O  O157  1  0.42705715  0.59606617  0.01857292  1  -1.060716  0  -0.255369  -0.336744  0  2.069631  0
O  O158  1  0.17041097  0.17581712  0.99903609  1  -0.450608  0  -0.148213  -0.347301  0  1.846663  0
O  O159  1  0.12892083  0.19530387  0.89630298  1  -0.451784  0  -0.147335  -0.343222  0  1.840315  0
O  O160  1  0.84222980  0.79379768  0.80390237  1  -0.4466  0  -0.144607  -0.340669  0  1.843712  0
O  O161  1  0.81737197  0.79461326  0.68938798  1  -0.448672  0  -0.145407  -0.341303  0  1.838984  0
O  O162  1  0.61754418  0.18257152  0.91526852  1  -1.09961  0  -0.246591  -0.336347  0  2.232197  0
O  O163  1  0.34547294  0.81067492  0.06945371  1  -1.080194  0  -0.251767  -0.344087  0  2.237328  0
O  O164  1  0.47695081  0.76761079  0.77203250  1  -1.075976  0  -0.243167  -0.343032  0  2.169209  0
O  O165  1  0.58368287  0.19170352  0.29408110  1  -1.070727  0  -0.249316  -0.351072  0  2.17616  0
O  O166  1  0.20871087  0.75402326  0.92676412  1  -1.060311  0  -0.251536  -0.339484  0  2.134383  0
O  O167  1  0.76131444  0.21256215  0.06996863  1  -1.075967  0  -0.235751  -0.321602  0  2.230232  0
