# generated using pymatgen
data_CuH8C13SN7
_symmetry_space_group_name_H-M   'P 1'
_cell_length_a   5.64169862
_cell_length_b   5.75175169
_cell_length_c   20.28878201
_cell_angle_alpha   89.98824042
_cell_angle_beta   90.00596954
_cell_angle_gamma   98.98651628
_symmetry_Int_Tables_number   1
_chemical_formula_structural   CuH8C13SN7
_chemical_formula_sum   'Cu2 H16 C26 S2 N14'
_cell_volume   650.28251833
_cell_formula_units_Z   2
loop_
 _symmetry_equiv_pos_site_id
 _symmetry_equiv_pos_as_xyz
  1  'x, y, z'
loop_
 _atom_site_type_symbol
 _atom_site_label
 _atom_site_symmetry_multiplicity
 _atom_site_fract_x
 _atom_site_fract_y
 _atom_site_fract_z
 _atom_site_occupancy
 _atom_site_hle17_bader_spin_density
 _atom_site_hle17_ddec_charge
 _atom_site_hle17_ddec_spin_density
 _atom_site_hle17_ddec_sum_bond_order
 _atom_site_hle17_magmom
 _atom_site_hse06_10hf_bader_spin_density
 _atom_site_hse06_10hf_ddec_charge
 _atom_site_hse06_10hf_ddec_spin_density
 _atom_site_hse06_10hf_ddec_sum_bond_order
 _atom_site_hse06_10hf_magmom
 _atom_site_hse06_bader_spin_density
 _atom_site_hse06_ddec_charge
 _atom_site_hse06_ddec_spin_density
 _atom_site_hse06_ddec_sum_bond_order
 _atom_site_hse06_magmom
 _atom_site_pbe_bader_spin_density
 _atom_site_pbe_cm5_charge
 _atom_site_pbe_ddec_charge
 _atom_site_pbe_ddec_spin_density
 _atom_site_pbe_ddec_sum_bond_order
 _atom_site_pbe_magmom
Cu  Cu0  1  0.72611019  0.15098233  0.74995272  1  0  0.444175  0  2.19501  0  0  0.344585  0  2.705209  0  0  0.326386  0  2.674935  0  0  0.54834  0.372389  0  2.712149  0
Cu  Cu1  1  0.27390133  0.84897501  0.25000521  1  0  0.444219  0  2.194373  0  0  0.344542  0  2.70453  0  0  0.326334  0  2.674231  0  0  0.548164  0.37229  0  2.711513  0
H  H2  1  0.13963988  0.43775890  0.80829327  1  0  0.073188  0  0.963621  0  0  0.079954  0  1.034342  0  0  0.0825  0  1.032359  0  0  0.107856  0.077595  0  1.036273  0
H  H3  1  0.86037023  0.56248257  0.30830203  1  0  0.073268  0  0.963995  0  0  0.080093  0  1.034559  0  0  0.082663  0  1.032568  0  0  0.107866  0.077715  0  1.036526  0
H  H4  1  0.86045625  0.56235420  0.19167254  1  0  0.073103  0  0.963953  0  0  0.079877  0  1.034649  0  0  0.08244  0  1.032665  0  0  0.107687  0.077498  0  1.036622  0
H  H5  1  0.13965067  0.43740462  0.69169632  1  0  0.073263  0  0.963956  0  0  0.080145  0  1.034454  0  0  0.082723  0  1.032462  0  0  0.107728  0.077692  0  1.036505  0
H  H6  1  0.75385023  0.78945949  0.85979201  1  0  0.082029  0  0.96568  0  0  0.085001  0  1.040486  0  0  0.088167  0  1.036991  0  0  0.113568  0.082427  0  1.043505  0
H  H7  1  0.24650422  0.21043939  0.35987945  1  0  0.081961  0  0.965277  0  0  0.084862  0  1.040197  0  0  0.088013  0  1.036746  0  0  0.11356  0.082286  0  1.043196  0
H  H8  1  0.24618246  0.21065622  0.14017972  1  0  0.08206  0  0.965611  0  0  0.084981  0  1.040498  0  0  0.088149  0  1.036997  0  0  0.113652  0.082402  0  1.043523  0
H  H9  1  0.75347327  0.78944193  0.64009672  1  0  0.081894  0  0.965266  0  0  0.084826  0  1.040155  0  0  0.08798  0  1.036696  0  0  0.113532  0.082253  0  1.043161  0
H  H10  1  0.40949912  0.04767071  0.96447082  1  0  0.092095  0  0.993401  0  0  0.094315  0  1.073802  0  0  0.098008  0  1.068504  0  0  0.103565  0.092007  0  1.077319  0
H  H11  1  0.59013003  0.95275905  0.46430933  1  0  0.092021  0  0.993369  0  0  0.094402  0  1.073556  0  0  0.098092  0  1.068224  0  0  0.103691  0.092102  0  1.077054  0
H  H12  1  0.59040799  0.95247129  0.03554084  1  0  0.092231  0  0.993157  0  0  0.094437  0  1.073555  0  0  0.098148  0  1.068241  0  0  0.103563  0.092084  0  1.077123  0
H  H13  1  0.40998548  0.04703461  0.53572352  1  0  0.092048  0  0.993446  0  0  0.094266  0  1.073733  0  0  0.097958  0  1.068406  0  0  0.10375  0.091977  0  1.07723  0
H  H14  1  0.45848270  0.40028467  0.89199904  1  0  0.113301  0  0.960526  0  0  0.116486  0  1.031062  0  0  0.120083  0  1.028928  0  0  0.107532  0.114029  0  1.032831  0
H  H15  1  0.54123428  0.60019975  0.39189611  1  0  0.113144  0  0.96063  0  0  0.11616  0  1.031543  0  0  0.119789  0  1.029371  0  0  0.107435  0.113703  0  1.033309  0
H  H16  1  0.54147365  0.59986681  0.10800424  1  0  0.113339  0  0.960468  0  0  0.116527  0  1.030983  0  0  0.120138  0  1.028834  0  0  0.107555  0.114074  0  1.03276  0
H  H17  1  0.45882745  0.39962653  0.60812688  1  0  0.113229  0  0.960318  0  0  0.116013  0  1.031429  0  0  0.119641  0  1.029262  0  0  0.107365  0.113578  0  1.033156  0
C  C18  1  0.07368514  0.89161758  0.91904018  1  0  -0.067389  0  3.784164  0  0  -0.048485  0  4.01882  0  0  -0.057955  0  4.047118  0  0  -0.007255  -0.040916  0  3.998053  0
C  C19  1  0.92628083  0.10862721  0.41899917  1  0  -0.066568  0  3.783755  0  0  -0.047434  0  4.017947  0  0  -0.056893  0  4.046227  0  0  -0.006974  -0.039888  0  3.997183  0
C  C20  1  0.92620298  0.10857683  0.08097641  1  0  -0.066939  0  3.784423  0  0  -0.048084  0  4.018953  0  0  -0.057544  0  4.047239  0  0  -0.007068  -0.040533  0  3.998198  0
C  C21  1  0.07370327  0.89126297  0.58099868  1  0  -0.066607  0  3.784671  0  0  -0.04768  0  4.018724  0  0  -0.057139  0  4.047009  0  0  -0.007046  -0.040134  0  3.997962  0
C  C22  1  0.03414333  0.68325168  0.96191860  1  0  0.259022  0  3.764681  0  0  0.246348  0  4.027156  0  0  0.253281  0  4.044848  0  0  0.243656  0.241346  0  4.018294  0
C  C23  1  0.96575151  0.31685512  0.46189032  1  0  0.258937  0  3.764543  0  0  0.246283  0  4.026926  0  0  0.253217  0  4.044639  0  0  0.243624  0.241291  0  4.018031  0
C  C24  1  0.96573081  0.31690740  0.03809552  1  0  0.259112  0  3.765429  0  0  0.246647  0  4.027649  0  0  0.253586  0  4.045352  0  0  0.243592  0.241643  0  4.018789  0
C  C25  1  0.03423689  0.68299120  0.53812724  1  0  0.258319  0  3.766391  0  0  0.246296  0  4.027895  0  0  0.253226  0  4.045621  0  0  0.24337  0.241302  0  4.018997  0
C  C26  1  0.12829712  0.28212398  0.83955997  1  0  0.142001  0  3.651966  0  0  0.109331  0  3.904601  0  0  0.116983  0  3.918673  0  0  0.045986  0.103494  0  3.897397  0
C  C27  1  0.87166475  0.71805396  0.33956644  1  0  0.141617  0  3.652392  0  0  0.109144  0  3.90465  0  0  0.116788  0  3.918687  0  0  0.045981  0.103295  0  3.897429  0
C  C28  1  0.87171478  0.71800722  0.16043394  1  0  0.142184  0  3.652084  0  0  0.109631  0  3.90457  0  0  0.11726  0  3.918664  0  0  0.046171  0.103791  0  3.897378  0
C  C29  1  0.12832417  0.28182048  0.66043339  1  0  0.141532  0  3.652931  0  0  0.109252  0  3.904921  0  0  0.116896  0  3.918967  0  0  0.046215  0.103457  0  3.897729  0
C  C30  1  0.90994708  0.92240825  0.86899298  1  0  0.115563  0  3.646325  0  0  0.075752  0  3.899582  0  0  0.082233  0  3.914618  0  0  0.054112  0.071397  0  3.890109  0
C  C31  1  0.09019451  0.07763114  0.36902459  1  0  0.115764  0  3.645734  0  0  0.07597  0  3.898996  0  0  0.082446  0  3.914031  0  0  0.054126  0.07163  0  3.889475  0
C  C32  1  0.09002573  0.07771010  0.13099896  1  0  0.115638  0  3.646648  0  0  0.075892  0  3.899995  0  0  0.082368  0  3.915044  0  0  0.05418  0.071535  0  3.890515  0
C  C33  1  0.90979339  0.92224856  0.63095749  1  0  0.115595  0  3.64548  0  0  0.07583  0  3.899033  0  0  0.082312  0  3.914061  0  0  0.054017  0.071478  0  3.889522  0
C  C34  1  0.27584570  0.06550705  0.92712680  1  0  -0.027998  0  3.687833  0  0  -0.061139  0  3.943778  0  0  -0.056856  0  3.961872  0  0  -0.067237  -0.062246  0  3.928583  0
C  C35  1  0.72403667  0.93486232  0.42703821  1  0  -0.029056  0  3.688077  0  0  -0.062414  0  3.944257  0  0  -0.058109  0  3.962328  0  0  -0.067748  -0.063589  0  3.929213  0
C  C36  1  0.72408126  0.93472304  0.07288633  1  0  -0.028764  0  3.687834  0  0  -0.061921  0  3.943954  0  0  -0.057642  0  3.962015  0  0  -0.067602  -0.063021  0  3.928883  0
C  C37  1  0.27603495  0.06497113  0.57298330  1  0  -0.028827  0  3.68777  0  0  -0.061974  0  3.943782  0  0  -0.057668  0  3.961848  0  0  -0.067661  -0.063171  0  3.928785  0
C  C38  1  0.30310811  0.26305080  0.88677216  1  0  -0.109597  0  3.717049  0  0  -0.121561  0  3.974113  0  0  -0.129059  0  3.995598  0  0  -0.085649  -0.116541  0  3.958622  0
C  C39  1  0.69677235  0.73730971  0.38672167  1  0  -0.108523  0  3.71617  0  0  -0.120559  0  3.973267  0  0  -0.128061  0  3.994719  0  0  -0.085379  -0.115578  0  3.957836  0
C  C40  1  0.69689874  0.73710668  0.11322077  1  0  -0.109318  0  3.716341  0  0  -0.121294  0  3.973429  0  0  -0.128791  0  3.9949  0  0  -0.085387  -0.116235  0  3.95781  0
C  C41  1  0.30326984  0.26252859  0.61329639  1  0  -0.108688  0  3.716382  0  0  -0.120547  0  3.973362  0  0  -0.128043  0  3.994786  0  0  -0.085338  -0.115543  0  3.957835  0
C  C42  1  0.54590568  0.62815801  0.75001127  1  0  0.250311  0  4.032024  0  0  0.246859  0  4.322002  0  0  0.261364  0  4.338821  0  0  0.130867  0.238963  0  4.306444  0
C  C43  1  0.45420713  0.37182534  0.24997574  1  0  0.250438  0  4.032333  0  0  0.24696  0  4.322304  0  0  0.261464  0  4.339127  0  0  0.130833  0.239065  0  4.306757  0
S  S44  1  0.40285768  0.85439960  0.75004895  1  0  -0.342691  0  2.421188  0  0  -0.321694  0  2.803996  0  0  -0.332477  0  2.797491  0  0  -0.178856  -0.310789  0  2.802279  0
S  S45  1  0.59719931  0.14556537  0.24996418  1  0  -0.342586  0  2.421604  0  0  -0.321646  0  2.804546  0  0  -0.332425  0  2.798043  0  0  -0.178807  -0.310736  0  2.802849  0
N  N46  1  0.93643442  0.11330890  0.82988172  1  0  -0.280451  0  3.331908  0  0  -0.211457  0  3.626868  0  0  -0.218452  0  3.633053  0  0  -0.350993  -0.209386  0  3.623542  0
N  N47  1  0.06366545  0.88674219  0.32992119  1  0  -0.28066  0  3.332322  0  0  -0.211733  0  3.627228  0  0  -0.218719  0  3.633409  0  0  -0.350944  -0.209578  0  3.623798  0
N  N48  1  0.06359345  0.88681025  0.17009592  1  0  -0.280665  0  3.333175  0  0  -0.211781  0  3.628207  0  0  -0.218776  0  3.634388  0  0  -0.351205  -0.209666  0  3.624839  0
N  N49  1  0.93632474  0.11315335  0.67006877  1  0  -0.280379  0  3.331999  0  0  -0.211935  0  3.627359  0  0  -0.218926  0  3.633553  0  0  -0.351226  -0.209791  0  3.623902  0
N  N50  1  0.20234097  0.66154744  0.00820337  1  0  -0.156755  0  2.94788  0  0  -0.132517  0  3.221328  0  0  -0.134713  0  3.231571  0  0  -0.147667  -0.135411  0  3.219911  0
N  N51  1  0.79758251  0.33845013  0.50819422  1  0  -0.156753  0  2.947251  0  0  -0.132676  0  3.220829  0  0  -0.134887  0  3.231077  0  0  -0.14782  -0.135545  0  3.219384  0
N  N52  1  0.79755220  0.33862070  0.99180287  1  0  -0.156943  0  2.948296  0  0  -0.132794  0  3.221698  0  0  -0.135003  0  3.231951  0  0  -0.147562  -0.135681  0  3.220267  0
N  N53  1  0.20241070  0.66138045  0.49182433  1  0  -0.156579  0  2.947779  0  0  -0.132717  0  3.221192  0  0  -0.134924  0  3.231442  0  0  -0.147676  -0.135586  0  3.219747  0
N  N54  1  0.83236289  0.52495430  0.95314207  1  0  -0.154894  0  2.951322  0  0  -0.131775  0  3.225181  0  0  -0.133058  0  3.233891  0  0  -0.145931  -0.13548  0  3.225155  0
N  N55  1  0.16755222  0.47518431  0.45313598  1  0  -0.15506  0  2.951022  0  0  -0.131894  0  3.224886  0  0  -0.133187  0  3.233607  0  0  -0.145816  -0.135586  0  3.224831  0
N  N56  1  0.16754221  0.47522279  0.04686860  1  0  -0.155272  0  2.951035  0  0  -0.132209  0  3.224798  0  0  -0.133502  0  3.233506  0  0  -0.145793  -0.135919  0  3.224786  0
N  N57  1  0.83244100  0.52465856  0.54688455  1  0  -0.154905  0  2.951493  0  0  -0.131867  0  3.224958  0  0  -0.133158  0  3.233684  0  0  -0.145438  -0.135563  0  3.2249  0
N  N58  1  0.64227179  0.45926010  0.74997916  1  0  -0.51177  0  3.129919  0  0  -0.469857  0  3.465277  0  0  -0.477255  0  3.465232  0  0  -0.443532  -0.464757  0  3.459771  0
N  N59  1  0.35785624  0.54073050  0.24999404  1  0  -0.511964  0  3.129275  0  0  -0.470024  0  3.464641  0  0  -0.477414  0  3.464575  0  0  -0.443532  -0.464921  0  3.459155  0
