# generated using pymatgen
data_H12PbC13Br2N4O
_symmetry_space_group_name_H-M   'P 1'
_cell_length_a   8.15591543
_cell_length_b   8.68670591
_cell_length_c   11.03038699
_cell_angle_alpha   100.65706132
_cell_angle_beta   92.07385125
_cell_angle_gamma   95.68440897
_symmetry_Int_Tables_number   1
_chemical_formula_structural   H12PbC13Br2N4O
_chemical_formula_sum   'H24 Pb2 C26 Br4 N8 O2'
_cell_volume   763.03749442
_cell_formula_units_Z   2
loop_
 _symmetry_equiv_pos_site_id
 _symmetry_equiv_pos_as_xyz
  1  'x, y, z'
loop_
 _atom_site_type_symbol
 _atom_site_label
 _atom_site_symmetry_multiplicity
 _atom_site_fract_x
 _atom_site_fract_y
 _atom_site_fract_z
 _atom_site_occupancy
 _atom_site_hle17_bader_spin_density
 _atom_site_hle17_ddec_charge
 _atom_site_hle17_ddec_spin_density
 _atom_site_hle17_ddec_sum_bond_order
 _atom_site_hle17_magmom
 _atom_site_hse06_10hf_bader_spin_density
 _atom_site_hse06_10hf_ddec_charge
 _atom_site_hse06_10hf_ddec_spin_density
 _atom_site_hse06_10hf_ddec_sum_bond_order
 _atom_site_hse06_10hf_magmom
 _atom_site_hse06_bader_spin_density
 _atom_site_hse06_ddec_charge
 _atom_site_hse06_ddec_spin_density
 _atom_site_hse06_ddec_sum_bond_order
 _atom_site_hse06_magmom
 _atom_site_pbe_bader_spin_density
 _atom_site_pbe_cm5_charge
 _atom_site_pbe_ddec_charge
 _atom_site_pbe_ddec_spin_density
 _atom_site_pbe_ddec_sum_bond_order
 _atom_site_pbe_magmom
H  H0  1  0.80889840  0.12554702  0.66912762  1  0  0.266858  0  0.947208  0  0  0.247787  0  1.019134  0  0  0.256077  0  1.012601  0  0  0.289602  0.241903  0  1.023754  0
H  H1  1  0.19109527  0.87445437  0.33087213  1  0  0.266855  0  0.947123  0  0  0.2478  0  1.019033  0  0  0.256087  0  1.012508  0  0  0.289612  0.241917  0  1.023655  0
H  H2  1  0.24028375  0.51220433  0.25608556  1  0  0.077331  0  0.957182  0  0  0.078531  0  1.035834  0  0  0.081885  0  1.032271  0  0  0.098616  0.07594  0  1.038678  0
H  H3  1  0.75971409  0.48779002  0.74391148  1  0  0.077312  0  0.957135  0  0  0.078477  0  1.03583  0  0  0.081833  0  1.032267  0  0  0.098608  0.07589  0  1.038668  0
H  H4  1  0.11992937  0.38372746  0.42345659  1  0  0.10047  0  0.958322  0  0  0.108227  0  1.02211  0  0  0.111777  0  1.02065  0  0  0.098105  0.105632  0  1.023344  0
H  H5  1  0.88006872  0.61626925  0.57654079  1  0  0.100442  0  0.958337  0  0  0.108194  0  1.022138  0  0  0.111745  0  1.020675  0  0  0.098088  0.105599  0  1.023366  0
H  H6  1  0.29801055  0.23568143  0.53833946  1  0  0.091187  0  0.985359  0  0  0.097251  0  1.058436  0  0  0.10022  0  1.055601  0  0  0.095998  0.09509  0  1.060378  0
H  H7  1  0.70198619  0.76431409  0.46165681  1  0  0.091217  0  0.985284  0  0  0.097283  0  1.058356  0  0  0.100246  0  1.055536  0  0  0.09599  0.095122  0  1.060297  0
H  H8  1  0.69619169  0.35918669  0.31348795  1  0  0.073785  0  0.946543  0  0  0.080724  0  1.017234  0  0  0.083303  0  1.014901  0  0  0.110084  0.078724  0  1.019095  0
H  H9  1  0.30380370  0.64080764  0.68650811  1  0  0.073702  0  0.946562  0  0  0.080703  0  1.017202  0  0  0.083285  0  1.014865  0  0  0.110055  0.0787  0  1.01907  0
H  H10  1  0.83436296  0.06142502  0.48352883  1  0  0.120585  0  0.95949  0  0  0.138864  0  1.023655  0  0  0.141357  0  1.021893  0  0  0.092739  0.136965  0  1.025069  0
H  H11  1  0.16563415  0.93857404  0.51647340  1  0  0.120603  0  0.959509  0  0  0.138877  0  1.02368  0  0  0.14137  0  1.021918  0  0  0.092764  0.13698  0  1.025092  0
H  H12  1  0.86630793  0.24369563  0.43354360  1  0  0.126746  0  0.946002  0  0  0.148222  0  1.008024  0  0  0.149755  0  1.007301  0  0  0.095378  0.147115  0  1.008507  0
H  H13  1  0.13369273  0.75630229  0.56646037  1  0  0.12675  0  0.946068  0  0  0.14824  0  1.008081  0  0  0.149774  0  1.007359  0  0  0.09537  0.14713  0  1.00857  0
H  H14  1  0.73464294  0.08427693  0.34262342  1  0  0.140813  0  0.955988  0  0  0.161175  0  1.016245  0  0  0.163374  0  1.015233  0  0  0.100634  0.159617  0  1.016878  0
H  H15  1  0.26535785  0.91572216  0.65737619  1  0  0.140839  0  0.955995  0  0  0.161203  0  1.016245  0  0  0.163402  0  1.015236  0  0  0.100625  0.159644  0  1.016878  0
H  H16  1  0.96535185  0.99910940  0.74196575  1  0  0.089173  0  0.969298  0  0  0.101108  0  1.030972  0  0  0.104144  0  1.028111  0  0  0.099247  0.098769  0  1.033181  0
H  H17  1  0.03464955  0.00089559  0.25803746  1  0  0.089146  0  0.969301  0  0  0.101105  0  1.030953  0  0  0.104143  0  1.028089  0  0  0.099254  0.098744  0  1.033187  0
H  H18  1  0.12425544  0.83539575  0.85786736  1  0  0.113062  0  0.941964  0  0  0.122419  0  1.000978  0  0  0.125963  0  0.999987  0  0  0.10441  0.119922  0  1.001815  0
H  H19  1  0.87575015  0.16461397  0.14213846  1  0  0.11296  0  0.941978  0  0  0.122312  0  1.001009  0  0  0.125855  0  1.000021  0  0  0.104345  0.119817  0  1.001841  0
H  H20  1  0.98445742  0.70369143  0.01436523  1  0  0.08037  0  0.969522  0  0  0.08135  0  1.048071  0  0  0.084794  0  1.043952  0  0  0.098513  0.07882  0  1.05096  0
H  H21  1  0.01554509  0.29631237  0.98563512  1  0  0.080402  0  0.969478  0  0  0.08139  0  1.048015  0  0  0.084833  0  1.043893  0  0  0.098519  0.078865  0  1.050901  0
H  H22  1  0.54488452  0.88501139  0.94945038  1  0  0.085843  0  0.959288  0  0  0.08751  0  1.037102  0  0  0.091417  0  1.032008  0  0  0.11134  0.08466  0  1.040755  0
H  H23  1  0.45511517  0.11498887  0.05055028  1  0  0.08582  0  0.959271  0  0  0.087485  0  1.037092  0  0  0.091391  0  1.031997  0  0  0.111341  0.084637  0  1.040747  0
Pb  Pb24  1  0.62077797  0.66162542  0.16291774  1  0  1.071263  0  1.686826  0  0  0.879605  0  2.132634  0  0  0.939233  0  2.089782  0  0  0.463385  0.838148  0  2.161275  0
Pb  Pb25  1  0.37923278  0.33838671  0.83709853  1  0  1.071261  0  1.686844  0  0  0.879599  0  2.132658  0  0  0.939207  0  2.089839  0  0  0.463349  0.838138  0  2.161309  0
C  C26  1  0.31481672  0.44678762  0.30868460  1  0  0.134076  0  3.714109  0  0  0.09852  0  3.975499  0  0  0.106307  0  3.994291  0  0  0.043716  0.093163  0  3.963178  0
C  C27  1  0.68518014  0.55320908  0.69131094  1  0  0.133975  0  3.71415  0  0  0.09847  0  3.975511  0  0  0.106256  0  3.994303  0  0  0.043668  0.093108  0  3.963183  0
C  C28  1  0.24807893  0.37442246  0.40125374  1  0  -0.12355  0  3.750087  0  0  -0.132718  0  4.004106  0  0  -0.141006  0  4.026288  0  0  -0.089324  -0.127423  0  3.989469  0
C  C29  1  0.75191768  0.62557188  0.59874236  1  0  -0.123341  0  3.750036  0  0  -0.132495  0  4.003989  0  0  -0.140782  0  4.026171  0  0  -0.089225  -0.127199  0  3.989345  0
C  C30  1  0.34791861  0.29243720  0.46542417  1  0  -0.033597  0  3.700915  0  0  -0.065864  0  3.953806  0  0  -0.061722  0  3.972124  0  0  -0.068834  -0.06839  0  3.941429  0
C  C31  1  0.65207665  0.70755595  0.53457081  1  0  -0.033659  0  3.700852  0  0  -0.06594  0  3.953839  0  0  -0.061799  0  3.972152  0  0  -0.068796  -0.068486  0  3.941455  0
C  C32  1  0.51300621  0.28300434  0.43557256  1  0  -0.04654  0  3.741833  0  0  -0.020663  0  3.968364  0  0  -0.028751  0  3.993488  0  0  -0.00674  -0.016073  0  3.95224  0
C  C33  1  0.48699028  0.71698883  0.56442245  1  0  -0.046581  0  3.741764  0  0  -0.020801  0  3.968404  0  0  -0.028884  0  3.993525  0  0  -0.006799  -0.016153  0  3.952185  0
C  C34  1  0.56884024  0.35932064  0.34077006  1  0  0.104791  0  3.680585  0  0  0.066903  0  3.931106  0  0  0.073762  0  3.950425  0  0  0.050191  0.062682  0  3.918056  0
C  C35  1  0.43115650  0.64067488  0.65922621  1  0  0.104981  0  3.680407  0  0  0.06705  0  3.930963  0  0  0.073908  0  3.950279  0  0  0.050271  0.06282  0  3.917905  0
C  C36  1  0.62493985  0.19820580  0.50116220  1  0  0.277475  0  3.657684  0  0  0.272513  0  3.92229  0  0  0.284405  0  3.936449  0  0  0.147074  0.264653  0  3.912632  0
C  C37  1  0.37505578  0.80179089  0.49883511  1  0  0.277467  0  3.657719  0  0  0.272642  0  3.92215  0  0  0.284529  0  3.936319  0  0  0.147138  0.264775  0  3.912489  0
C  C38  1  0.77403413  0.14379831  0.43753019  1  0  -0.388659  0  3.693496  0  0  -0.47173  0  3.92946  0  0  -0.474971  0  3.93433  0  0  -0.24446  -0.469202  0  3.925956  0
C  C39  1  0.22596408  0.85619959  0.56247099  1  0  -0.388694  0  3.693606  0  0  -0.471822  0  3.929529  0  0  -0.475066  0  3.934406  0  0  -0.244489  -0.4693  0  3.926043  0
C  C40  1  0.62317217  0.03628183  0.77006088  1  0  0.517231  0  3.847562  0  0  0.464293  0  4.135583  0  0  0.495004  0  4.137061  0  0  0.240624  0.443621  0  4.133966  0
C  C41  1  0.37682604  0.96371606  0.22993849  1  0  0.517117  0  3.847697  0  0  0.464262  0  4.135604  0  0  0.494971  0  4.137081  0  0  0.240622  0.443603  0  4.133975  0
C  C42  1  0.73963748  0.95424681  0.83613760  1  0  -0.10822  0  3.748388  0  0  -0.082944  0  3.986795  0  0  -0.095606  0  4.01124  0  0  -0.011892  -0.075164  0  3.970605  0
C  C43  1  0.26036233  0.04575462  0.16386323  1  0  -0.108204  0  3.748473  0  0  -0.082941  0  3.986857  0  0  -0.095602  0  4.011301  0  0  -0.011881  -0.075168  0  3.970668  0
C  C44  1  0.90522380  0.93970167  0.81007624  1  0  -0.01399  0  3.689359  0  0  -0.041889  0  3.933076  0  0  -0.036124  0  3.950925  0  0  -0.062378  -0.044992  0  3.920693  0
C  C45  1  0.09477896  0.06030449  0.18992536  1  0  -0.014005  0  3.68949  0  0  -0.041925  0  3.93321  0  0  -0.03616  0  3.951058  0  0  -0.062405  -0.045005  0  3.920831  0
C  C46  1  0.99513843  0.84929223  0.87422095  1  0  -0.117751  0  3.714012  0  0  -0.126851  0  3.9637  0  0  -0.135952  0  3.985814  0  0  -0.084675  -0.121152  0  3.948751  0
C  C47  1  0.00486580  0.15071630  0.12578284  1  0  -0.117554  0  3.714036  0  0  -0.126646  0  3.963699  0  0  -0.135749  0  3.985816  0  0  -0.084583  -0.120945  0  3.948742  0
C  C48  1  0.91832758  0.77627960  0.96271961  1  0  0.143365  0  3.695262  0  0  0.108434  0  3.95144  0  0  0.117915  0  3.968341  0  0  0.05297  0.102465  0  3.93988  0
C  C49  1  0.08167616  0.22372422  0.03728349  1  0  0.143277  0  3.695374  0  0  0.108355  0  3.951549  0  0  0.11784  0  3.968445  0  0  0.052967  0.10238  0  3.94  0
C  C50  1  0.67351791  0.87814689  0.92763695  1  0  0.138641  0  3.664287  0  0  0.095528  0  3.917513  0  0  0.105893  0  3.933366  0  0  0.05959  0.088901  0  3.906757  0
C  C51  1  0.32648178  0.12185336  0.07236461  1  0  0.138738  0  3.664137  0  0  0.095622  0  3.917368  0  0  0.105985  0  3.933225  0  0  0.059623  0.088993  0  3.906618  0
Br  Br52  1  0.69868778  0.37667729  0.99708042  1  0  -0.542778  0  0.951012  0  0  -0.470363  0  1.243505  0  0  -0.494637  0  1.224735  0  0  -0.205834  -0.452992  0  1.256066  0
Br  Br53  1  0.30132726  0.62332896  0.00292061  1  0  -0.542778  0  0.951064  0  0  -0.470342  0  1.243532  0  0  -0.494621  0  1.224778  0  0  -0.205819  -0.452969  0  1.256094  0
Br  Br54  1  0.94948058  0.68775042  0.29935498  1  0  -0.615359  0  0.784257  0  0  -0.550798  0  1.036244  0  0  -0.571574  0  1.017951  0  0  -0.288001  -0.535424  0  1.048478  0
Br  Br55  1  0.05052537  0.31225105  0.70064058  1  0  -0.615396  0  0.784223  0  0  -0.550829  0  1.036187  0  0  -0.571603  0  1.017889  0  0  -0.288028  -0.535456  0  1.048425  0
N  N56  1  0.47280453  0.43980082  0.27993003  1  0  -0.344872  0  3.238048  0  0  -0.27476  0  3.502015  0  0  -0.295197  0  3.524867  0  0  -0.309192  -0.260917  0  3.486437  0
N  N57  1  0.52719467  0.56019472  0.72006630  1  0  -0.344966  0  3.238124  0  0  -0.27486  0  3.50209  0  0  -0.295297  0  3.524943  0  0  -0.309257  -0.261017  0  3.486506  0
N  N58  1  0.57983416  0.17361564  0.60855662  1  0  -0.224019  0  3.041018  0  0  -0.199913  0  3.314073  0  0  -0.210823  0  3.333275  0  0  -0.204096  -0.192622  0  3.300931  0
N  N59  1  0.42016147  0.82638106  0.39144070  1  0  -0.224025  0  3.041135  0  0  -0.199924  0  3.314138  0  0  -0.210831  0  3.333339  0  0  -0.20409  -0.19264  0  3.301007  0
N  N60  1  0.68304045  0.10026878  0.67430432  1  0  -0.299669  0  3.439987  0  0  -0.242743  0  3.68733  0  0  -0.264736  0  3.703462  0  0  -0.296902  -0.227462  0  3.675981  0
N  N61  1  0.31695543  0.89973027  0.32569606  1  0  -0.299615  0  3.439877  0  0  -0.242779  0  3.687295  0  0  -0.264773  0  3.703431  0  0  -0.296924  -0.227496  0  3.675942  0
N  N62  1  0.76070819  0.79215909  0.98947772  1  0  -0.329087  0  3.225723  0  0  -0.250299  0  3.478854  0  0  -0.272296  0  3.500591  0  0  -0.300106  -0.235498  0  3.463865  0
N  N63  1  0.23929285  0.20784236  0.01052497  1  0  -0.329146  0  3.225793  0  0  -0.250349  0  3.478916  0  0  -0.272346  0  3.500651  0  0  -0.300133  -0.235543  0  3.463936  0
O  O64  1  0.47562194  0.03713075  0.79704390  1  0  -0.564977  0  2.013374  0  0  -0.507442  0  2.249428  0  0  -0.533185  0  2.245007  0  0  -0.279785  -0.489503  0  2.251766  0
O  O65  1  0.52437516  0.96286831  0.20295833  1  0  -0.5649  0  2.013438  0  0  -0.507398  0  2.249471  0  0  -0.533154  0  2.245081  0  0  -0.279777  -0.489463  0  2.251809  0
