# generated using pymatgen
data_AgH4C6N4O3
_symmetry_space_group_name_H-M   'P 1'
_cell_length_a   7.23509739
_cell_length_b   7.23508476
_cell_length_c   14.77549733
_cell_angle_alpha   87.81017780
_cell_angle_beta   87.80995214
_cell_angle_gamma   86.32749408
_symmetry_Int_Tables_number   1
_chemical_formula_structural   AgH4C6N4O3
_chemical_formula_sum   'Ag4 H16 C24 N16 O12'
_cell_volume   770.79797760
_cell_formula_units_Z   4
loop_
 _symmetry_equiv_pos_site_id
 _symmetry_equiv_pos_as_xyz
  1  'x, y, z'
loop_
 _atom_site_type_symbol
 _atom_site_label
 _atom_site_symmetry_multiplicity
 _atom_site_fract_x
 _atom_site_fract_y
 _atom_site_fract_z
 _atom_site_occupancy
 _atom_site_hle17_bader_spin_density
 _atom_site_hle17_ddec_charge
 _atom_site_hle17_ddec_spin_density
 _atom_site_hle17_ddec_sum_bond_order
 _atom_site_hle17_magmom
 _atom_site_hse06_10hf_bader_spin_density
 _atom_site_hse06_10hf_ddec_charge
 _atom_site_hse06_10hf_ddec_spin_density
 _atom_site_hse06_10hf_ddec_sum_bond_order
 _atom_site_hse06_10hf_magmom
 _atom_site_hse06_bader_spin_density
 _atom_site_hse06_ddec_charge
 _atom_site_hse06_ddec_spin_density
 _atom_site_hse06_ddec_sum_bond_order
 _atom_site_hse06_magmom
 _atom_site_pbe_bader_spin_density
 _atom_site_pbe_cm5_charge
 _atom_site_pbe_ddec_charge
 _atom_site_pbe_ddec_spin_density
 _atom_site_pbe_ddec_sum_bond_order
 _atom_site_pbe_magmom
Ag  Ag0  1  0.65757318  0.54160276  0.61234906  1  0  0.549192  0  1.442604  0  0  0.418111  0  1.884788  0  0  0.435345  0  1.840271  0  0  0.511531  0.408785  0  1.914508  0
Ag  Ag1  1  0.45839842  0.34242594  0.88765021  1  0  0.549131  0  1.442647  0  0  0.418058  0  1.884818  0  0  0.435292  0  1.840302  0  0  0.511523  0.40872  0  1.914555  0
Ag  Ag2  1  0.34243007  0.45839870  0.38765035  1  0  0.549179  0  1.4426  0  0  0.418073  0  1.884804  0  0  0.435304  0  1.840291  0  0  0.511518  0.408721  0  1.914562  0
Ag  Ag3  1  0.54160227  0.65757272  0.11234933  1  0  0.549151  0  1.442627  0  0  0.418069  0  1.884824  0  0  0.435305  0  1.840304  0  0  0.511525  0.408746  0  1.91454  0
H  H4  1  0.83352561  0.87590597  0.48847585  1  0  0.098287  0  0.947433  0  0  0.103967  0  1.014663  0  0  0.106468  0  1.013411  0  0  0.121567  0.101985  0  1.015889  0
H  H5  1  0.12409851  0.16647403  0.01152375  1  0  0.09831  0  0.947426  0  0  0.103946  0  1.0147  0  0  0.106441  0  1.013462  0  0  0.12158  0.101962  0  1.015925  0
H  H6  1  0.16647339  0.12409682  0.51152363  1  0  0.098274  0  0.947449  0  0  0.103951  0  1.014688  0  0  0.106456  0  1.013423  0  0  0.121568  0.101966  0  1.015913  0
H  H7  1  0.87590467  0.83352884  0.98847767  1  0  0.098273  0  0.947432  0  0  0.103953  0  1.014666  0  0  0.106451  0  1.01342  0  0  0.121563  0.101968  0  1.015898  0
H  H8  1  0.83616679  0.22607584  0.49596508  1  0  0.097313  0  0.982098  0  0  0.09689  0  1.059746  0  0  0.101146  0  1.055541  0  0  0.115666  0.093641  0  1.063002  0
H  H9  1  0.77392865  0.16382744  0.00403468  1  0  0.097294  0  0.982146  0  0  0.096891  0  1.059753  0  0  0.101152  0  1.055529  0  0  0.115678  0.093641  0  1.06302  0
H  H10  1  0.16382814  0.77392549  0.50403249  1  0  0.097319  0  0.982077  0  0  0.096894  0  1.05973  0  0  0.101145  0  1.05554  0  0  0.115661  0.093645  0  1.062987  0
H  H11  1  0.22607485  0.83617129  0.99596750  1  0  0.097316  0  0.982094  0  0  0.096892  0  1.059752  0  0  0.10115  0  1.055544  0  0  0.115659  0.093642  0  1.063013  0
H  H12  1  0.42243086  0.22154793  0.69891387  1  0  0.096662  0  0.951861  0  0  0.09466  0  1.036637  0  0  0.099282  0  1.030485  0  0  0.119168  0.091054  0  1.041499  0
H  H13  1  0.77845430  0.57756273  0.80108677  1  0  0.096633  0  0.951864  0  0  0.094656  0  1.03663  0  0  0.099274  0  1.030481  0  0  0.119175  0.091083  0  1.041462  0
H  H14  1  0.57756825  0.77845349  0.30108564  1  0  0.096637  0  0.951903  0  0  0.094635  0  1.036683  0  0  0.099256  0  1.030532  0  0  0.119167  0.091027  0  1.041546  0
H  H15  1  0.22154672  0.42243178  0.19891353  1  0  0.096654  0  0.95186  0  0  0.094647  0  1.03665  0  0  0.099267  0  1.0305  0  0  0.119176  0.091054  0  1.041495  0
H  H16  1  0.15250249  0.05678599  0.70408991  1  0  0.130542  0  0.96182  0  0  0.141004  0  1.01912  0  0  0.145121  0  1.015805  0  0  0.115674  0.137892  0  1.021836  0
H  H17  1  0.94320872  0.84749951  0.79590946  1  0  0.130412  0  0.961871  0  0  0.14093  0  1.019113  0  0  0.14504  0  1.01581  0  0  0.115634  0.137816  0  1.02183  0
H  H18  1  0.84749691  0.94321126  0.29590901  1  0  0.130508  0  0.96179  0  0  0.140968  0  1.019114  0  0  0.145091  0  1.015792  0  0  0.115671  0.137854  0  1.021833  0
H  H19  1  0.05678643  0.15249906  0.20408884  1  0  0.130389  0  0.96189  0  0  0.140915  0  1.019129  0  0  0.145026  0  1.015823  0  0  0.11564  0.137801  0  1.021843  0
C  C20  1  0.74408298  0.95358517  0.53654894  1  0  0.089113  0  3.644959  0  0  0.06329  0  3.894082  0  0  0.064699  0  3.912305  0  0  0.052616  0.061959  0  3.882801  0
C  C21  1  0.04641896  0.25591415  0.96344995  1  0  0.089139  0  3.644943  0  0  0.063335  0  3.894109  0  0  0.064746  0  3.912328  0  0  0.052625  0.062015  0  3.882815  0
C  C22  1  0.25591335  0.04641620  0.46344995  1  0  0.089167  0  3.644881  0  0  0.063336  0  3.894021  0  0  0.064748  0  3.912245  0  0  0.052645  0.062018  0  3.882716  0
C  C23  1  0.95358440  0.74408593  0.03655017  1  0  0.089184  0  3.64489  0  0  0.063362  0  3.894023  0  0  0.064773  0  3.912243  0  0  0.052651  0.062049  0  3.882721  0
C  C24  1  0.74659143  0.14534462  0.54116760  1  0  0.082818  0  3.637563  0  0  0.050771  0  3.892327  0  0  0.054547  0  3.907511  0  0  0.050618  0.047752  0  3.882965  0
C  C25  1  0.85465936  0.25340441  0.95883189  1  0  0.082783  0  3.63757  0  0  0.050741  0  3.892337  0  0  0.054522  0  3.90752  0  0  0.050592  0.047716  0  3.882979  0
C  C26  1  0.25340616  0.85465813  0.45882989  1  0  0.082795  0  3.637547  0  0  0.050744  0  3.892322  0  0  0.054518  0  3.907506  0  0  0.050584  0.047723  0  3.882958  0
C  C27  1  0.14534146  0.74659288  0.04116903  1  0  0.082717  0  3.637599  0  0  0.050682  0  3.892381  0  0  0.054459  0  3.907561  0  0  0.050548  0.047655  0  3.883025  0
C  C28  1  0.51459680  0.14379317  0.65209044  1  0  0.070435  0  3.628083  0  0  0.034652  0  3.881725  0  0  0.038019  0  3.895995  0  0  0.064749  0.03194  0  3.873195  0
C  C29  1  0.85620864  0.48539920  0.84790864  1  0  0.070502  0  3.627824  0  0  0.034679  0  3.88153  0  0  0.03805  0  3.8958  0  0  0.06472  0.031938  0  3.872972  0
C  C30  1  0.48540389  0.85620548  0.34790910  1  0  0.07046  0  3.628051  0  0  0.034672  0  3.881696  0  0  0.03804  0  3.895965  0  0  0.064752  0.031963  0  3.873164  0
C  C31  1  0.14379078  0.51459805  0.15209095  1  0  0.070477  0  3.627955  0  0  0.034725  0  3.881625  0  0  0.038094  0  3.895895  0  0  0.064752  0.032007  0  3.873069  0
C  C32  1  0.50996090  0.95114804  0.64641576  1  0  0.125541  0  3.751807  0  0  0.124712  0  3.992167  0  0  0.126237  0  4.013849  0  0  0.123965  0.123311  0  3.978244  0
C  C33  1  0.04885250  0.49003671  0.85358478  1  0  0.12549  0  3.751688  0  0  0.124677  0  3.992111  0  0  0.126202  0  4.013792  0  0  0.123987  0.123271  0  3.978196  0
C  C34  1  0.49003981  0.04885064  0.35358512  1  0  0.125563  0  3.751855  0  0  0.124728  0  3.992222  0  0  0.126254  0  4.013903  0  0  0.123961  0.123325  0  3.978296  0
C  C35  1  0.95114967  0.50996057  0.14641408  1  0  0.125493  0  3.751841  0  0  0.124627  0  3.992268  0  0  0.126152  0  4.013951  0  0  0.123941  0.123226  0  3.978347  0
C  C36  1  0.37803844  0.84384565  0.70151066  1  0  0.155475  0  3.739785  0  0  0.148866  0  3.991517  0  0  0.152931  0  4.010319  0  0  0.123954  0.145586  0  3.979858  0
C  C37  1  0.15614603  0.62197059  0.79848985  1  0  0.155539  0  3.739829  0  0  0.148812  0  3.991736  0  0  0.152877  0  4.01054  0  0  0.123931  0.145529  0  3.98009  0
C  C38  1  0.62196523  0.15615027  0.29848955  1  0  0.155446  0  3.73988  0  0  0.148842  0  3.991631  0  0  0.152906  0  4.010436  0  0  0.12394  0.145556  0  3.979985  0
C  C39  1  0.84385022  0.37803219  0.20151037  1  0  0.155456  0  3.73984  0  0  0.14883  0  3.991629  0  0  0.152894  0  4.010433  0  0  0.12393  0.145546  0  3.979984  0
C  C40  1  0.19923897  0.91597783  0.72546960  1  0  -0.059837  0  3.616354  0  0  -0.083563  0  3.862404  0  0  -0.083729  0  3.876275  0  0  -0.05482  -0.084048  0  3.85427  0
C  C41  1  0.08402972  0.80075943  0.77453306  1  0  -0.059723  0  3.616619  0  0  -0.08345  0  3.862675  0  0  -0.083619  0  3.876557  0  0  -0.054781  -0.083932  0  3.854536  0
C  C42  1  0.80076155  0.08402364  0.27453258  1  0  -0.059756  0  3.61627  0  0  -0.083525  0  3.862403  0  0  -0.083698  0  3.87627  0  0  -0.054838  -0.084006  0  3.854269  0
C  C43  1  0.91597357  0.19924207  0.22546906  1  0  -0.059687  0  3.616428  0  0  -0.083446  0  3.8625  0  0  -0.083611  0  3.876381  0  0  -0.054803  -0.083929  0  3.854362  0
N  N44  1  0.62597985  0.85630298  0.58849977  1  0  -0.262868  0  3.22003  0  0  -0.202522  0  3.491333  0  0  -0.211774  0  3.50432  0  0  -0.310674  -0.196587  0  3.482936  0
N  N45  1  0.14369939  0.37402076  0.91149910  1  0  -0.262906  0  3.220127  0  0  -0.202536  0  3.491407  0  0  -0.211787  0  3.504391  0  0  -0.310691  -0.196602  0  3.483008  0
N  N46  1  0.37402064  0.14369845  0.41149970  1  0  -0.262915  0  3.220018  0  0  -0.202562  0  3.491334  0  0  -0.211815  0  3.50432  0  0  -0.310684  -0.196626  0  3.482929  0
N  N47  1  0.85630120  0.62597928  0.08850041  1  0  -0.262907  0  3.220038  0  0  -0.202551  0  3.49137  0  0  -0.211803  0  3.504356  0  0  -0.310685  -0.196626  0  3.482986  0
N  N48  1  0.63214365  0.23984004  0.59950631  1  0  -0.218167  0  3.279267  0  0  -0.14404  0  3.558103  0  0  -0.154694  0  3.569203  0  0  -0.315405  -0.13718  0  3.551285  0
N  N49  1  0.76016298  0.36784934  0.90049482  1  0  -0.218166  0  3.279179  0  0  -0.144025  0  3.558025  0  0  -0.15468  0  3.569126  0  0  -0.315405  -0.137159  0  3.551211  0
N  N50  1  0.36785268  0.76016133  0.40049259  1  0  -0.21816  0  3.279257  0  0  -0.144016  0  3.558078  0  0  -0.15467  0  3.569179  0  0  -0.315386  -0.137155  0  3.551259  0
N  N51  1  0.23984060  0.63214799  0.09950603  1  0  -0.218078  0  3.279111  0  0  -0.143984  0  3.557977  0  0  -0.154638  0  3.569077  0  0  -0.315338  -0.137121  0  3.551159  0
N  N52  1  0.43995336  0.66947010  0.72579208  1  0  -0.178164  0  3.146404  0  0  -0.13906  0  3.440668  0  0  -0.144767  0  3.450327  0  0  -0.193956  -0.135706  0  3.435075  0
N  N53  1  0.33052737  0.56004611  0.77420828  1  0  -0.177978  0  3.146118  0  0  -0.138818  0  3.440385  0  0  -0.144524  0  3.450045  0  0  -0.193811  -0.135471  0  3.434792  0
N  N54  1  0.56004608  0.33052718  0.27420887  1  0  -0.178081  0  3.146287  0  0  -0.138944  0  3.440502  0  0  -0.14465  0  3.450161  0  0  -0.193879  -0.135588  0  3.434907  0
N  N55  1  0.66947314  0.43995533  0.22579255  1  0  -0.178053  0  3.146201  0  0  -0.13892  0  3.440438  0  0  -0.144627  0  3.450098  0  0  -0.193846  -0.135572  0  3.434849  0
N  N56  1  0.09872976  0.45489069  0.60551701  1  0  0.69116  0  4.146163  0  0  0.738534  0  4.41681  0  0  0.767133  0  4.424025  0  0  0.087806  0.719104  0  4.411142  0
N  N57  1  0.54510748  0.90126909  0.89448279  1  0  0.691146  0  4.146102  0  0  0.738528  0  4.416746  0  0  0.767125  0  4.423958  0  0  0.087816  0.719105  0  4.41107  0
N  N58  1  0.90127349  0.54511077  0.39448240  1  0  0.691353  0  4.145801  0  0  0.738649  0  4.416515  0  0  0.767248  0  4.423727  0  0  0.087859  0.71922  0  4.410847  0
N  N59  1  0.45489025  0.09873231  0.10551675  1  0  0.691178  0  4.146014  0  0  0.738553  0  4.416654  0  0  0.767149  0  4.423865  0  0  0.087834  0.71913  0  4.410978  0
O  O60  1  0.26052384  0.45114491  0.57015952  1  0  -0.483947  0  1.833097  0  0  -0.484531  0  2.095037  0  0  -0.49904  0  2.085436  0  0  -0.197923  -0.47391  0  2.101104  0
O  O61  1  0.54885120  0.73947250  0.92983820  1  0  -0.483929  0  1.832996  0  0  -0.484471  0  2.094898  0  0  -0.498975  0  2.085295  0  0  -0.197909  -0.473855  0  2.100976  0
O  O62  1  0.73947932  0.54885794  0.42984054  1  0  -0.484095  0  1.832943  0  0  -0.484665  0  2.094912  0  0  -0.499173  0  2.085306  0  0  -0.198003  -0.47405  0  2.100995  0
O  O63  1  0.45114533  0.26052609  0.07016008  1  0  -0.48401  0  1.833088  0  0  -0.484563  0  2.095039  0  0  -0.49907  0  2.085437  0  0  -0.197943  -0.473952  0  2.101117  0
O  O64  1  0.04044280  0.31542135  0.64959715  1  0  -0.48774  0  1.75216  0  0  -0.485117  0  1.965861  0  0  -0.500897  0  1.961011  0  0  -0.204052  -0.473238  0  1.968584  0
O  O65  1  0.68457757  0.95955621  0.85040256  1  0  -0.487678  0  1.752126  0  0  -0.485107  0  1.96584  0  0  -0.500886  0  1.960989  0  0  -0.204042  -0.473226  0  1.968562  0
O  O66  1  0.95956064  0.68457732  0.35040097  1  0  -0.487736  0  1.752043  0  0  -0.485076  0  1.965741  0  0  -0.500851  0  1.960878  0  0  -0.204017  -0.473197  0  1.96847  0
O  O67  1  0.31542156  0.04044522  0.14959830  1  0  -0.487641  0  1.752063  0  0  -0.485074  0  1.965765  0  0  -0.500852  0  1.960915  0  0  -0.204045  -0.473193  0  1.968481  0
O  O68  1  0.99229693  0.60257910  0.59696147  1  0  -0.495906  0  1.831287  0  0  -0.476718  0  2.070518  0  0  -0.496117  0  2.064392  0  0  -0.210535  -0.462422  0  2.074089  0
O  O69  1  0.39741975  0.00770274  0.90303960  1  0  -0.495909  0  1.831281  0  0  -0.476735  0  2.070517  0  0  -0.496143  0  2.064409  0  0  -0.210562  -0.462443  0  2.074091  0
O  O70  1  0.00770367  0.39742096  0.40303871  1  0  -0.495959  0  1.831217  0  0  -0.476719  0  2.07045  0  0  -0.496122  0  2.064328  0  0  -0.210539  -0.462421  0  2.074018  0
O  O71  1  0.60257937  0.99229869  0.09696126  1  0  -0.495911  0  1.831213  0  0  -0.476718  0  2.070416  0  0  -0.496129  0  2.064315  0  0  -0.210544  -0.462427  0  2.073991  0
