# generated using pymatgen
data_Ni3H18C30N15O7
_symmetry_space_group_name_H-M   'P 1'
_cell_length_a   19.85234338
_cell_length_b   19.85250300
_cell_length_c   19.85255907
_cell_angle_alpha   109.47211242
_cell_angle_beta   109.47141570
_cell_angle_gamma   109.47063876
_symmetry_Int_Tables_number   1
_chemical_formula_structural   Ni3H18C30N15O7
_chemical_formula_sum   'Ni12 H72 C120 N60 O28'
_cell_volume   6023.08439108
_cell_formula_units_Z   4
loop_
 _symmetry_equiv_pos_site_id
 _symmetry_equiv_pos_as_xyz
  1  'x, y, z'
loop_
 _atom_site_type_symbol
 _atom_site_label
 _atom_site_symmetry_multiplicity
 _atom_site_fract_x
 _atom_site_fract_y
 _atom_site_fract_z
 _atom_site_occupancy
 _atom_site_pbe_bader_charge
 _atom_site_pbe_bader_spin_density
 _atom_site_pbe_cm5_charge
 _atom_site_pbe_ddec_charge
 _atom_site_pbe_ddec_spin_density
 _atom_site_pbe_ddec_sum_bond_order
 _atom_site_pbe_magmom
Ni  Ni0  1  0.90108362  0.33410130  0.00000694  1  1.222761  1.009117  0.753653  0.773192  1.162152  2.925854  0.994
Ni  Ni1  1  0.09891539  0.09891216  0.43301659  1  1.231763  1.009063  0.753716  0.773241  1.162007  2.925763  0.994
Ni  Ni2  1  0.66590324  0.66590285  0.56697037  1  1.224046  1.009023  0.75384  0.773652  1.162016  2.924824  0.994
Ni  Ni3  1  0.33409736  0.90108148  0.00000381  1  1.222717  1.009138  0.753594  0.773199  1.162173  2.92567  0.994
Ni  Ni4  1  0.90106780  0.99999423  0.33410096  1  1.222399  1.0091  0.75379  0.773354  1.162137  2.925092  0.994
Ni  Ni5  1  0.66591044  0.56698973  0.66590162  1  1.224477  1.008982  0.753652  0.773281  1.161975  2.925856  0.994
Ni  Ni6  1  0.09892943  0.43302446  0.09892381  1  1.231477  1.009178  0.753691  0.773172  1.162136  2.92539  0.994
Ni  Ni7  1  0.33409778  0.00000050  0.90107177  1  1.222605  1.009113  0.753669  0.773154  1.162146  2.925629  0.994
Ni  Ni8  1  0.56697057  0.66589769  0.66588489  1  1.224582  1.009223  0.753624  0.773056  1.162237  2.92528  0.994
Ni  Ni9  1  0.00001172  0.33410173  0.90107679  1  1.222722  1.008952  0.753844  0.773683  1.161977  2.925161  0.994
Ni  Ni10  1  0.99999552  0.90106796  0.33409979  1  1.222455  1.009062  0.753851  0.773516  1.162095  2.925146  0.994
Ni  Ni11  1  0.43301671  0.09892384  0.09892452  1  1.231248  1.008994  0.753664  0.773546  1.161937  2.925272  0.994
H  H12  1  0.87233145  0.72562084  0.23662003  1  0.114563  0.000968  0.12469  0.094409  0.000323  0.992371  0.001
H  H13  1  0.12767510  0.36428562  0.85330275  1  0.093191  0.000974  0.124695  0.094297  0.000323  0.992475  0.001
H  H14  1  0.51099452  0.27437002  0.14670430  1  0.112837  0.000967  0.12463  0.094347  0.000322  0.992508  0.001
H  H15  1  0.48899355  0.63570866  0.76335432  1  0.106398  0.000969  0.124708  0.094447  0.000323  0.99228  0.001
H  H16  1  0.63569648  0.76336725  0.48899239  1  0.105837  0.000968  0.124602  0.0943  0.000322  0.992174  0.001
H  H17  1  0.27437334  0.14669621  0.51099318  1  0.112736  0.000968  0.124643  0.094356  0.000323  0.992224  0.001
H  H18  1  0.36428086  0.85328801  0.12765921  1  0.093843  0.000973  0.124699  0.094389  0.000322  0.99238  0.001
H  H19  1  0.72563545  0.23662210  0.87235062  1  0.114874  0.000968  0.124785  0.094521  0.000323  0.992288  0.001
H  H20  1  0.14671805  0.51101036  0.27437321  1  0.112927  0.000968  0.124663  0.094408  0.000323  0.992219  0.001
H  H21  1  0.76338407  0.48900977  0.63572032  1  0.106243  0.000967  0.124721  0.094433  0.000322  0.992445  0.001
H  H22  1  0.23663755  0.87233983  0.72563518  1  0.114535  0.000968  0.124694  0.094356  0.000323  0.992393  0.001
H  H23  1  0.85329172  0.12765703  0.36429288  1  0.093688  0.000974  0.124717  0.094394  0.000323  0.992338  0.001
H  H24  1  0.87235599  0.23663745  0.72564967  1  0.114915  0.000968  0.124749  0.094467  0.000323  0.992345  0.001
H  H25  1  0.12765842  0.85329723  0.36429596  1  0.093622  0.000974  0.124677  0.094327  0.000323  0.992341  0.001
H  H26  1  0.51100295  0.14671514  0.27437250  1  0.112939  0.000968  0.124689  0.094443  0.000322  0.99222  0.001
H  H27  1  0.48899335  0.76337362  0.63569955  1  0.105696  0.000968  0.124615  0.094366  0.000323  0.992523  0.001
H  H28  1  0.63572927  0.48901362  0.76338359  1  0.10637  0.000968  0.124777  0.094458  0.000322  0.992311  0.001
H  H29  1  0.27437117  0.51100482  0.14670878  1  0.112688  0.000968  0.124633  0.094357  0.000322  0.992429  0.001
H  H30  1  0.36428388  0.12766463  0.85329147  1  0.093828  0.000974  0.124691  0.094385  0.000323  0.992382  0.001
H  H31  1  0.72562263  0.87233229  0.23662150  1  0.114591  0.000968  0.124678  0.094376  0.000323  0.992324  0.001
H  H32  1  0.14670578  0.27436851  0.51099715  1  0.112753  0.000968  0.124648  0.094354  0.000322  0.99235  0.001
H  H33  1  0.76335788  0.63570361  0.48899501  1  0.105818  0.000968  0.124703  0.09437  0.000322  0.992363  0.001
H  H34  1  0.23662123  0.72562200  0.87233631  1  0.114528  0.000968  0.124686  0.094413  0.000323  0.992277  0.001
H  H35  1  0.85329360  0.36427861  0.12767391  1  0.093563  0.000974  0.124717  0.094384  0.000323  0.99257  0.001
H  H36  1  0.86681545  0.59247257  0.16289709  1  0.112327  0.00053  0.116202  0.128369  0.000269  0.986091  0.0
H  H37  1  0.13319504  0.29607430  0.72567103  1  0.090476  0.000535  0.116212  0.128365  0.000269  0.985892  0.0
H  H38  1  0.57040915  0.40752170  0.27432951  1  0.107227  0.00053  0.11617  0.128259  0.000269  0.98605  0.0
H  H39  1  0.42958287  0.70391892  0.83709316  1  0.111134  0.000529  0.116254  0.128427  0.000269  0.985948  0.0
H  H40  1  0.70391329  0.83710420  0.42957693  1  0.110918  0.000529  0.11623  0.128353  0.000269  0.985973  0.0
H  H41  1  0.40752579  0.27433040  0.57041771  1  0.107323  0.00053  0.1162  0.128288  0.000269  0.985993  0.0
H  H42  1  0.29608463  0.72566445  0.13318943  1  0.090409  0.000534  0.116191  0.128271  0.000269  0.986126  0.0
H  H43  1  0.59248335  0.16289792  0.86682442  1  0.112299  0.00053  0.11619  0.128311  0.000269  0.986091  0.0
H  H44  1  0.27434225  0.57042233  0.40752564  1  0.107276  0.00053  0.116217  0.12842  0.000269  0.985865  0.0
H  H45  1  0.83710922  0.42958515  0.70391940  1  0.11094  0.000529  0.116181  0.128305  0.000269  0.986049  0.0
H  H46  1  0.16290010  0.86680996  0.59248298  1  0.112387  0.00053  0.116233  0.128366  0.000269  0.986033  0.0
H  H47  1  0.72566822  0.13318732  0.29609019  1  0.090601  0.000535  0.116199  0.128332  0.000269  0.986074  0.0
H  H48  1  0.86682401  0.16290127  0.59249701  1  0.112651  0.00053  0.11623  0.128404  0.000269  0.986083  0.0
H  H49  1  0.13318752  0.72567070  0.29609486  1  0.090684  0.000535  0.116251  0.128396  0.000269  0.986003  0.0
H  H50  1  0.57041258  0.27434407  0.40752082  1  0.10738  0.00053  0.116188  0.128397  0.000269  0.986026  0.0
H  H51  1  0.42957804  0.83710748  0.70391195  1  0.110866  0.000529  0.116218  0.128282  0.000269  0.986065  0.0
H  H52  1  0.70392834  0.42958693  0.83710616  1  0.110849  0.000529  0.116194  0.128289  0.000269  0.986049  0.0
H  H53  1  0.40752294  0.57041666  0.27432936  1  0.107297  0.00053  0.116165  0.128212  0.000269  0.986147  0.0
H  H54  1  0.29607087  0.13318191  0.72566086  1  0.090522  0.000535  0.11618  0.128348  0.000269  0.986011  0.0
H  H55  1  0.59247214  0.86681165  0.16289298  1  0.112205  0.00053  0.11619  0.128307  0.000269  0.986057  0.0
H  H56  1  0.27433557  0.40751624  0.57041717  1  0.107477  0.00053  0.116197  0.12836  0.000269  0.986088  0.0
H  H57  1  0.83709899  0.70391569  0.42958617  1  0.110973  0.000529  0.116251  0.128423  0.000269  0.986032  0.0
H  H58  1  0.16289622  0.59246964  0.86681441  1  0.11225  0.00053  0.116217  0.128339  0.000269  0.98602  0.0
H  H59  1  0.72566315  0.29608167  0.13319494  1  0.090182  0.000535  0.116197  0.128296  0.000269  0.98602  0.0
H  H60  1  0.74408324  0.07758048  0.87650259  1  0.099324  0.000387  0.105086  0.110693  0.000202  1.001767  0.0
H  H61  1  0.25592271  0.13242134  0.33351404  1  0.097138  0.000387  0.104981  0.110554  0.000202  1.001806  0.0
H  H62  1  0.79893834  0.92242138  0.66647144  1  0.111185  0.000386  0.104954  0.110548  0.000202  1.001561  0.0
H  H63  1  0.20108144  0.86755913  0.12348769  1  0.096755  0.000389  0.10499  0.110482  0.000202  1.001633  0.0
H  H64  1  0.86754943  0.12349857  0.20105956  1  0.097184  0.000389  0.104994  0.110648  0.000203  1.00156  0.0
H  H65  1  0.92241849  0.66650681  0.79891126  1  0.112779  0.000386  0.105075  0.110762  0.000202  1.001763  0.0
H  H66  1  0.13245659  0.33350498  0.25596563  1  0.094697  0.000387  0.104997  0.110702  0.000202  1.001565  0.0
H  H67  1  0.07756782  0.87652308  0.74405031  1  0.09966  0.000387  0.104936  0.110625  0.000202  1.00146  0.0
H  H68  1  0.66649302  0.79894707  0.92243267  1  0.112551  0.000386  0.104962  0.110616  0.000202  1.001655  0.0
H  H69  1  0.12349977  0.20107084  0.86757502  1  0.097403  0.000388  0.105071  0.110681  0.000202  1.001795  0.0
H  H70  1  0.87649329  0.74406239  0.07757030  1  0.098224  0.000388  0.105015  0.110622  0.000202  1.001745  0.0
H  H71  1  0.33351773  0.25593996  0.13245280  1  0.09688  0.000386  0.104935  0.110482  0.000202  1.001683  0.0
H  H72  1  0.74405558  0.87650715  0.07758401  1  0.099159  0.000388  0.105018  0.110638  0.000202  1.001719  0.0
H  H73  1  0.25594216  0.33352087  0.13245932  1  0.096897  0.000387  0.104923  0.110498  0.000202  1.00159  0.0
H  H74  1  0.79892564  0.66650400  0.92242688  1  0.108845  0.000386  0.105071  0.110691  0.000202  1.001733  0.0
H  H75  1  0.20107351  0.12349797  0.86757588  1  0.097392  0.000388  0.105075  0.110614  0.000202  1.001775  0.0
H  H76  1  0.86757991  0.20109277  0.12350889  1  0.097247  0.000388  0.10505  0.110628  0.000202  1.001833  0.0
H  H77  1  0.92241139  0.79894108  0.66646999  1  0.112361  0.000385  0.105018  0.11065  0.000202  1.001591  0.0
H  H78  1  0.13243147  0.25591615  0.33352220  1  0.097482  0.000386  0.104978  0.110556  0.000202  1.001661  0.0
H  H79  1  0.07756137  0.74407094  0.87648976  1  0.099549  0.000387  0.105079  0.110826  0.000202  1.001678  0.0
H  H80  1  0.66649573  0.92243221  0.79892753  1  0.112722  0.000386  0.105018  0.110728  0.000202  1.001638  0.0
H  H81  1  0.12349254  0.86753770  0.20105099  1  0.098106  0.000389  0.104964  0.110641  0.000202  1.001534  0.0
H  H82  1  0.87651695  0.07757493  0.74406072  1  0.099286  0.000388  0.104951  0.110548  0.000202  1.001634  0.0
H  H83  1  0.33350441  0.13243556  0.25595155  1  0.094917  0.000387  0.105012  0.110713  0.000202  1.001791  0.0
C  C84  1  0.92850191  0.72258165  0.24852483  1  0.481554  -0.001312  0.05605  0.104794  -0.001927  3.940069  -0.001
C  C85  1  0.07150503  0.32002038  0.79409020  1  0.513286  -0.001325  0.056136  0.104915  -0.001927  3.940042  -0.001
C  C86  1  0.52593900  0.27741794  0.20591486  1  0.521781  -0.00131  0.05613  0.104785  -0.001924  3.940204  -0.001
C  C87  1  0.47405721  0.67998296  0.75146146  1  0.489868  -0.001306  0.055906  0.104578  -0.001925  3.940043  -0.001
C  C88  1  0.67996680  0.75146250  0.47404647  1  0.494599  -0.001305  0.056104  0.104874  -0.001924  3.939498  -0.001
C  C89  1  0.27741129  0.20591142  0.52593625  1  0.521306  -0.001312  0.056084  0.104777  -0.001928  3.939703  -0.001
C  C90  1  0.32001249  0.79407645  0.07149276  1  0.513191  -0.001324  0.056048  0.104864  -0.001927  3.939938  -0.001
C  C91  1  0.72259276  0.24852226  0.92851913  1  0.480603  -0.00131  0.055718  0.104387  -0.001927  3.940329  -0.001
C  C92  1  0.20592939  0.52594835  0.27741141  1  0.521227  -0.001309  0.055993  0.104677  -0.001925  3.939785  -0.001
C  C93  1  0.75148598  0.47406685  0.67998573  1  0.494069  -0.001306  0.056049  0.104736  -0.001925  3.940256  -0.001
C  C94  1  0.24853192  0.92850588  0.72258981  1  0.480707  -0.001312  0.055982  0.104791  -0.001927  3.940079  -0.001
C  C95  1  0.79407628  0.07148808  0.32002306  1  0.51357  -0.001323  0.055951  0.104678  -0.001925  3.939971  -0.001
C  C96  1  0.92851982  0.24853100  0.72260295  1  0.480227  -0.001311  0.055841  0.104528  -0.001927  3.94036  -0.001
C  C97  1  0.07148901  0.79408032  0.32002355  1  0.513557  -0.001325  0.05599  0.104822  -0.001927  3.939948  -0.001
C  C98  1  0.52594206  0.20592533  0.27741212  1  0.521359  -0.00131  0.05599  0.104721  -0.001925  3.939915  -0.001
C  C99  1  0.47405812  0.75147954  0.67997137  1  0.493414  -0.001307  0.056107  0.104717  -0.001926  3.940091  -0.001
C  C100  1  0.67999778  0.47407119  0.75148162  1  0.494495  -0.001307  0.055781  0.104526  -0.001925  3.940319  -0.001
C  C101  1  0.27741997  0.52595070  0.20592006  1  0.521601  -0.001308  0.056071  0.104703  -0.001924  3.940015  -0.001
C  C102  1  0.32001613  0.07149265  0.79408035  1  0.513206  -0.001324  0.056059  0.104785  -0.001927  3.939941  -0.001
C  C103  1  0.72258163  0.92850383  0.24852535  1  0.481816  -0.00131  0.056072  0.104748  -0.001926  3.939811  -0.001
C  C104  1  0.20591764  0.27740784  0.52593930  1  0.521272  -0.001312  0.056014  0.104764  -0.001927  3.939989  -0.001
C  C105  1  0.75145858  0.67996977  0.47404914  1  0.494722  -0.001306  0.056005  0.104674  -0.001924  3.939956  -0.001
C  C106  1  0.24852093  0.72258185  0.92850733  1  0.481358  -0.001311  0.056088  0.104901  -0.001925  3.939919  -0.001
C  C107  1  0.79408410  0.32001294  0.07150569  1  0.51283  -0.001325  0.056096  0.104785  -0.001927  3.940052  -0.001
C  C108  1  0.92582914  0.64899869  0.20767791  1  -0.01413  0.002034  -0.077557  -0.165295  0.001163  3.925469  0.002
C  C109  1  0.07417786  0.28184251  0.72317865  1  0.034551  0.002029  -0.077577  -0.165323  0.001163  3.925112  0.002
C  C110  1  0.55866753  0.35100128  0.27681940  1  -0.035317  0.00204  -0.077455  -0.164983  0.001162  3.925221  0.002
C  C111  1  0.44132362  0.71815359  0.79231213  1  0.007195  0.002039  -0.077604  -0.165321  0.001163  3.925548  0.002
C  C112  1  0.71814699  0.79231604  0.44131566  1  0.002651  0.002038  -0.077492  -0.16524  0.001162  3.925129  0.002
C  C113  1  0.35100217  0.27682827  0.55867901  1  -0.034623  0.002042  -0.077511  -0.165149  0.001163  3.925001  0.002
C  C114  1  0.28184403  0.72316433  0.07417035  1  0.034641  0.002029  -0.077502  -0.165168  0.001163  3.92534  0.002
C  C115  1  0.64900506  0.20767705  0.92584090  1  -0.013669  0.002034  -0.077446  -0.165024  0.001163  3.925396  0.002
C  C116  1  0.27683903  0.55868448  0.35100026  1  -0.034725  0.00204  -0.077538  -0.165428  0.001162  3.925131  0.002
C  C117  1  0.79232804  0.44132390  0.71815343  1  0.002344  0.002038  -0.077478  -0.165186  0.001162  3.925455  0.002
C  C118  1  0.20768026  0.92582632  0.64900380  1  -0.014161  0.002035  -0.077495  -0.165189  0.001163  3.925365  0.002
C  C119  1  0.72316975  0.07416797  0.28185192  1  0.034403  0.00203  -0.077439  -0.165179  0.001163  3.925384  0.002
C  C120  1  0.92583775  0.20767941  0.64901647  1  -0.014158  0.002034  -0.077618  -0.165331  0.001163  3.925481  0.002
C  C121  1  0.07416707  0.72317196  0.28185477  1  0.034454  0.002029  -0.077499  -0.16523  0.001163  3.925364  0.002
C  C122  1  0.55867225  0.27683535  0.35099583  1  -0.034999  0.00204  -0.077556  -0.165337  0.001162  3.925398  0.002
C  C123  1  0.44132410  0.79233027  0.71814848  1  0.003506  0.002039  -0.077415  -0.165043  0.001163  3.92511  0.002
C  C124  1  0.71816483  0.44132825  0.79232578  1  0.002671  0.002039  -0.077436  -0.164957  0.001162  3.925216  0.002
C  C125  1  0.35100284  0.55867456  0.27682382  1  -0.034991  0.00204  -0.077449  -0.165079  0.001162  3.925287  0.002
C  C126  1  0.28183875  0.07416605  0.72316913  1  0.03477  0.00203  -0.077494  -0.165193  0.001163  3.925267  0.002
C  C127  1  0.64899575  0.92583001  0.20767918  1  -0.014164  0.002033  -0.077522  -0.165204  0.001162  3.925327  0.002
C  C128  1  0.27683190  0.35099621  0.55868113  1  -0.034648  0.002041  -0.077507  -0.165186  0.001163  3.925367  0.002
C  C129  1  0.79231607  0.71814691  0.44132196  1  0.002826  0.002038  -0.077539  -0.165212  0.001162  3.925449  0.002
C  C130  1  0.20767556  0.64899342  0.92583160  1  -0.013392  0.002035  -0.077585  -0.165297  0.001163  3.925206  0.002
C  C131  1  0.72316849  0.28184477  0.07418034  1  0.035237  0.00203  -0.077536  -0.16522  0.001163  3.925101  0.002
C  C132  1  0.99999873  0.64878096  0.22273981  1  -0.010635  -0.000678  0.019859  0.089283  -0.001184  4.002099  0.0
C  C133  1  0.00000450  0.22273513  0.64879288  1  -0.010649  -0.000678  0.019958  0.089593  -0.001184  4.001709  0.0
C  C134  1  0.57394543  0.35121972  0.35120747  1  -0.02399  -0.000668  0.0198  0.089265  -0.00118  4.002118  0.0
C  C135  1  0.42604523  0.77726588  0.77725715  1  -0.031563  -0.00067  0.019843  0.089387  -0.001182  4.001912  0.0
C  C136  1  0.77725891  0.77725525  0.42604064  1  -0.035056  -0.000665  0.019801  0.089171  -0.001179  4.002171  0.0
C  C137  1  0.35122020  0.35121804  0.57395518  1  -0.023563  -0.000672  0.019843  0.089292  -0.001184  4.002193  0.0
C  C138  1  0.22273807  0.64877649  0.00000223  1  -0.011409  -0.000675  0.019863  0.089449  -0.001182  4.002228  0.0
C  C139  1  0.64877992  0.22273996  0.00000721  1  -0.011492  -0.000676  0.019854  0.089498  -0.001183  4.00198  0.0
C  C140  1  0.35122586  0.57395588  0.35121441  1  -0.022937  -0.000669  0.01981  0.089452  -0.00118  4.002004  0.0
C  C141  1  0.77727016  0.42604434  0.77726234  1  -0.034928  -0.000667  0.019849  0.089394  -0.001182  4.002199  0.0
C  C142  1  0.22273365  0.99999274  0.64878124  1  -0.010476  -0.000677  0.019831  0.089299  -0.001183  4.002081  0.0
C  C143  1  0.64877759  0.00000012  0.22274228  1  -0.008543  -0.000677  0.019807  0.089269  -0.001182  4.002135  0.0
C  C144  1  0.99999814  0.57430679  0.17668470  1  0.9092  0.005961  0.206322  0.208928  0.003948  4.061206  0.007
C  C145  1  0.00000353  0.17668279  0.57431838  1  0.909171  0.005963  0.206431  0.208866  0.003949  4.060891  0.007
C  C146  1  0.60237261  0.42568948  0.42569006  1  0.941875  0.005963  0.206328  0.208855  0.00395  4.061016  0.007
C  C147  1  0.39762372  0.82331873  0.82331604  1  0.931916  0.005945  0.206324  0.20876  0.003948  4.060943  0.007
C  C148  1  0.82330786  0.82330562  0.39761959  1  0.935124  0.005945  0.2064  0.209043  0.003949  4.060727  0.007
C  C149  1  0.42569376  0.42568698  0.60237056  1  0.941014  0.005964  0.206348  0.208855  0.00395  4.061262  0.007
C  C150  1  0.17669010  0.57430187  0.99999927  1  0.909315  0.005962  0.206344  0.208797  0.003949  4.061131  0.007
C  C151  1  0.57430128  0.17668843  0.00000340  1  0.909294  0.005964  0.206221  0.208595  0.00395  4.060976  0.007
C  C152  1  0.42569162  0.60237431  0.42569025  1  0.941037  0.005959  0.206314  0.208882  0.003947  4.060944  0.007
C  C153  1  0.82331568  0.39761834  0.82331362  1  0.935006  0.005945  0.206298  0.208759  0.00395  4.061174  0.007
C  C154  1  0.17668161  0.99999651  0.57430912  1  0.908934  0.005963  0.206338  0.208864  0.003949  4.060854  0.007
C  C155  1  0.57430472  0.00000056  0.17669051  1  0.907084  0.005965  0.206404  0.208974  0.003949  4.061141  0.007
C  C156  1  0.86278474  0.17874201  0.86276799  1  1.569039  -0.000161  0.224077  0.579088  -0.000581  4.14192  -0.001
C  C157  1  0.13721805  0.99997799  0.31596145  1  1.551191  -0.000106  0.224046  0.578932  -0.00059  4.140995  -0.001
C  C158  1  0.68403161  0.82126608  0.68401977  1  1.54909  -8.8e-05  0.224068  0.57898  -0.00059  4.141726  -0.001
C  C159  1  0.31597639  0.00000721  0.13723205  1  1.550605  -0.000112  0.224075  0.578982  -0.000593  4.140944  -0.001
C  C160  1  0.99998334  0.13721125  0.31596691  1  1.551004  -0.000111  0.223944  0.578614  -0.000594  4.141287  -0.001
C  C161  1  0.82125294  0.68403701  0.68401582  1  1.549296  -8.6e-05  0.223964  0.578645  -0.000588  4.141534  -0.001
C  C162  1  0.00002354  0.31597808  0.13724636  1  1.550757  -0.000109  0.224401  0.579498  -0.000589  4.140287  -0.001
C  C163  1  0.17872948  0.86277693  0.86275763  1  1.568472  -0.000164  0.224207  0.579228  -0.00059  4.140882  -0.001
C  C164  1  0.68402990  0.68404185  0.82125821  1  1.549282  -8.6e-05  0.224071  0.579191  -0.000589  4.140927  -0.001
C  C165  1  0.13724270  0.31597923  0.00001092  1  1.550735  -0.000109  0.223942  0.578798  -0.000589  4.141466  -0.001
C  C166  1  0.86275491  0.86275682  0.17874161  1  1.568808  -0.000163  0.22411  0.578974  -0.000588  4.141336  -0.001
C  C167  1  0.31597832  0.13723844  0.00001058  1  1.550806  -0.000105  0.224131  0.579078  -0.000586  4.141528  -0.001
C  C168  1  0.81459383  0.08622014  0.81457802  1  -0.009634  0.011184  -0.014178  -0.027053  0.006748  3.965689  0.009
C  C169  1  0.18541795  0.99998627  0.27162737  1  -0.013012  0.011145  -0.014073  -0.027009  0.006755  3.965058  0.009
C  C170  1  0.72837509  0.91379198  0.72835985  1  -0.024767  0.011145  -0.01415  -0.027167  0.006756  3.965324  0.009
C  C171  1  0.27163578  0.00000615  0.18542918  1  -0.014345  0.011145  -0.014148  -0.027289  0.006755  3.965103  0.009
C  C172  1  0.99998901  0.18541395  0.27162798  1  -0.013399  0.011148  -0.014118  -0.027072  0.006757  3.965032  0.009
C  C173  1  0.91378453  0.72837966  0.72835420  1  -0.021909  0.011134  -0.014097  -0.026858  0.006752  3.964925  0.009
C  C174  1  0.00001679  0.27163750  0.18543869  1  -0.01448  0.011148  -0.014116  -0.027274  0.006756  3.965315  0.009
C  C175  1  0.08619802  0.81458478  0.81456476  1  -0.003483  0.011189  -0.014139  -0.02712  0.006754  3.965084  0.009
C  C176  1  0.72836820  0.72838038  0.91379294  1  -0.022414  0.011134  -0.014115  -0.027195  0.006752  3.965399  0.009
C  C177  1  0.18542924  0.27163413  0.00000950  1  -0.014695  0.011147  -0.014084  -0.027197  0.006755  3.965408  0.009
C  C178  1  0.81456694  0.81457606  0.08621297  1  -0.007437  0.011191  -0.014155  -0.02702  0.006755  3.965461  0.009
C  C179  1  0.27163876  0.18542555  0.00001033  1  -0.012848  0.011139  -0.014144  -0.027371  0.006752  3.965575  0.009
C  C180  1  0.75511707  0.04291343  0.82995659  1  0.00417  0.00092  -0.084837  -0.096795  0.000332  3.980989  0.001
C  C181  1  0.24489268  0.07484846  0.28780701  1  0.027903  0.000909  -0.084833  -0.096604  0.000332  3.981215  0.001
C  C182  1  0.78706505  0.95709848  0.71218761  1  -0.124585  0.000948  -0.084835  -0.096736  0.000332  3.980649  0.001
C  C183  1  0.21294716  0.92513793  0.17003654  1  0.019001  0.000919  -0.084861  -0.096501  0.000332  3.980726  0.001
C  C184  1  0.92513696  0.17004533  0.21294058  1  -0.124067  0.000955  -0.084974  -0.097065  0.000332  3.981278  0.001
C  C185  1  0.95708979  0.71220599  0.78703781  1  -0.127138  0.000951  -0.084821  -0.096827  0.000332  3.981184  0.001
C  C186  1  0.07486647  0.28780083  0.24491442  1  -0.112446  0.000948  -0.084859  -0.096951  0.000332  3.981107  0.001
C  C187  1  0.04289858  0.82997027  0.75508284  1  -0.124698  0.000963  -0.084799  -0.096766  0.000332  3.980334  0.001
C  C188  1  0.71219376  0.78706517  0.95709792  1  -0.126366  0.000949  -0.084926  -0.096853  0.000332  3.980813  0.001
C  C189  1  0.17005046  0.21294543  0.92515055  1  -0.124308  0.000956  -0.084955  -0.096904  0.000332  3.98144  0.001
C  C190  1  0.82994549  0.75510155  0.04290536  1  0.010235  0.000917  -0.084821  -0.096725  0.000331  3.98122  0.001
C  C191  1  0.28781559  0.24490959  0.07487097  1  0.028187  0.00091  -0.084774  -0.096586  0.000332  3.980804  0.001
C  C192  1  0.75509207  0.82996578  0.04291246  1  0.00487  0.000919  -0.084862  -0.096836  0.000332  3.98078  0.001
C  C193  1  0.24490874  0.28781232  0.07487194  1  -0.115607  0.000949  -0.084829  -0.096674  0.000332  3.980784  0.001
C  C194  1  0.78704913  0.71220721  0.95709921  1  -0.122635  0.00095  -0.08499  -0.097037  0.000332  3.981429  0.001
C  C195  1  0.21294935  0.17004460  0.92515563  1  0.018119  0.000918  -0.084884  -0.096633  0.000332  3.98142  0.001
C  C196  1  0.92514934  0.21295351  0.17004805  1  0.017985  0.000919  -0.08482  -0.09657  0.000332  3.981277  0.001
C  C197  1  0.95708308  0.78706335  0.71217497  1  0.002455  0.000907  -0.084888  -0.096941  0.000332  3.980622  0.001
C  C198  1  0.07486024  0.24489386  0.28781169  1  0.026808  0.00091  -0.084846  -0.096671  0.000332  3.980784  0.001
C  C199  1  0.04289192  0.75510819  0.82994412  1  0.005498  0.000919  -0.08504  -0.097247  0.000332  3.981411  0.001
C  C200  1  0.71220458  0.95710270  0.78704827  1  -0.124258  0.000949  -0.084922  -0.097039  0.000332  3.980917  0.001
C  C201  1  0.17003899  0.92512936  0.21293722  1  -0.126072  0.000957  -0.084826  -0.096982  0.000332  3.98082  0.001
C  C202  1  0.82996363  0.04290949  0.75509445  1  0.011116  0.000916  -0.084899  -0.096854  0.000332  3.98111  0.001
C  C203  1  0.28779988  0.07485668  0.24491369  1  -0.112784  0.000947  -0.084854  -0.097005  0.000331  3.981332  0.001
N  N204  1  0.99999348  0.79432416  0.30260310  1  -1.161574  0.031407  -0.318028  -0.191514  0.018195  3.582075  0.029
N  N205  1  0.00001383  0.30260494  0.79433944  1  -1.160104  0.031395  -0.318015  -0.191511  0.018189  3.582462  0.029
N  N206  1  0.50827497  0.20567993  0.20567287  1  -1.173565  0.03133  -0.317914  -0.191479  0.018182  3.58207  0.029
N  N207  1  0.49171530  0.69739882  0.69738415  1  -1.162763  0.031377  -0.317911  -0.191295  0.018199  3.581829  0.029
N  N208  1  0.69737980  0.69738314  0.49170810  1  -1.163047  0.031358  -0.318065  -0.191407  0.018186  3.581736  0.029
N  N209  1  0.20566858  0.20566387  0.50826753  1  -1.173905  0.031333  -0.318009  -0.191488  0.018189  3.582299  0.029
N  N210  1  0.30259467  0.79432253  0.99999884  1  -1.161118  0.0314  -0.318065  -0.191765  0.018193  3.582399  0.029
N  N211  1  0.79433160  0.30259565  0.00001208  1  -1.160211  0.031401  -0.317902  -0.191434  0.018194  3.582204  0.029
N  N212  1  0.20568100  0.50828748  0.20567202  1  -1.174056  0.031341  -0.31798  -0.191232  0.018189  3.581859  0.029
N  N213  1  0.69741585  0.49173749  0.69740900  1  -1.162474  0.031348  -0.317931  -0.191546  0.018183  3.582287  0.029
N  N214  1  0.30260401  0.99999937  0.79432714  1  -1.160822  0.031411  -0.318023  -0.191486  0.018198  3.58213  0.029
N  N215  1  0.79432291  0.99999573  0.30260906  1  -1.161449  0.031411  -0.318042  -0.191307  0.018197  3.581745  0.029
N  N216  1  0.95879939  0.45252509  0.09013056  1  -0.215819  0.069099  -0.108543  -0.040811  0.041545  3.589014  0.064
N  N217  1  0.04119511  0.13132467  0.49372820  1  -0.124447  0.069161  -0.108373  -0.040515  0.041552  3.588673  0.064
N  N218  1  0.63760782  0.54747762  0.50627374  1  -0.091828  0.068736  -0.108389  -0.0406  0.041556  3.588618  0.064
N  N219  1  0.36238876  0.86866780  0.90986656  1  -0.243929  0.069466  -0.108438  -0.040724  0.041534  3.588626  0.064
N  N220  1  0.86865890  0.90985877  0.36239165  1  -0.243606  0.0695  -0.108365  -0.040392  0.041554  3.588697  0.064
N  N221  1  0.54747579  0.50627022  0.63760287  1  -0.092165  0.068728  -0.108416  -0.040628  0.041552  3.588731  0.064
N  N222  1  0.13133544  0.49372154  0.04119684  1  -0.123829  0.069155  -0.10848  -0.040735  0.041554  3.589002  0.064
N  N223  1  0.45252304  0.09013441  0.95879775  1  -0.216308  0.069121  -0.108443  -0.040657  0.041554  3.58883  0.064
N  N224  1  0.50627552  0.63760327  0.54746412  1  -0.237071  0.06948  -0.108374  -0.040525  0.041545  3.588719  0.064
N  N225  1  0.90986809  0.36238639  0.86866195  1  -0.098263  0.068748  -0.10845  -0.040778  0.041559  3.588708  0.064
N  N226  1  0.09012556  0.95879048  0.45252355  1  -0.215865  0.069093  -0.108428  -0.040616  0.041542  3.588805  0.064
N  N227  1  0.49372268  0.04119852  0.13133196  1  -0.124347  0.069131  -0.10844  -0.040769  0.041536  3.588914  0.064
N  N228  1  0.95879491  0.09012661  0.45252814  1  -0.215611  0.069083  -0.108338  -0.040444  0.041536  3.588751  0.064
N  N229  1  0.04120064  0.49372358  0.13132762  1  -0.124672  0.069127  -0.108363  -0.040449  0.041532  3.588489  0.064
N  N230  1  0.63761136  0.50627635  0.54747069  1  -0.237254  0.069499  -0.108419  -0.040635  0.041558  3.588928  0.064
N  N231  1  0.36238599  0.90986676  0.86866511  1  -0.097954  0.068729  -0.108358  -0.040502  0.041549  3.588429  0.064
N  N232  1  0.86866714  0.36238539  0.90986300  1  -0.243417  0.069502  -0.108348  -0.040466  0.041557  3.588358  0.064
N  N233  1  0.54747852  0.63760448  0.50626686  1  -0.091898  0.06869  -0.10837  -0.040496  0.041529  3.588694  0.064
N  N234  1  0.13132616  0.04119032  0.49372420  1  -0.124336  0.069149  -0.108311  -0.040404  0.041544  3.588647  0.064
N  N235  1  0.45252561  0.95879853  0.09013246  1  -0.215767  0.069135  -0.108432  -0.040564  0.041567  3.588982  0.064
N  N236  1  0.50627494  0.54746981  0.63760098  1  -0.237598  0.069501  -0.108384  -0.040527  0.041559  3.588568  0.064
N  N237  1  0.90985827  0.86865769  0.36239045  1  -0.097573  0.068742  -0.108342  -0.040487  0.041558  3.588751  0.064
N  N238  1  0.09014009  0.45252266  0.95879593  1  -0.21712  0.069112  -0.108403  -0.040679  0.041548  3.588703  0.064
N  N239  1  0.49372138  0.13133504  0.04119996  1  -0.123923  0.069159  -0.108348  -0.040655  0.041557  3.588557  0.064
N  N240  1  0.93081723  0.50128068  0.11707469  1  -0.608353  0.006062  -0.204135  -0.244671  0.002213  3.168256  0.004
N  N241  1  0.06918320  0.18624980  0.57046847  1  -0.6046  0.006045  -0.204269  -0.244801  0.002214  3.168156  0.004
N  N242  1  0.61578800  0.49871827  0.42953510  1  -0.610022  0.006073  -0.204309  -0.244845  0.002216  3.16791  0.004
N  N243  1  0.38420862  0.81374562  0.88292926  1  -0.606228  0.006079  -0.204223  -0.244672  0.002214  3.167812  0.004
N  N244  1  0.81373525  0.88291929  0.38420644  1  -0.606471  0.006084  -0.204236  -0.244936  0.002217  3.167972  0.004
N  N245  1  0.49872302  0.42953637  0.61579019  1  -0.610229  0.00608  -0.204146  -0.24465  0.002221  3.168235  0.004
N  N246  1  0.18625852  0.57045890  0.06918184  1  -0.604295  0.006046  -0.204168  -0.244633  0.002215  3.168155  0.004
N  N247  1  0.50127742  0.11707573  0.93081330  1  -0.60844  0.006064  -0.204154  -0.24464  0.002214  3.167901  0.004
N  N248  1  0.42952928  0.61578824  0.49871746  1  -0.610155  0.006057  -0.204251  -0.244828  0.002205  3.167583  0.004
N  N249  1  0.88292921  0.38420296  0.81374049  1  -0.60629  0.006085  -0.204146  -0.244633  0.002217  3.167965  0.004
N  N250  1  0.11706642  0.93080847  0.50128048  1  -0.608347  0.006062  -0.204245  -0.244811  0.002213  3.167888  0.004
N  N251  1  0.57046004  0.06918321  0.18625942  1  -0.604447  0.006045  -0.2042  -0.244687  0.002214  3.168152  0.004
N  N252  1  0.93081892  0.11707218  0.50128930  1  -0.608347  0.006064  -0.204345  -0.244948  0.002214  3.168101  0.004
N  N253  1  0.06918074  0.57046185  0.18625258  1  -0.604274  0.006041  -0.204216  -0.244772  0.002212  3.167925  0.004
N  N254  1  0.61579724  0.42953726  0.49872067  1  -0.610267  0.006072  -0.20416  -0.244682  0.002216  3.1681  0.004
N  N255  1  0.38420595  0.88293072  0.81374209  1  -0.60638  0.006077  -0.204203  -0.244716  0.002212  3.167682  0.004
N  N256  1  0.81374409  0.38420245  0.88292611  1  -0.606556  0.006085  -0.204245  -0.244815  0.002216  3.167809  0.004
N  N257  1  0.49871611  0.61578739  0.42953149  1  -0.610251  0.006076  -0.204253  -0.244858  0.002219  3.168218  0.004
N  N258  1  0.18625089  0.06917771  0.57046263  1  -0.604196  0.006044  -0.204234  -0.244787  0.002214  3.167964  0.004
N  N259  1  0.50127972  0.93081504  0.11707508  1  -0.608428  0.006067  -0.20422  -0.244796  0.002216  3.168055  0.004
N  N260  1  0.42953416  0.49871434  0.61578426  1  -0.609835  0.006067  -0.204345  -0.244859  0.002213  3.167889  0.004
N  N261  1  0.88291824  0.81373422  0.38420268  1  -0.606601  0.006085  -0.204275  -0.244894  0.002218  3.168095  0.004
N  N262  1  0.11708127  0.50127429  0.93081129  1  -0.607844  0.006064  -0.204171  -0.24462  0.002214  3.167902  0.004
N  N263  1  0.57046065  0.18626200  0.06918981  1  -0.604281  0.006046  -0.204186  -0.244579  0.002215  3.167851  0.004
O  O264  1  0.84538206  0.21341807  0.91577494  1  -1.102641  0.066455  -0.286953  -0.495299  0.036963  2.390422  0.061
O  O265  1  0.15462170  0.07039333  0.36804376  1  -1.102343  0.066498  -0.287003  -0.495343  0.036982  2.390233  0.061
O  O266  1  0.70237075  0.78659617  0.63194253  1  -1.103663  0.066519  -0.286938  -0.495275  0.036997  2.390347  0.061
O  O267  1  0.29763233  0.92958919  0.08421446  1  -1.10213  0.066457  -0.286922  -0.495114  0.036962  2.390404  0.061
O  O268  1  0.92956611  0.08420212  0.29761869  1  -1.102379  0.066496  -0.286833  -0.494924  0.036984  2.390698  0.061
O  O269  1  0.78657984  0.63196139  0.70234899  1  -1.103945  0.066468  -0.286997  -0.495173  0.036967  2.390594  0.061
O  O270  1  0.07042940  0.36804736  0.15464026  1  -1.102297  0.066502  -0.287027  -0.49528  0.036984  2.390504  0.061
O  O271  1  0.21340500  0.91579271  0.84536326  1  -1.103457  0.06649  -0.287023  -0.495235  0.036982  2.390454  0.061
O  O272  1  0.63196136  0.70238371  0.78658994  1  -1.104189  0.066445  -0.286912  -0.495165  0.036955  2.390244  0.061
O  O273  1  0.08423429  0.29764356  0.92959886  1  -1.102202  0.066507  -0.286836  -0.495116  0.036988  2.390675  0.061
O  O274  1  0.91576637  0.84535542  0.21341394  1  -1.102822  0.066488  -0.286931  -0.495272  0.03698  2.390695  0.061
O  O275  1  0.36804831  0.15462867  0.07041831  1  -1.102192  0.066487  -0.286972  -0.495212  0.036975  2.390812  0.061
O  O276  1  0.84535395  0.91577135  0.21341628  1  -1.103049  0.066504  -0.287005  -0.495295  0.036988  2.390473  0.061
O  O277  1  0.15464734  0.36805656  0.07042553  1  -1.101982  0.066501  -0.286903  -0.495077  0.036982  2.390495  0.061
O  O278  1  0.70235734  0.63196058  0.78657952  1  -1.104006  0.066463  -0.286911  -0.495286  0.036965  2.390613  0.061
O  O279  1  0.29764824  0.08423666  0.92959848  1  -1.102291  0.066481  -0.286956  -0.495183  0.036975  2.390562  0.061
O  O280  1  0.92961075  0.29764554  0.08423139  1  -1.101674  0.066499  -0.28721  -0.4956  0.036985  2.38985  0.061
O  O281  1  0.78657921  0.70237003  0.63193779  1  -1.104141  0.06648  -0.286843  -0.494973  0.036975  2.390751  0.061
O  O282  1  0.07040514  0.15461940  0.36804761  1  -1.102534  0.066487  -0.286927  -0.495113  0.036977  2.390297  0.061
O  O283  1  0.21340019  0.84536073  0.91575792  1  -1.102175  0.066501  -0.287008  -0.495447  0.036987  2.390204  0.061
O  O284  1  0.63195526  0.78660099  0.70235618  1  -1.103894  0.066521  -0.286898  -0.495162  0.036996  2.390751  0.061
O  O285  1  0.08420484  0.92956958  0.29761759  1  -1.102613  0.066493  -0.286922  -0.495093  0.036982  2.390659  0.061
O  O286  1  0.91579513  0.21342377  0.84538189  1  -1.103466  0.066448  -0.286959  -0.495231  0.036956  2.391183  0.061
O  O287  1  0.36804876  0.07041931  0.15463772  1  -1.101927  0.0665  -0.286892  -0.495148  0.036982  2.390635  0.061
O  O288  1  0.00000074  0.35348925  0.99999561  1  -0.795302  -0.041629  -0.455323  -0.668891  -0.054237  2.289657  -0.034
O  O289  1  0.99999402  0.99999110  0.35349770  1  -0.79531  -0.041668  -0.455453  -0.669091  -0.054263  2.28978  -0.034
O  O290  1  0.64651134  0.64650655  0.64650715  1  -0.795432  -0.041567  -0.455344  -0.668994  -0.054213  2.289874  -0.034
O  O291  1  0.35349121  0.00000402  0.00000119  1  -0.795414  -0.041632  -0.455299  -0.668895  -0.054235  2.289826  -0.034
