# generated using pymatgen
data_NaH4C4BrN2O3
_symmetry_space_group_name_H-M   'P 1'
_cell_length_a   7.41557278
_cell_length_b   7.92394868
_cell_length_c   13.89777929
_cell_angle_alpha   101.46811197
_cell_angle_beta   90.02805591
_cell_angle_gamma   117.89548374
_symmetry_Int_Tables_number   1
_chemical_formula_structural   NaH4C4BrN2O3
_chemical_formula_sum   'Na4 H16 C16 Br4 N8 O12'
_cell_volume   703.20668841
_cell_formula_units_Z   4
loop_
 _symmetry_equiv_pos_site_id
 _symmetry_equiv_pos_as_xyz
  1  'x, y, z'
loop_
 _atom_site_type_symbol
 _atom_site_label
 _atom_site_symmetry_multiplicity
 _atom_site_fract_x
 _atom_site_fract_y
 _atom_site_fract_z
 _atom_site_occupancy
 _atom_site_hle17_bader_spin_density
 _atom_site_hle17_ddec_charge
 _atom_site_hle17_ddec_spin_density
 _atom_site_hle17_ddec_sum_bond_order
 _atom_site_hle17_magmom
 _atom_site_hse06_10hf_bader_spin_density
 _atom_site_hse06_10hf_ddec_charge
 _atom_site_hse06_10hf_ddec_spin_density
 _atom_site_hse06_10hf_ddec_sum_bond_order
 _atom_site_hse06_10hf_magmom
 _atom_site_hse06_bader_spin_density
 _atom_site_hse06_ddec_charge
 _atom_site_hse06_ddec_spin_density
 _atom_site_hse06_ddec_sum_bond_order
 _atom_site_hse06_magmom
 _atom_site_pbe_bader_spin_density
 _atom_site_pbe_cm5_charge
 _atom_site_pbe_ddec_charge
 _atom_site_pbe_ddec_spin_density
 _atom_site_pbe_ddec_sum_bond_order
 _atom_site_pbe_magmom
Na  Na0  1  0.62112194  0.00009082  0.24997048  1  0  0.867855  0  0.412995  0  0  0.812134  0  0.582135  0  0  0.822695  0  0.561458  0  0  0.57172  0.80446  0  0.596914  0
Na  Na1  1  0.37886339  0.99990485  0.75002523  1  0  0.867913  0  0.413009  0  0  0.812199  0  0.582147  0  0  0.822757  0  0.561482  0  0  0.571831  0.804524  0  0.596925  0
Na  Na2  1  0.86059428  0.99993999  0.75004404  1  0  0.886602  0  0.400194  0  0  0.836679  0  0.566634  0  0  0.847326  0  0.544771  0  0  0.583252  0.828882  0  0.582349  0
Na  Na3  1  0.13938770  0.00007866  0.24992253  1  0  0.886585  0  0.400194  0  0  0.836659  0  0.566664  0  0  0.847302  0  0.544804  0  0  0.583153  0.828861  0  0.582375  0
H  H4  1  0.64397486  0.42157371  0.72509210  1  0  0.167275  0  0.941059  0  0  0.174107  0  1.004168  0  0  0.178684  0  1.000987  0  0  0.119842  0.170782  0  1.0066  0
H  H5  1  0.22218671  0.57821540  0.77479212  1  0  0.166599  0  0.941866  0  0  0.173538  0  1.005011  0  0  0.178108  0  1.001817  0  0  0.119818  0.170218  0  1.007444  0
H  H6  1  0.35600621  0.57843231  0.27491050  1  0  0.167111  0  0.941315  0  0  0.174012  0  1.0044  0  0  0.178589  0  1.001221  0  0  0.119813  0.170688  0  1.006828  0
H  H7  1  0.77782576  0.42178330  0.22521040  1  0  0.166504  0  0.941892  0  0  0.173416  0  1.005052  0  0  0.177985  0  1.001862  0  0  0.119789  0.170102  0  1.007467  0
H  H8  1  0.90388658  0.52249554  0.70651227  1  0  0.175215  0  0.915869  0  0  0.186105  0  0.974983  0  0  0.190272  0  0.972568  0  0  0.125045  0.183066  0  0.976857  0
H  H9  1  0.38136797  0.47755617  0.79359813  1  0  0.175593  0  0.914822  0  0  0.186282  0  0.974313  0  0  0.19046  0  0.971863  0  0  0.125334  0.183222  0  0.976212  0
H  H10  1  0.09610038  0.47752225  0.29349522  1  0  0.175138  0  0.915885  0  0  0.186029  0  0.975072  0  0  0.190197  0  0.972658  0  0  0.124984  0.182996  0  0.976929  0
H  H11  1  0.61865199  0.52244401  0.20640599  1  0  0.175527  0  0.914925  0  0  0.186201  0  0.974442  0  0  0.190379  0  0.971995  0  0  0.125285  0.183139  0  0.97634  0
H  H12  1  0.75001747  0.08966372  0.48106008  1  0  0.325595  0  0.894628  0  0  0.300553  0  0.966959  0  0  0.310667  0  0.958528  0  0  0.292625  0.293339  0  0.973047  0
H  H13  1  0.66030249  0.91033529  0.01898158  1  0  0.326034  0  0.894627  0  0  0.301294  0  0.966711  0  0  0.311436  0  0.958198  0  0  0.292864  0.294082  0  0.972798  0
H  H14  1  0.24998618  0.91034968  0.51894765  1  0  0.325403  0  0.894823  0  0  0.300444  0  0.96706  0  0  0.310557  0  0.958628  0  0  0.292593  0.293234  0  0.973135  0
H  H15  1  0.33967565  0.08964598  0.98102981  1  0  0.32582  0  0.894674  0  0  0.301128  0  0.966706  0  0  0.311268  0  0.958206  0  0  0.292835  0.293916  0  0.972786  0
H  H16  1  0.75065620  0.60074549  0.45910862  1  0  0.331367  0  0.885004  0  0  0.308444  0  0.952985  0  0  0.317867  0  0.945702  0  0  0.290813  0.301749  0  0.958193  0
H  H17  1  0.14987876  0.39919492  0.04083885  1  0  0.330958  0  0.884801  0  0  0.307426  0  0.953373  0  0  0.316836  0  0.946133  0  0  0.290302  0.300741  0  0.958564  0
H  H18  1  0.24937539  0.39927525  0.54090063  1  0  0.331309  0  0.884748  0  0  0.308336  0  0.952781  0  0  0.317763  0  0.945496  0  0  0.290704  0.301643  0  0.957981  0
H  H19  1  0.85009814  0.60077580  0.95915123  1  0  0.331038  0  0.884508  0  0  0.30751  0  0.953131  0  0  0.316928  0  0.945873  0  0  0.290299  0.300819  0  0.958333  0
C  C20  1  0.75636066  0.34176446  0.45808164  1  0  0.777677  0  3.812988  0  0  0.706008  0  4.117941  0  0  0.741789  0  4.112991  0  0  0.354616  0.681724  0  4.12069  0
C  C21  1  0.41452957  0.65828353  0.04194661  1  0  0.777811  0  3.814977  0  0  0.706919  0  4.118466  0  0  0.742774  0  4.113378  0  0  0.355025  0.682571  0  4.12133  0
C  C22  1  0.24364077  0.65824451  0.54192273  1  0  0.778125  0  3.812501  0  0  0.706449  0  4.117466  0  0  0.742236  0  4.112511  0  0  0.354805  0.682135  0  4.120268  0
C  C23  1  0.58541598  0.34171080  0.95805686  1  0  0.778108  0  3.814534  0  0  0.706866  0  4.118592  0  0  0.742706  0  4.113534  0  0  0.355081  0.68255  0  4.121409  0
C  C24  1  0.72842263  0.56022422  0.60270845  1  0  0.678395  0  3.743164  0  0  0.6305  0  4.036114  0  0  0.660537  0  4.033221  0  0  0.261981  0.609993  0  4.03778  0
C  C25  1  0.16797163  0.43979208  0.89727237  1  0  0.675814  0  3.746473  0  0  0.630645  0  4.035016  0  0  0.660504  0  4.032398  0  0  0.262394  0.610134  0  4.036692  0
C  C26  1  0.27159514  0.43978776  0.39730200  1  0  0.678521  0  3.743235  0  0  0.630796  0  4.036004  0  0  0.660838  0  4.0331  0  0  0.262067  0.610277  0  4.037689  0
C  C27  1  0.83201581  0.56022398  0.10271694  1  0  0.675993  0  3.746448  0  0  0.630826  0  4.035003  0  0  0.660693  0  4.032381  0  0  0.262599  0.610288  0  4.036717  0
C  C28  1  0.74689925  0.43715183  0.66723646  1  0  -0.457381  0  3.687803  0  0  -0.489379  0  3.913919  0  0  -0.500754  0  3.916464  0  0  -0.155329  -0.481466  0  3.912217  0
C  C29  1  0.30952275  0.56277475  0.83275213  1  0  -0.455774  0  3.688578  0  0  -0.488894  0  3.913975  0  0  -0.50021  0  3.916552  0  0  -0.155746  -0.480966  0  3.912276  0
C  C30  1  0.25308979  0.56285125  0.33276581  1  0  -0.457075  0  3.68733  0  0  -0.489259  0  3.913425  0  0  -0.500632  0  3.915966  0  0  -0.15528  -0.481345  0  3.911724  0
C  C31  1  0.69048862  0.43722983  0.16725247  1  0  -0.455567  0  3.688239  0  0  -0.488606  0  3.913676  0  0  -0.499931  0  3.916258  0  0  -0.155711  -0.480667  0  3.911969  0
C  C32  1  0.71788252  0.24019557  0.61557436  1  0  0.687783  0  3.744775  0  0  0.640396  0  4.033288  0  0  0.671534  0  4.028941  0  0  0.26417  0.61899  0  4.036234  0
C  C33  1  0.47747621  0.75977290  0.88443726  1  0  0.687101  0  3.745918  0  0  0.640483  0  4.033647  0  0  0.6716  0  4.029269  0  0  0.264518  0.619097  0  4.036598  0
C  C34  1  0.28208982  0.75981186  0.38442480  1  0  0.687754  0  3.744262  0  0  0.640521  0  4.032669  0  0  0.671658  0  4.028319  0  0  0.264191  0.619103  0  4.03564  0
C  C35  1  0.52250196  0.24022733  0.11556974  1  0  0.68697  0  3.746161  0  0  0.640275  0  4.033972  0  0  0.671413  0  4.029581  0  0  0.2646  0.618888  0  4.036916  0
Br  Br36  1  0.94851724  0.15773908  0.12437657  1  0  -0.710773  0  0.69768  0  0  -0.664383  0  0.934093  0  0  -0.677989  0  0.913576  0  0  -0.332213  -0.653869  0  0.94855  0
Br  Br37  1  0.79048883  0.84234255  0.37548318  1  0  -0.711109  0  0.697668  0  0  -0.664688  0  0.933858  0  0  -0.678249  0  0.91332  0  0  -0.332431  -0.654182  0  0.948339  0
Br  Br38  1  0.05153633  0.84218001  0.87558554  1  0  -0.710771  0  0.697814  0  0  -0.664438  0  0.934297  0  0  -0.678049  0  0.913789  0  0  -0.33218  -0.653906  0  0.948744  0
Br  Br39  1  0.20949174  0.15768403  0.62452456  1  0  -0.71102  0  0.697637  0  0  -0.664645  0  0.93389  0  0  -0.678205  0  0.913347  0  0  -0.332424  -0.654144  0  0.948379  0
N  N40  1  0.74442117  0.21554881  0.51694632  1  0  -0.535271  0  3.232399  0  0  -0.472314  0  3.469914  0  0  -0.499497  0  3.471655  0  0  -0.379803  -0.45372  0  3.468519  0
N  N41  1  0.52874067  0.78445325  0.98308290  1  0  -0.535793  0  3.233543  0  0  -0.473948  0  3.470598  0  0  -0.501144  0  3.472247  0  0  -0.381098  -0.455356  0  3.469269  0
N  N42  1  0.25561060  0.78447769  0.48305637  1  0  -0.535252  0  3.232248  0  0  -0.472432  0  3.469704  0  0  -0.499614  0  3.47144  0  0  -0.379929  -0.453831  0  3.468325  0
N  N43  1  0.47125108  0.21554714  0.01693491  1  0  -0.535405  0  3.233629  0  0  -0.473454  0  3.470765  0  0  -0.500653  0  3.472434  0  0  -0.38098  -0.454871  0  3.469414  0
N  N44  1  0.74734857  0.50847591  0.50371661  1  0  -0.536074  0  3.226596  0  0  -0.471298  0  3.460609  0  0  -0.498711  0  3.463579  0  0  -0.383243  -0.452558  0  3.458283  0
N  N45  1  0.23886550  0.49144207  0.99625380  1  0  -0.53547  0  3.226293  0  0  -0.470687  0  3.458676  0  0  -0.497962  0  3.461447  0  0  -0.3829  -0.451994  0  3.456506  0
N  N46  1  0.25268706  0.49156371  0.49628248  1  0  -0.536394  0  3.226603  0  0  -0.471604  0  3.460629  0  0  -0.499037  0  3.463624  0  0  -0.383293  -0.452853  0  3.458313  0
N  N47  1  0.76110756  0.50853176  0.00374885  1  0  -0.5356  0  3.22639  0  0  -0.470808  0  3.459054  0  0  -0.498087  0  3.46184  0  0  -0.382928  -0.452121  0  3.4569  0
O  O48  1  0.77365815  0.30558449  0.36896060  1  0  -0.609541  0  1.922205  0  0  -0.568703  0  2.162577  0  0  -0.589231  0  2.152457  0  0  -0.329114  -0.554623  0  2.169334  0
O  O49  1  0.46802476  0.69446031  0.13107884  1  0  -0.609078  0  1.92317  0  0  -0.56852  0  2.163086  0  0  -0.589105  0  2.152954  0  0  -0.3287  -0.554392  0  2.169854  0
O  O50  1  0.22642147  0.69445680  0.63105236  1  0  -0.60973  0  1.922083  0  0  -0.568863  0  2.162427  0  0  -0.589384  0  2.152301  0  0  -0.32924  -0.554768  0  2.169197  0
O  O51  1  0.53197626  0.30547234  0.86890922  1  0  -0.609383  0  1.923  0  0  -0.56864  0  2.163115  0  0  -0.58921  0  2.152991  0  0  -0.328871  -0.554525  0  2.169854  0
O  O52  1  0.70340342  0.70311805  0.63461159  1  0  -0.56289  0  1.920039  0  0  -0.532911  0  2.158252  0  0  -0.550749  0  2.14925  0  0  -0.333474  -0.520758  0  2.164393  0
O  O53  1  0.00008057  0.29687131  0.86532127  1  0  -0.561594  0  1.921286  0  0  -0.532712  0  2.158047  0  0  -0.550509  0  2.149136  0  0  -0.333675  -0.520551  0  2.164197  0
O  O54  1  0.29658299  0.29688787  0.36538452  1  0  -0.562848  0  1.920294  0  0  -0.532935  0  2.158441  0  0  -0.550777  0  2.14943  0  0  -0.333357  -0.520771  0  2.16458  0
O  O55  1  0.99994301  0.70310376  0.13466642  1  0  -0.561789  0  1.921233  0  0  -0.532955  0  2.15808  0  0  -0.550764  0  2.149171  0  0  -0.333794  -0.520778  0  2.164241  0
O  O56  1  0.67743568  0.10624034  0.65859723  1  0  -0.608165  0  1.938573  0  0  -0.571168  0  2.181454  0  0  -0.589086  0  2.169835  0  0  -0.373095  -0.558962  0  2.189608  0
O  O57  1  0.57086056  0.89382032  0.84146248  1  0  -0.608768  0  1.940294  0  0  -0.571852  0  2.182627  0  0  -0.589852  0  2.17115  0  0  -0.37352  -0.559595  0  2.190673  0
O  O58  1  0.32252772  0.89376271  0.34140288  1  0  -0.608157  0  1.938446  0  0  -0.571165  0  2.181141  0  0  -0.589086  0  2.169519  0  0  -0.373014  -0.558946  0  2.189294  0
O  O59  1  0.42917051  0.10616972  0.15854844  1  0  -0.60882  0  1.940349  0  0  -0.571925  0  2.182887  0  0  -0.589882  0  2.171275  0  0  -0.373608  -0.559692  0  2.190989  0
