# generated using pymatgen
data_Hf3H16C45(Br5O4)4
_symmetry_space_group_name_H-M   'P 1'
_cell_length_a   11.59455294
_cell_length_b   20.49027243
_cell_length_c   34.67161883
_cell_angle_alpha   91.06141674
_cell_angle_beta   99.47935031
_cell_angle_gamma   90.19627102
_symmetry_Int_Tables_number   1
_chemical_formula_structural   Hf3H16C45(Br5O4)4
_chemical_formula_sum   'Hf6 H32 C90 Br40 O32'
_cell_volume   8123.08178776
_cell_formula_units_Z   2
loop_
 _symmetry_equiv_pos_site_id
 _symmetry_equiv_pos_as_xyz
  1  'x, y, z'
loop_
 _atom_site_type_symbol
 _atom_site_label
 _atom_site_symmetry_multiplicity
 _atom_site_fract_x
 _atom_site_fract_y
 _atom_site_fract_z
 _atom_site_occupancy
 _atom_site_pbe_bader_charge
 _atom_site_pbe_bader_spin_density
 _atom_site_pbe_cm5_charge
 _atom_site_pbe_ddec_charge
 _atom_site_pbe_ddec_spin_density
 _atom_site_pbe_ddec_sum_bond_order
 _atom_site_pbe_magmom
Hf  Hf0  1  0.05641712  0.89931242  0.04240576  1  2.604074  0  1.453175  2.123271  0  3.345267  0
Hf  Hf1  1  0.01457440  0.08957341  0.96272899  1  2.598435  0  1.447162  2.107584  0  3.330575  0
Hf  Hf2  1  0.91522217  0.04842168  0.04873627  1  2.608162  0  1.43362  2.15837  0  3.352567  0
Hf  Hf3  1  0.16346061  0.94256688  0.95745676  1  2.610962  0  1.441994  2.165942  0  3.297361  0
Hf  Hf4  1  0.85502146  0.94267750  0.96071473  1  2.604167  0  1.40038  2.159695  0  3.308606  0
Hf  Hf5  1  0.22437778  0.04439101  0.04173318  1  2.610244  0  1.428367  2.164099  0  3.301571  0
H  H6  1  0.00774887  0.83764783  0.96922425  1  0.617846  0  0.325903  0.410686  0  0.871636  0
H  H7  1  0.77918509  0.06940375  0.96581021  1  0.633687  0  0.334541  0.429911  0  0.843681  0
H  H8  1  0.25497728  0.06915790  0.96282935  1  0.6134  0  0.32894  0.417069  0  0.866087  0
H  H9  1  0.11133629  0.99587762  0.10302750  1  0.58767  0  0.325132  0.405121  0  0.884316  0
H  H10  1  0.65985094  0.91696119  0.99444742  1  0.629259  0  0.325609  0.405968  0  0.876601  0
H  H11  1  0.96820310  0.08944293  0.12332759  1  0.584462  0  0.300208  0.387438  0  0.916435  0
H  H12  1  0.25575398  0.10316433  0.11363554  1  0.590824  0  0.321324  0.398512  0  0.888138  0
H  H13  1  0.82219468  0.87603875  0.89289698  1  0.590214  0  0.292248  0.381574  0  0.925  0
H  H14  1  0.12494889  0.83052353  0.91355335  1  0.614716  0  0.294182  0.375141  0  0.949893  0
H  H15  1  0.38277113  0.95899766  0.93796935  1  0.610942  0  0.316464  0.417381  0  0.868749  0
H  H16  1  0.38758374  0.99543096  0.99595630  1  0.653212  0  0.289777  0.404641  0  0.934442  0
H  H17  1  0.77007948  0.98938449  0.89092124  1  0.561835  0  0.272065  0.361962  0  0.963327  0
H  H18  1  0.86909097  0.17898300  0.92092951  1  0.642184  0  0.321491  0.407211  0  0.899433  0
H  H19  1  0.23468069  0.83271711  0.09135970  1  0.632591  0  0.297438  0.378906  0  0.950702  0
H  H20  1  0.33133453  0.98100696  0.10597566  1  0.563766  0  0.284623  0.386036  0  0.925225  0
H  H21  1  0.99761845  0.87183838  0.90848783  1  0.628371  0  0.276504  0.403392  0  0.946358  0
H  H22  1  0.93500989  0.13846571  0.89109426  1  0.645961  0  0.328013  0.416564  0  0.880724  0
H  H23  1  0.68936379  0.08040154  0.03734434  1  0.59575  0  0.276394  0.363559  0  0.970889  0
H  H24  1  0.69760370  0.99103575  0.00898219  1  0.648888  0  0.287971  0.402538  0  0.938884  0
H  H25  1  0.43803628  0.00563559  0.04287027  1  0.631333  0  0.314066  0.408977  0  0.885608  0
H  H26  1  0.11317866  0.11306556  0.09777118  1  0.655187  0  0.284923  0.40903  0  0.93211  0
H  H27  1  0.14152026  0.85451202  0.11819404  1  0.61759  0  0.288361  0.367315  0  0.972514  0
H  H28  1  0.31883396  0.49230820  0.99930601  1  0.061153  0  0.094149  0.110681  0  1.018005  0
H  H29  1  0.74925039  0.49623859  0.02101208  1  0.12093  0  0.096362  0.114764  0  1.008705  0
H  H30  1  0.65397840  0.94054242  0.27501855  1  0.104347  0  0.097989  0.113772  0  1.008941  0
H  H31  1  0.87589626  0.98167865  0.38478780  1  0.053494  0  0.103083  0.117216  0  0.982266  0
H  H32  1  0.02937459  0.94556888  0.28213464  1  0.084288  0  0.098556  0.111891  0  1.001112  0
H  H33  1  0.24872402  0.06493421  0.71097909  1  0.063136  0  0.099231  0.114516  0  1.002597  0
H  H34  1  0.01966143  0.05555431  0.60014901  1  0.033793  0  0.101429  0.114625  0  0.987159  0
H  H35  1  0.87450419  0.05917558  0.70632474  1  0.08696  0  0.101297  0.11696  0  0.99345  0
H  H36  1  0.24068617  0.02146280  0.49610187  1  0.06353  0  0.098953  0.115033  0  0.993875  0
H  H37  1  0.66000608  0.01945192  0.48793741  1  0.050021  0  0.098799  0.114195  0  0.994299  0
C  C38  1  0.84118415  0.80439239  0.00947059  1  1.618768  0  0.23319  0.638344  0  4.100117  0
C  C39  1  0.22806770  0.80381864  0.00233817  1  1.637708  0  0.227078  0.629073  0  4.157284  0
C  C40  1  0.90677870  0.93204054  0.11237664  1  1.617837  0  0.230296  0.632902  0  4.111962  0
C  C41  1  0.86097121  0.19026819  0.00908572  1  1.617733  0  0.231121  0.635836  0  4.118881  0
C  C42  1  0.22641847  0.18366215  0.00005493  1  1.629228  0  0.231504  0.63351  0  4.156817  0
C  C43  1  0.12077891  0.04535588  0.88410496  1  1.638197  0  0.229114  0.637668  0  4.145626  0
C  C44  1  0.47113763  0.55349600  0.00723178  1  -0.062736  0  -0.017453  0.036414  0  3.976308  0
C  C45  1  0.59492987  0.55432479  0.01298682  1  0.075122  0  -0.01625  0.044014  0  3.978296  0
C  C46  1  0.65419086  0.49517297  0.01611599  1  -0.055102  0  -0.096827  -0.161975  0  3.981687  0
C  C47  1  0.59705110  0.43463930  0.01222465  1  0.082969  0  -0.01341  0.044788  0  3.954782  0
C  C48  1  0.47299297  0.43352213  0.00592393  1  -0.048468  0  -0.014039  0.04518  0  3.954518  0
C  C49  1  0.41387390  0.49312724  0.00383312  1  0.037566  0  -0.096677  -0.160701  0  3.97697  0
C  C50  1  0.84039170  0.94119417  0.27393298  1  0.003433  0  -0.018585  0.084745  0  3.998378  0
C  C51  1  0.74096615  0.94762636  0.29193404  1  -0.055556  0  -0.091489  -0.167173  0  3.940534  0
C  C52  1  0.75414352  0.96419459  0.33166615  1  0.049058  0  -0.020333  0.086968  0  4.043847  0
C  C53  1  0.86610894  0.97009169  0.35358971  1  -0.01051  0  -0.091411  -0.169667  0  3.956839  0
C  C54  1  0.96556845  0.96206122  0.33633105  1  -0.024345  0  -0.022842  0.082566  0  4.063313  0
C  C55  1  0.95240234  0.94944692  0.29626662  1  0.005396  0  -0.090904  -0.165404  0  3.948072  0
C  C56  1  0.06336175  0.06232287  0.71322181  1  0.020081  0  -0.018354  0.086171  0  4.009296  0
C  C57  1  0.16086544  0.06387337  0.69404094  1  -0.032151  0  -0.090039  -0.166802  0  3.944845  0
C  C58  1  0.14494084  0.06311746  0.65325306  1  0.037044  0  -0.021931  0.084648  0  4.04084  0
C  C59  1  0.03187368  0.05847527  0.63199686  1  0.015758  0  -0.09327  -0.171979  0  3.95845  0
C  C60  1  0.93439567  0.05620223  0.65066755  1  0.028467  0  -0.02346  0.08146  0  4.058119  0
C  C61  1  0.95006751  0.05989818  0.69138387  1  -0.037603  0  -0.091017  -0.166273  0  3.944008  0
C  C62  1  0.36665414  0.00856940  0.45789693  1  0.084001  0  -0.016631  0.041968  0  3.987722  0
C  C63  1  0.48679673  0.00957984  0.45544816  1  0.052017  0  -0.017531  0.038705  0  3.983839  0
C  C64  1  0.56715179  0.01988168  0.48978702  1  0.023799  0  -0.095691  -0.162074  0  3.977547  0
C  C65  1  0.53417944  0.02987971  0.52643080  1  -0.013892  0  -0.015465  0.042928  0  3.98217  0
C  C66  1  0.41386685  0.03208321  0.52851840  1  0.044002  0  -0.016033  0.04135  0  3.985449  0
C  C67  1  0.33356596  0.02097349  0.49426464  1  -0.065108  0  -0.096322  -0.164056  0  3.982562  0
C  C68  1  0.74810361  0.10094610  0.61295180  1  -0.080474  0  -0.022881  0.025469  0  3.941717  0
C  C69  1  0.82080885  0.04767204  0.62402807  1  0.086728  0  -0.012529  0.006855  0  3.968906  0
C  C70  1  0.79559994  0.98783938  0.60367025  1  -0.023382  0  -0.022827  0.021117  0  3.933714  0
C  C71  1  0.70409663  0.98235142  0.57182425  1  -0.064886  0  -0.0252  0.014856  0  3.939944  0
C  C72  1  0.62974661  0.03574053  0.56084315  1  0.057777  0  -0.016395  0.000751  0  3.969773  0
C  C73  1  0.65487466  0.09525163  0.58163423  1  -0.025339  0  -0.023908  0.022368  0  3.935437  0
C  C74  1  0.24017706  0.11130598  0.60073058  1  -0.040502  0  -0.023468  0.020378  0  3.935703  0
C  C75  1  0.23785359  0.06198191  0.62841833  1  0.072656  0  -0.011813  0.007412  0  3.961355  0
C  C76  1  0.30509335  0.00588761  0.62521051  1  -0.043598  0  -0.022693  0.023887  0  3.936557  0
C  C77  1  0.36643270  0.99747977  0.59380799  1  -0.062288  0  -0.023441  0.02393  0  3.930939  0
C  C78  1  0.36296509  0.04482812  0.56467889  1  0.057098  0  -0.0165  -0.000162  0  3.97482  0
C  C79  1  0.29695294  0.10172966  0.56840685  1  -0.054919  0  -0.025525  0.014725  0  3.9394  0
C  C80  1  0.14614429  0.02672771  0.36389190  1  -0.009243  0  -0.022692  0.026478  0  3.936016  0
C  C81  1  0.07884180  0.96955578  0.36312464  1  0.066657  0  -0.012942  0.005927  0  3.971214  0
C  C82  1  0.10989847  0.92419047  0.39302918  1  -0.051702  0  -0.023358  0.020136  0  3.935267  0
C  C83  1  0.20147229  0.93722558  0.42404315  1  -0.05447  0  -0.024276  0.016036  0  3.938909  0
C  C84  1  0.27101867  0.99409992  0.42448100  1  0.082374  0  -0.015711  0.001086  0  3.971226  0
C  C85  1  0.24029881  0.03889740  0.39417978  1  -0.077185  0  -0.024406  0.021637  0  3.937155  0
C  C86  1  0.65270585  0.04047801  0.37137651  1  -0.087344  0  -0.022928  0.020485  0  3.938772  0
C  C87  1  0.65996963  0.97735750  0.35510979  1  0.088754  0  -0.015062  0.000896  0  3.971106  0
C  C88  1  0.59866593  0.92652685  0.36937812  1  -0.002666  0  -0.022492  0.027318  0  3.941103  0
C  C89  1  0.53815648  0.93750391  0.40076873  1  -0.080014  0  -0.024522  0.021603  0  3.929943  0
C  C90  1  0.53690929  0.99968396  0.41884352  1  0.093229  0  -0.01623  -0.000518  0  3.969463  0
C  C91  1  0.59707928  0.05101442  0.40387908  1  -0.067141  0  -0.024408  0.01737  0  3.939283  0
C  C92  1  0.31686867  0.63182324  0.97349715  1  -0.008677  0  -0.019063  0.021871  0  3.914861  0
C  C93  1  0.40166914  0.61474486  0.00581458  1  0.067013  0  -0.010734  0.009379  0  3.948799  0
C  C94  1  0.41726214  0.65803457  0.03848943  1  -0.048398  0  -0.020778  0.019771  0  3.933364  0
C  C95  1  0.36946469  0.72075953  0.03595602  1  -0.027106  0  -0.018747  0.048741  0  3.931699  0
C  C96  1  0.28770094  0.73809348  0.00349958  1  0.09016  0  -0.015992  -0.087002  0  3.936897  0
C  C97  1  0.25709867  0.69140166  0.97341479  1  -0.081763  0  -0.018449  0.045577  0  3.919018  0
C  C98  1  0.71484303  0.26413812  0.03646016  1  0.012525  0  -0.014117  0.055338  0  3.898008  0
C  C99  1  0.79809902  0.25505520  0.01117245  1  0.066151  0  -0.021542  -0.114884  0  3.886515  0
C  C100  1  0.82014978  0.30902301  0.98828532  1  -0.049367  0  -0.020471  0.045487  0  3.915148  0
C  C101  1  0.75248727  0.36599761  0.98756472  1  -0.043378  0  -0.027474  0.009122  0  3.918278  0
C  C102  1  0.67113182  0.37519448  0.01336680  1  0.066861  0  -0.014911  0.008193  0  3.974797  0
C  C103  1  0.66315942  0.32541384  0.04018081  1  -0.103063  0  -0.023915  0.015256  0  3.92744  0
C  C104  1  0.32190091  0.35930022  0.02824587  1  -0.041536  0  -0.023045  0.0166  0  3.926004  0
C  C105  1  0.40235952  0.37215702  0.00260157  1  0.097892  0  -0.018887  -0.005288  0  3.967585  0
C  C106  1  0.41535906  0.32356076  0.97427746  1  -0.054177  0  -0.024469  0.018145  0  3.936168  0
C  C107  1  0.36544796  0.26147564  0.97568200  1  -0.035623  0  -0.023429  0.04045  0  3.959371  0
C  C108  1  0.28526139  0.24974102  0.00069259  1  0.096048  0  -0.018219  -0.094034  0  3.968549  0
C  C109  1  0.26080063  0.29968453  0.02620061  1  -0.053642  0  -0.022631  0.035377  0  3.961329  0
C  C110  1  0.73757916  0.64104434  0.04610840  1  -0.092103  0  -0.02544  0.015889  0  3.926645  0
C  C111  1  0.66480344  0.61548064  0.01274882  1  0.166324  0  -0.014489  0.006392  0  3.973835  0
C  C112  1  0.66532618  0.64805991  0.97729051  1  -0.092681  0  -0.025664  0.015769  0  3.921151  0
C  C113  1  0.72825350  0.70631327  0.97589328  1  -0.043018  0  -0.020212  0.049319  0  3.939326  0
C  C114  1  0.78330041  0.73783577  0.01073629  1  0.051471  0  -0.021885  -0.108854  0  3.89386  0
C  C115  1  0.78725133  0.70377505  0.04597420  1  0.001932  0  -0.020323  0.051155  0  3.92469  0
C  C116  1  0.03388090  0.00745775  0.81547236  1  -0.021856  0  -0.021543  0.03738  0  3.962518  0
C  C117  1  0.10586405  0.05180537  0.83979714  1  0.022828  0  -0.022227  -0.101745  0  3.934488  0
C  C118  1  0.16103012  0.10145650  0.82211030  1  -0.006232  0  -0.026009  0.042244  0  3.954237  0
C  C119  1  0.14340585  0.10692923  0.78122948  1  -0.077231  0  -0.022184  0.022195  0  3.916011  0
C  C120  1  0.07866626  0.05947643  0.75657652  1  0.074348  0  -0.011849  0.004729  0  3.956608  0
C  C121  1  0.02684830  0.00846127  0.77471849  1  -0.037701  0  -0.021148  0.020645  0  3.919168  0
C  C122  1  0.90485597  0.87846158  0.21845506  1  -0.051281  0  -0.025148  0.010029  0  3.919479  0
C  C123  1  0.83444743  0.92773266  0.23140372  1  0.077276  0  -0.008088  0.017307  0  3.947821  0
C  C124  1  0.76694399  0.96487496  0.20221146  1  -0.039608  0  -0.021983  0.016162  0  3.91372  0
C  C125  1  0.77432952  0.95527318  0.16246113  1  -0.029909  0  -0.016378  0.048294  0  3.934085  0
C  C126  1  0.86674014  0.91792129  0.15119782  1  0.07568  0  -0.025178  -0.117933  0  3.900537  0
C  C127  1  0.92749347  0.87705632  0.17984366  1  -0.066293  0  -0.020656  0.045755  0  3.914804  0
Br  Br128  1  0.57044521  0.17052441  0.56376364  1  -0.014252  0  0.040442  -0.033255  0  1.644199  0
Br  Br129  1  0.78425806  0.18207377  0.63940525  1  -0.020141  0  0.034493  -0.035595  0  1.467798  0
Br  Br130  1  0.68597598  0.90316750  0.54195837  1  -0.022411  0  0.037025  -0.033247  0  1.601968  0
Br  Br131  1  0.89055054  0.91484710  0.61989999  1  -0.021073  0  0.03578  -0.034564  0  1.508846  0
Br  Br132  1  0.27440575  0.16339969  0.52760955  1  -0.016489  0  0.035814  -0.03347  0  1.595514  0
Br  Br133  1  0.16063717  0.19050189  0.60743582  1  -0.021786  0  0.034271  -0.039142  0  1.491228  0
Br  Br134  1  0.44087103  0.91709395  0.58715142  1  -0.012357  0  0.042068  -0.032266  0  1.653407  0
Br  Br135  1  0.30226384  0.93846424  0.66177763  1  -0.016581  0  0.039654  -0.031522  0  1.484487  0
Br  Br136  1  0.31836452  0.12033381  0.39729400  1  -0.011813  0  0.042145  -0.031279  0  1.649308  0
Br  Br137  1  0.10152499  0.08975806  0.32491871  1  -0.025954  0  0.034318  -0.037134  0  1.475832  0
Br  Br138  1  0.22530311  0.87970768  0.46695975  1  -0.015502  0  0.039927  -0.029068  0  1.598971  0
Br  Br139  1  0.02349993  0.84491125  0.39067908  1  -0.024455  0  0.034717  -0.037497  0  1.49489  0
Br  Br140  1  0.61486672  0.13348994  0.43020175  1  -0.020693  0  0.038439  -0.029868  0  1.592856  0
Br  Br141  1  0.72500192  0.11060650  0.34919938  1  -0.020967  0  0.034504  -0.038377  0  1.498645  0
Br  Br142  1  0.47152378  0.86587570  0.42291364  1  -0.009261  0  0.04243  -0.030763  0  1.653606  0
Br  Br143  1  0.60940785  0.84134483  0.34796634  1  -0.026089  0  0.033075  -0.038266  0  1.466886  0
Br  Br144  1  0.12666063  0.70793983  0.93375300  1  -0.024036  0  0.066987  -0.018791  0  1.542766  0
Br  Br145  1  0.27915811  0.57331173  0.93016089  1  -0.009484  0  0.048035  -0.024346  0  1.55428  0
Br  Br146  1  0.42004912  0.78343585  0.07655792  1  -0.027881  0  0.068672  -0.015939  0  1.532586  0
Br  Br147  1  0.49040660  0.62798561  0.08762826  1  -0.005068  0  0.049571  -0.026215  0  1.650191  0
Br  Br148  1  0.58725033  0.34426290  0.08349409  1  -0.008123  0  0.048036  -0.028751  0  1.616952  0
Br  Br149  1  0.65770132  0.19586398  0.06473237  1  0.020505  0  0.082549  0.011755  0  1.619474  0
Br  Br150  1  0.76731941  0.43065084  0.94990455  1  -0.018497  0  0.03665  -0.039935  0  1.626079  0
Br  Br151  1  0.94330257  0.30890126  0.95815857  1  -0.004687  0  0.047924  -0.020363  0  1.641111  0
Br  Br152  1  0.14853802  0.28211906  0.05862199  1  0.01083  0  0.06645  0.017835  0  1.534189  0
Br  Br153  1  0.29844140  0.42109411  0.06771372  1  -0.024868  0  0.038364  -0.038929  0  1.561308  0
Br  Br154  1  0.40979022  0.19080381  0.94533147  1  -0.017686  0  0.060103  0.001978  0  1.610261  0
Br  Br155  1  0.49141785  0.34377483  0.93162129  1  -0.014471  0  0.044666  -0.031146  0  1.605799  0
Br  Br156  1  0.85438554  0.74183637  0.09467087  1  0.003448  0  0.028378  -0.042135  0  1.723427  0
Br  Br157  1  0.77707545  0.58805746  0.09075325  1  -0.026545  0  0.032255  -0.040363  0  1.586826  0
Br  Br158  1  0.74791619  0.73834112  0.92657005  1  0.004025  0  0.045824  -0.01748  0  1.606441  0
Br  Br159  1  0.58782718  0.60774050  0.93044645  1  -0.018611  0  0.040009  -0.036636  0  1.622614  0
Br  Br160  1  0.95196939  0.93743936  0.74428422  1  -0.023908  0  0.036765  -0.049338  0  1.52364  0
Br  Br161  1  0.94062245  0.94877939  0.83856516  1  -0.004138  0  0.075833  0.003564  0  1.667098  0
Br  Br162  1  0.20334713  0.18122239  0.75892829  1  -0.025491  0  0.032857  -0.043101  0  1.47713  0
Br  Br163  1  0.25931310  0.16093881  0.85483170  1  -0.012083  0  0.022627  -0.053073  0  1.635739  0
Br  Br164  1  0.04577551  0.81769529  0.16919771  1  -0.025685  0  0.071065  -0.004491  0  1.675759  0
Br  Br165  1  0.96567392  0.81252642  0.25400466  1  -0.020037  0  0.037767  -0.041766  0  1.509532  0
Br  Br166  1  0.65566846  0.98970218  0.12446067  1  0.040021  0  0.067743  0.016775  0  1.628355  0
Br  Br167  1  0.66998890  0.03287023  0.21648924  1  -0.018764  0  0.04274  -0.038528  0  1.503538  0
O  O168  1  0.18632316  0.86916581  0.09812430  1  -1.239241  0  -0.576464  -0.73939  0  2.15387  0
O  O169  1  0.93896644  0.81300875  0.03183882  1  -1.175308  0  -0.340313  -0.568204  0  2.374263  0
O  O170  1  0.96351580  0.88957893  0.09616410  1  -1.182693  0  -0.332909  -0.590259  0  2.396887  0
O  O171  1  0.23897908  0.84042045  0.97437371  1  -1.169184  0  -0.312233  -0.559353  0  2.336513  0
O  O172  1  0.88618177  0.98949490  0.10052442  1  -1.179607  0  -0.326993  -0.573585  0  2.43018  0
O  O173  1  0.17089575  0.81503784  0.03008707  1  -1.184773  0  -0.340093  -0.593201  0  2.365129  0
O  O174  1  0.79016794  0.84592650  0.98599504  1  -1.190333  0  -0.316445  -0.582782  0  2.328591  0
O  O175  1  0.92128552  0.95661537  0.02284545  1  -1.220917  0  -0.750677  -1.073788  0  2.165252  0
O  O176  1  0.01930146  0.88228299  0.97907648  1  -1.251573  0  -0.664262  -0.964516  0  2.374499  0
O  O177  1  0.09866882  0.99204031  0.07475733  1  -1.244806  0  -0.646296  -0.978037  0  2.297521  0
O  O178  1  0.17904437  0.95155265  0.01760427  1  -1.212699  0  -0.740884  -1.048327  0  2.095947  0
O  O179  1  0.34160295  0.95232002  0.95975149  1  -1.244549  0  -0.651423  -0.914659  0  1.93947  0
O  O180  1  0.68495364  0.95842048  0.98524461  1  -1.2604  0  -0.591419  -0.761632  0  2.061263  0
O  O181  1  0.00338969  0.99218639  0.94787459  1  -1.22405  0  -0.741562  -1.057762  0  2.121022  0
O  O182  1  0.85312715  0.05134373  0.97832028  1  -1.268122  0  -0.643988  -0.958637  0  2.246936  0
O  O183  1  0.05315869  0.07754077  0.02108094  1  -1.218232  0  -0.750197  -1.050193  0  2.135199  0
O  O184  1  0.19380816  0.04819016  0.97435620  1  -1.240281  0  -0.658942  -0.980151  0  2.360232  0
O  O185  1  0.73492539  0.04062541  0.04149303  1  -1.231986  0  -0.651863  -0.898557  0  2.02459  0
O  O186  1  0.86131517  0.15191133  0.03708722  1  -1.170697  0  -0.327247  -0.564347  0  2.446122  0
O  O187  1  0.90797131  0.17803794  0.97912629  1  -1.192994  0  -0.334809  -0.601355  0  2.444772  0
O  O188  1  0.34702485  0.01268879  0.08707484  1  -1.23639  0  -0.685548  -0.96564  0  1.861433  0
O  O189  1  0.13712435  0.17427508  0.97373301  1  -1.170044  0  -0.338194  -0.581377  0  2.326986  0
O  O190  1  0.98951613  0.10295358  0.09877539  1  -1.226813  0  -0.643583  -0.890704  0  1.975626  0
O  O191  1  0.19882024  0.11447617  0.09094474  1  -1.235207  0  -0.59752  -0.797354  0  2.116791  0
O  O192  1  0.39677356  0.02744916  0.01975277  1  -1.266016  0  -0.598625  -0.779702  0  2.068159  0
O  O193  1  0.27344405  0.14405221  0.02532142  1  -1.163459  0  -0.322148  -0.547622  0  2.326047  0
O  O194  1  0.88518787  0.13520505  0.91131397  1  -1.242814  0  -0.571974  -0.742314  0  2.071847  0
O  O195  1  0.09348239  0.87446004  0.90944931  1  -1.241374  0  -0.611659  -0.807571  0  2.137221  0
O  O196  1  0.07580923  0.09074650  0.90256181  1  -1.19196  0  -0.335323  -0.611098  0  2.34096  0
O  O197  1  0.17374154  0.99594948  0.89882007  1  -1.172799  0  -0.308006  -0.550985  0  2.284415  0
O  O198  1  0.88440491  0.87366889  0.91526720  1  -1.247869  0  -0.633531  -0.902084  0  2.093854  0
O  O199  1  0.74427157  0.97884381  0.91532680  1  -1.213832  0  -0.699421  -0.937638  0  1.858977  0
