# generated using pymatgen
data_ZnH12C8S2(NO2)2
_symmetry_space_group_name_H-M   'P 1'
_cell_length_a   5.35580255
_cell_length_b   9.68672406
_cell_length_c   10.94534904
_cell_angle_alpha   91.47948004
_cell_angle_beta   90.00000401
_cell_angle_gamma   89.99951105
_symmetry_Int_Tables_number   1
_chemical_formula_structural   ZnH12C8S2(NO2)2
_chemical_formula_sum   'Zn2 H24 C16 S4 N4 O8'
_cell_volume   567.65739493
_cell_formula_units_Z   2
loop_
 _symmetry_equiv_pos_site_id
 _symmetry_equiv_pos_as_xyz
  1  'x, y, z'
loop_
 _atom_site_type_symbol
 _atom_site_label
 _atom_site_symmetry_multiplicity
 _atom_site_fract_x
 _atom_site_fract_y
 _atom_site_fract_z
 _atom_site_occupancy
 _atom_site_hle17_bader_spin_density
 _atom_site_hle17_ddec_charge
 _atom_site_hle17_ddec_spin_density
 _atom_site_hle17_ddec_sum_bond_order
 _atom_site_hle17_magmom
 _atom_site_hse06_10hf_bader_spin_density
 _atom_site_hse06_10hf_ddec_charge
 _atom_site_hse06_10hf_ddec_spin_density
 _atom_site_hse06_10hf_ddec_sum_bond_order
 _atom_site_hse06_10hf_magmom
 _atom_site_hse06_bader_spin_density
 _atom_site_hse06_ddec_charge
 _atom_site_hse06_ddec_spin_density
 _atom_site_hse06_ddec_sum_bond_order
 _atom_site_hse06_magmom
 _atom_site_pbe_bader_spin_density
 _atom_site_pbe_cm5_charge
 _atom_site_pbe_ddec_charge
 _atom_site_pbe_ddec_spin_density
 _atom_site_pbe_ddec_sum_bond_order
 _atom_site_pbe_magmom
Zn  Zn0  1  0.08941111  0.96412932  0.69894961  1  0  1.014683  0  1.780509  0  0  0.832572  0  2.226429  0  0  0.878601  0  2.175251  0  0  0.689586  0.801343  0  2.260542  0
Zn  Zn1  1  0.58942953  0.03585968  0.30104798  1  0  1.014599  0  1.780539  0  0  0.832527  0  2.226382  0  0  0.878554  0  2.175197  0  0  0.689579  0.801298  0  2.260523  0
H  H2  1  0.88682788  0.16381383  0.80673798  1  0  0.283487  0  0.937776  0  0  0.270816  0  0.99734  0  0  0.278529  0  0.99114  0  0  0.294058  0.265665  0  1.001613  0
H  H3  1  0.38685918  0.83618667  0.19325863  1  0  0.283355  0  0.937933  0  0  0.270783  0  0.99738  0  0  0.278489  0  0.991183  0  0  0.29401  0.265628  0  1.00166  0
H  H4  1  0.68730592  0.89415313  0.82419540  1  0  0.280428  0  0.920644  0  0  0.265592  0  0.981643  0  0  0.272869  0  0.976632  0  0  0.293897  0.260357  0  0.985294  0
H  H5  1  0.18731677  0.10585067  0.17580813  1  0  0.280457  0  0.920543  0  0  0.265608  0  0.981551  0  0  0.272889  0  0.976538  0  0  0.293908  0.260378  0  0.985208  0
H  H6  1  0.86556680  0.85570605  0.99583980  1  0  0.089573  0  0.933313  0  0  0.09513  0  1.001371  0  0  0.097616  0  1.000093  0  0  0.115641  0.093365  0  1.002529  0
H  H7  1  0.36556454  0.14429151  0.00415935  1  0  0.089592  0  0.933208  0  0  0.095108  0  1.00133  0  0  0.097595  0  1.000054  0  0  0.115646  0.093347  0  1.002485  0
H  H8  1  0.94151558  0.68026212  0.67796195  1  0  0.08053  0  0.943189  0  0  0.092385  0  1.011787  0  0  0.093628  0  1.011077  0  0  0.101114  0.091085  0  1.01324  0
H  H9  1  0.44153697  0.31973411  0.32203604  1  0  0.080479  0  0.943119  0  0  0.092287  0  1.011775  0  0  0.093529  0  1.011055  0  0  0.101119  0.090992  0  1.013222  0
H  H10  1  0.61790621  0.73007274  0.68136220  1  0  0.107506  0  0.943776  0  0  0.122038  0  1.004552  0  0  0.123563  0  1.004224  0  0  0.112726  0.120849  0  1.005031  0
H  H11  1  0.11793429  0.26992978  0.31865035  1  0  0.107534  0  0.943736  0  0  0.121974  0  1.004618  0  0  0.123497  0  1.004284  0  0  0.11268  0.12079  0  1.0051  0
H  H12  1  0.99688889  0.62362234  0.02741639  1  0  0.094537  0  0.971135  0  0  0.109186  0  1.03887  0  0  0.110066  0  1.039389  0  0  0.093119  0.108296  0  1.039082  0
H  H13  1  0.49688657  0.37638095  0.97258248  1  0  0.094583  0  0.971103  0  0  0.109215  0  1.038863  0  0  0.110104  0  1.039355  0  0  0.093127  0.108328  0  1.039076  0
H  H14  1  0.17272076  0.61502364  0.88956825  1  0  0.083021  0  0.961016  0  0  0.092284  0  1.035934  0  0  0.093816  0  1.035687  0  0  0.086522  0.091237  0  1.035925  0
H  H15  1  0.67272983  0.38497798  0.11043210  1  0  0.082999  0  0.960999  0  0  0.092308  0  1.035871  0  0  0.09382  0  1.035639  0  0  0.086531  0.091264  0  1.035864  0
H  H16  1  0.64912480  0.22986407  0.65305802  1  0  0.067119  0  0.953334  0  0  0.080028  0  1.015079  0  0  0.081242  0  1.014583  0  0  0.11077  0.079002  0  1.015841  0
H  H17  1  0.14915638  0.77012669  0.34693460  1  0  0.067232  0  0.953297  0  0  0.080075  0  1.015098  0  0  0.081288  0  1.0146  0  0  0.110783  0.079046  0  1.015877  0
H  H18  1  0.82281782  0.44749197  0.64294372  1  0  0.07349  0  1.006109  0  0  0.08129  0  1.084335  0  0  0.082674  0  1.084569  0  0  0.079674  0.080197  0  1.084396  0
H  H19  1  0.32287722  0.55250048  0.35707424  1  0  0.07348  0  1.005908  0  0  0.081199  0  1.084299  0  0  0.082583  0  1.084535  0  0  0.079645  0.080104  0  1.084364  0
H  H20  1  0.91422486  0.38478936  0.49388128  1  0  0.10637  0  0.962325  0  0  0.119327  0  1.028926  0  0  0.121146  0  1.028202  0  0  0.097255  0.117736  0  1.029991  0
H  H21  1  0.41428685  0.61522469  0.50613217  1  0  0.106209  0  0.962367  0  0  0.119239  0  1.028995  0  0  0.121065  0  1.028268  0  0  0.097216  0.117631  0  1.030072  0
H  H22  1  0.36326472  0.22213437  0.79541094  1  0  0.086369  0  0.93025  0  0  0.102458  0  0.991803  0  0  0.103505  0  0.990803  0  0  0.108565  0.101452  0  0.992953  0
H  H23  1  0.86327908  0.77786359  0.20457551  1  0  0.086362  0  0.930256  0  0  0.102424  0  0.991773  0  0  0.103469  0  0.990777  0  0  0.108523  0.101421  0  0.992931  0
H  H24  1  0.12252216  0.33920343  0.84502259  1  0  0.076551  0  0.941481  0  0  0.087033  0  1.012351  0  0  0.088292  0  1.011931  0  0  0.099165  0.086183  0  1.012648  0
H  H25  1  0.62254944  0.66079099  0.15496846  1  0  0.076561  0  0.941479  0  0  0.086943  0  1.012389  0  0  0.088201  0  1.011968  0  0  0.099141  0.086096  0  1.012687  0
C  C26  1  0.83790598  0.11859863  0.51919625  1  0  0.658845  0  3.837214  0  0  0.60197  0  4.139666  0  0  0.636326  0  4.132506  0  0  0.211339  0.578657  0  4.143747  0
C  C27  1  0.33791900  0.88140795  0.48079518  1  0  0.658858  0  3.83746  0  0  0.60212  0  4.139694  0  0  0.636469  0  4.132545  0  0  0.211546  0.578795  0  4.143786  0
C  C28  1  0.98028707  0.81273106  0.92106581  1  0  0.006041  0  3.576635  0  0  -0.012489  0  3.819928  0  0  -0.013475  0  3.831863  0  0  -0.006142  -0.012064  0  3.812176  0
C  C29  1  0.48029448  0.18726495  0.07893250  1  0  0.006008  0  3.57659  0  0  -0.012586  0  3.820059  0  0  -0.013564  0  3.831974  0  0  -0.006186  -0.012159  0  3.812306  0
C  C30  1  0.24156542  0.87761231  0.93426773  1  0  0.653816  0  3.852288  0  0  0.597798  0  4.166807  0  0  0.630975  0  4.159124  0  0  0.209424  0.575279  0  4.171446  0
C  C31  1  0.74156575  0.12238529  0.06573164  1  0  0.653677  0  3.852605  0  0  0.597624  0  4.167206  0  0  0.630806  0  4.159517  0  0  0.209286  0.575106  0  4.171843  0
C  C32  1  0.78542879  0.71404240  0.73664675  1  0  -0.008405  0  3.590322  0  0  -0.064625  0  3.85968  0  0  -0.059587  0  3.868082  0  0  -0.06338  -0.068026  0  3.854277  0
C  C33  1  0.28544833  0.28595567  0.26335551  1  0  -0.008271  0  3.590034  0  0  -0.064364  0  3.859282  0  0  -0.059356  0  3.867776  0  0  -0.063269  -0.067773  0  3.853891  0
C  C34  1  0.99984195  0.65465891  0.93207459  1  0  -0.17204  0  3.645444  0  0  -0.214377  0  3.906081  0  0  -0.214636  0  3.917044  0  0  -0.150752  -0.21408  0  3.89859  0
C  C35  1  0.49984720  0.34534460  0.06792520  1  0  -0.172116  0  3.645368  0  0  -0.214468  0  3.906007  0  0  -0.214704  0  3.91697  0  0  -0.150787  -0.214159  0  3.898471  0
C  C36  1  0.84724929  0.22441033  0.62563198  1  0  0.025314  0  3.607051  0  0  0.010175  0  3.842022  0  0  0.009201  0  3.854728  0  0  0.000284  0.010913  0  3.833328  0
C  C37  1  0.34727691  0.77558925  0.37437160  1  0  0.024926  0  3.607534  0  0  0.009977  0  3.842344  0  0  0.008995  0  3.855058  0  0  0.000186  0.010708  0  3.833654  0
C  C38  1  0.93148784  0.36913813  0.59221622  1  0  -0.178236  0  3.658588  0  0  -0.221751  0  3.918138  0  0  -0.221759  0  3.928403  0  0  -0.155516  -0.22178  0  3.91159  0
C  C39  1  0.43154345  0.63086563  0.40779616  1  0  -0.177619  0  3.6579  0  0  -0.221326  0  3.917739  0  0  -0.221346  0  3.928013  0  0  -0.155291  -0.221326  0  3.911178  0
C  C40  1  0.19217734  0.27530773  0.76778848  1  0  0.00237  0  3.601662  0  0  -0.055597  0  3.880164  0  0  -0.050108  0  3.888302  0  0  -0.059134  -0.059309  0  3.874653  0
C  C41  1  0.69220299  0.72468248  0.23220885  1  0  0.00231  0  3.601702  0  0  -0.055403  0  3.879963  0  0  -0.049923  0  3.888086  0  0  -0.05902  -0.059118  0  3.874451  0
S  S42  1  0.25612404  0.38079401  0.63747340  1  0  -0.030483  0  2.259481  0  0  -0.017165  0  2.602739  0  0  -0.021626  0  2.601216  0  0  -0.016845  -0.013582  0  2.604723  0
S  S43  1  0.75617736  0.61921216  0.36252025  1  0  -0.030595  0  2.25938  0  0  -0.017271  0  2.602628  0  0  -0.021728  0  2.601104  0  0  -0.016894  -0.013682  0  2.604612  0
S  S44  1  0.73056822  0.58505552  0.85166841  1  0  -0.057136  0  2.26432  0  0  -0.043765  0  2.613153  0  0  -0.047076  0  2.610884  0  0  -0.026188  -0.040733  0  2.614617  0
S  S45  1  0.23058492  0.41494769  0.14834074  1  0  -0.057145  0  2.264269  0  0  -0.043773  0  2.613055  0  0  -0.047079  0  2.610778  0  0  -0.026195  -0.040737  0  2.614523  0
N  N46  1  0.99740703  0.17388016  0.72977102  1  0  -0.440706  0  3.1876  0  0  -0.363907  0  3.442702  0  0  -0.382296  0  3.448204  0  0  -0.476353  -0.351732  0  3.438696  0
N  N47  1  0.49742710  0.82611687  0.27022941  1  0  -0.44058  0  3.187783  0  0  -0.363945  0  3.442789  0  0  -0.382295  0  3.448234  0  0  -0.476346  -0.351747  0  3.438781  0
N  N48  1  0.85214578  0.84305384  0.80362281  1  0  -0.421202  0  3.188987  0  0  -0.34306  0  3.4423  0  0  -0.361444  0  3.449002  0  0  -0.477678  -0.330435  0  3.437582  0
N  N49  1  0.35216046  0.15694555  0.19637601  1  0  -0.42125  0  3.18895  0  0  -0.343047  0  3.442212  0  0  -0.361439  0  3.448904  0  0  -0.477685  -0.330428  0  3.437503  0
O  O50  1  0.86136136  0.99281207  0.54371995  1  0  -0.611181  0  2.061451  0  0  -0.549458  0  2.324106  0  0  -0.576739  0  2.313096  0  0  -0.310576  -0.530847  0  2.331424  0
O  O51  1  0.36136602  0.00719295  0.45628056  1  0  -0.611058  0  2.061383  0  0  -0.549449  0  2.324025  0  0  -0.576725  0  2.313018  0  0  -0.310628  -0.530826  0  2.331331  0
O  O52  1  0.35285122  0.86235590  0.03353027  1  0  -0.607622  0  1.955396  0  0  -0.561024  0  2.197068  0  0  -0.584982  0  2.188386  0  0  -0.321224  -0.544593  0  2.203122  0
O  O53  1  0.85284603  0.13764661  0.96646591  1  0  -0.607583  0  1.95543  0  0  -0.560886  0  2.197066  0  0  -0.584848  0  2.188385  0  0  -0.321163  -0.544449  0  2.203108  0
O  O54  1  0.33520137  0.94101095  0.84275865  1  0  -0.643537  0  2.027777  0  0  -0.56655  0  2.28466  0  0  -0.594222  0  2.270904  0  0  -0.322942  -0.54733  0  2.293249  0
O  O55  1  0.83521452  0.05898336  0.15723423  1  0  -0.64343  0  2.027954  0  0  -0.566453  0  2.28486  0  0  -0.594127  0  2.271104  0  0  -0.322861  -0.547249  0  2.293467  0
O  O56  1  0.78442989  0.16473062  0.41423060  1  0  -0.61954  0  2.059096  0  0  -0.546312  0  2.324155  0  0  -0.574089  0  2.31052  0  0  -0.316424  -0.527128  0  2.332982  0
O  O57  1  0.28443446  0.83527290  0.58576095  1  0  -0.619535  0  2.05903  0  0  -0.546444  0  2.324118  0  0  -0.574229  0  2.310495  0  0  -0.316585  -0.527261  0  2.332961  0
