# generated using pymatgen
data_CdH20C17S2(IN2)2
_symmetry_space_group_name_H-M   'P 1'
_cell_length_a   7.75926980
_cell_length_b   11.30403050
_cell_length_c   14.71935747
_cell_angle_alpha   117.80984103
_cell_angle_beta   90.09966686
_cell_angle_gamma   93.24909956
_symmetry_Int_Tables_number   1
_chemical_formula_structural   CdH20C17S2(IN2)2
_chemical_formula_sum   'Cd2 H40 C34 S4 I4 N8'
_cell_volume   1139.51844255
_cell_formula_units_Z   2
loop_
 _symmetry_equiv_pos_site_id
 _symmetry_equiv_pos_as_xyz
  1  'x, y, z'
loop_
 _atom_site_type_symbol
 _atom_site_label
 _atom_site_symmetry_multiplicity
 _atom_site_fract_x
 _atom_site_fract_y
 _atom_site_fract_z
 _atom_site_occupancy
 _atom_site_hle17_bader_spin_density
 _atom_site_hle17_ddec_charge
 _atom_site_hle17_ddec_spin_density
 _atom_site_hle17_ddec_sum_bond_order
 _atom_site_hle17_magmom
 _atom_site_hse06_10hf_bader_spin_density
 _atom_site_hse06_10hf_ddec_charge
 _atom_site_hse06_10hf_ddec_spin_density
 _atom_site_hse06_10hf_ddec_sum_bond_order
 _atom_site_hse06_10hf_magmom
 _atom_site_hse06_bader_spin_density
 _atom_site_hse06_ddec_charge
 _atom_site_hse06_ddec_spin_density
 _atom_site_hse06_ddec_sum_bond_order
 _atom_site_hse06_magmom
 _atom_site_pbe_bader_spin_density
 _atom_site_pbe_cm5_charge
 _atom_site_pbe_ddec_charge
 _atom_site_pbe_ddec_spin_density
 _atom_site_pbe_ddec_sum_bond_order
 _atom_site_pbe_magmom
Cd  Cd0  1  0.73155978  0.66686747  0.83155550  1  0  0.78733  0  2.08445  0  0  0.610668  0  2.565058  0  0  0.657276  0  2.52776  0  0  0.531322  0.579063  0  2.589475  0
Cd  Cd1  1  0.26843199  0.33313127  0.16844784  1  0  0.787411  0  2.084419  0  0  0.610766  0  2.565016  0  0  0.657374  0  2.527718  0  0  0.531346  0.579156  0  2.589451  0
H  H2  1  0.28910114  0.67197519  0.87596686  1  0  0.099761  0  0.972404  0  0  0.109614  0  1.033896  0  0  0.111669  0  1.033301  0  0  0.109806  0.108061  0  1.03457  0
H  H3  1  0.71089485  0.32801002  0.12402864  1  0  0.099696  0  0.972294  0  0  0.109589  0  1.033715  0  0  0.111644  0  1.033117  0  0  0.109773  0.108034  0  1.034395  0
H  H4  1  0.11246982  0.48236562  0.91639086  1  0  0.104889  0  0.975843  0  0  0.109182  0  1.047515  0  0  0.112314  0  1.045652  0  0  0.110776  0.106717  0  1.049303  0
H  H5  1  0.88752833  0.51761597  0.08359530  1  0  0.104907  0  0.9758  0  0  0.10915  0  1.047543  0  0  0.112313  0  1.045645  0  0  0.11078  0.106684  0  1.04933  0
H  H6  1  0.32815953  0.31404443  0.89353499  1  0  0.287488  0  0.913382  0  0  0.268654  0  0.982055  0  0  0.277318  0  0.974516  0  0  0.292915  0.262592  0  0.987346  0
H  H7  1  0.67183502  0.68593977  0.10645880  1  0  0.28757  0  0.913128  0  0  0.26869  0  0.981864  0  0  0.27738  0  0.974292  0  0  0.29293  0.262626  0  0.987152  0
H  H8  1  0.64133519  0.30679081  0.65424577  1  0  0.100053  0  0.959356  0  0  0.111391  0  1.027901  0  0  0.112835  0  1.027791  0  0  0.094315  0.110296  0  1.028154  0
H  H9  1  0.35866150  0.69321352  0.34575605  1  0  0.100039  0  0.959373  0  0  0.111359  0  1.027956  0  0  0.112794  0  1.027856  0  0  0.094294  0.110261  0  1.028208  0
H  H10  1  0.78499004  0.19394723  0.65896647  1  0  0.1063  0  0.927949  0  0  0.127581  0  0.977661  0  0  0.128757  0  0.977477  0  0  0.104314  0.126706  0  0.977993  0
H  H11  1  0.21501295  0.80605548  0.34103009  1  0  0.106274  0  0.92799  0  0  0.12756  0  0.977708  0  0  0.128734  0  0.977525  0  0  0.104315  0.12668  0  0.978043  0
H  H12  1  0.34134142  0.36829937  0.69168841  1  0  0.107172  0  0.995301  0  0  0.126122  0  1.059758  0  0  0.126633  0  1.061726  0  0  0.085133  0.125838  0  1.057938  0
H  H13  1  0.65864353  0.63170478  0.30831667  1  0  0.107207  0  0.995346  0  0  0.126181  0  1.059759  0  0  0.126691  0  1.061725  0  0  0.085174  0.125911  0  1.057923  0
H  H14  1  0.18002111  0.27649936  0.59638199  1  0  0.110574  0  0.959715  0  0  0.132206  0  1.01933  0  0  0.133885  0  1.018481  0  0  0.088761  0.130953  0  1.019946  0
H  H15  1  0.81997493  0.72349408  0.40361895  1  0  0.110579  0  0.959689  0  0  0.13222  0  1.019303  0  0  0.133896  0  1.018455  0  0  0.088752  0.130965  0  1.019923  0
H  H16  1  0.39565220  0.29042821  0.56165698  1  0  0.111844  0  0.954613  0  0  0.135866  0  1.013286  0  0  0.136637  0  1.013544  0  0  0.091077  0.135109  0  1.013505  0
H  H17  1  0.60434679  0.70958208  0.43834750  1  0  0.11189  0  0.954561  0  0  0.135933  0  1.013208  0  0  0.136699  0  1.01347  0  0  0.091095  0.135176  0  1.013427  0
H  H18  1  0.09102073  0.06772045  0.57435444  1  0  0.081721  0  0.984974  0  0  0.093597  0  1.051696  0  0  0.096185  0  1.050722  0  0  0.09074  0.091706  0  1.05251  0
H  H19  1  0.90898569  0.93228030  0.42564558  1  0  0.081717  0  0.984928  0  0  0.093583  0  1.05167  0  0  0.096174  0  1.050694  0  0  0.090724  0.091694  0  1.052484  0
H  H20  1  0.98105966  0.85641345  0.53902068  1  0  0.094961  0  0.992523  0  0  0.117748  0  1.053774  0  0  0.119025  0  1.053685  0  0  0.084234  0.116858  0  1.053808  0
H  H21  1  0.01893393  0.14358814  0.46098225  1  0  0.094951  0  0.992542  0  0  0.11774  0  1.053799  0  0  0.119015  0  1.053708  0  0  0.084233  0.116853  0  1.053834  0
H  H22  1  0.06221491  0.79876673  0.62291921  1  0  0.107302  0  0.977984  0  0  0.124477  0  1.047154  0  0  0.126341  0  1.04644  0  0  0.076533  0.123039  0  1.047831  0
H  H23  1  0.93779163  0.20123526  0.37708529  1  0  0.107375  0  0.977995  0  0  0.124577  0  1.047117  0  0  0.126442  0  1.046398  0  0  0.076573  0.123143  0  1.047792  0
H  H24  1  0.12603653  0.72684264  0.49450949  1  0  0.105736  0  0.9942  0  0  0.124233  0  1.063285  0  0  0.126109  0  1.062537  0  0  0.072719  0.122948  0  1.063674  0
H  H25  1  0.87395822  0.27315764  0.50548894  1  0  0.105742  0  0.994177  0  0  0.124253  0  1.063251  0  0  0.126122  0  1.062507  0  0  0.072717  0.122967  0  1.063642  0
H  H26  1  0.81884194  0.99913227  0.63078192  1  0  0.098856  0  0.973234  0  0  0.122821  0  1.034214  0  0  0.123672  0  1.034516  0  0  0.088317  0.12216  0  1.034051  0
H  H27  1  0.18115859  0.00087186  0.36921985  1  0  0.098895  0  0.973216  0  0  0.122863  0  1.03419  0  0  0.123715  0  1.034492  0  0  0.088319  0.1222  0  1.034031  0
H  H28  1  0.73463281  0.88463104  0.67203225  1  0  0.112871  0  0.965438  0  0  0.134342  0  1.023473  0  0  0.135763  0  1.023543  0  0  0.088947  0.133151  0  1.023705  0
H  H29  1  0.26536900  0.11537302  0.32796951  1  0  0.112873  0  0.965482  0  0  0.134347  0  1.023508  0  0  0.135764  0  1.023584  0  0  0.088979  0.133155  0  1.023741  0
H  H30  1  0.75545752  0.05778903  0.75873402  1  0  0.103904  0  0.970864  0  0  0.123756  0  1.036683  0  0  0.125059  0  1.037102  0  0  0.081487  0.122643  0  1.036649  0
H  H31  1  0.24453937  0.94221622  0.24126674  1  0  0.103888  0  0.97089  0  0  0.123775  0  1.036673  0  0  0.12508  0  1.037087  0  0  0.081482  0.122663  0  1.036636  0
H  H32  1  0.56502092  0.74001607  0.60629360  1  0  0.092264  0  0.974349  0  0  0.102904  0  1.042469  0  0  0.105105  0  1.040853  0  0  0.091471  0.101273  0  1.043771  0
H  H33  1  0.43498040  0.25998486  0.39370509  1  0  0.092257  0  0.974355  0  0  0.1029  0  1.042482  0  0  0.105102  0  1.040866  0  0  0.091474  0.101271  0  1.043781  0
H  H34  1  0.35563241  0.68625880  0.54826874  1  0  0.107537  0  0.944112  0  0  0.124034  0  1.003735  0  0  0.125792  0  1.002513  0  0  0.097014  0.122724  0  1.004701  0
H  H35  1  0.64436501  0.31374259  0.45173415  1  0  0.107507  0  0.944127  0  0  0.124027  0  1.003732  0  0  0.125782  0  1.002513  0  0  0.09701  0.122719  0  1.004694  0
H  H36  1  0.81242268  0.00486366  0.97120696  1  0  0.094579  0  0.981071  0  0  0.100164  0  1.049847  0  0  0.103146  0  1.047854  0  0  0.09813  0.09796  0  1.051464  0
H  H37  1  0.18757726  0.99514453  0.02879615  1  0  0.094643  0  0.980918  0  0  0.100193  0  1.049725  0  0  0.103174  0  1.047734  0  0  0.098161  0.097989  0  1.051338  0
H  H38  1  0.59704076  0.19302195  0.96994270  1  0  0.094572  0  0.993984  0  0  0.098791  0  1.069886  0  0  0.101379  0  1.068674  0  0  0.109948  0.097026  0  1.070617  0
H  H39  1  0.40296635  0.80698279  0.03005864  1  0  0.094486  0  0.993915  0  0  0.09868  0  1.069858  0  0  0.101268  0  1.068648  0  0  0.109951  0.096915  0  1.070584  0
H  H40  1  0.34355958  0.05313222  0.85081427  1  0  0.293726  0  0.892947  0  0  0.275503  0  0.95837  0  0  0.283586  0  0.951337  0  0  0.309028  0.269863  0  0.963275  0
H  H41  1  0.65644482  0.94687158  0.14918538  1  0  0.293682  0  0.89294  0  0  0.275481  0  0.958359  0  0  0.283566  0  0.951328  0  0  0.309062  0.269844  0  0.963266  0
C  C42  1  0.33559998  0.58378109  0.87645399  1  0  -0.001015  0  3.752904  0  0  -0.032636  0  4.016388  0  0  -0.031638  0  4.037351  0  0  -0.003862  -0.033067  0  4.001918  0
C  C43  1  0.66439725  0.41621095  0.12354105  1  0  -0.000845  0  3.753342  0  0  -0.032481  0  4.016845  0  0  -0.031485  0  4.037819  0  0  -0.003877  -0.032918  0  4.002382  0
C  C44  1  0.24504401  0.48994405  0.89571216  1  0  0.013345  0  3.689089  0  0  -0.024345  0  3.95065  0  0  -0.02226  0  3.969046  0  0  0.006667  -0.025758  0  3.938597  0
C  C45  1  0.75494522  0.51003954  0.10428344  1  0  0.01324  0  3.689791  0  0  -0.024409  0  3.951316  0  0  -0.022354  0  3.969698  0  0  0.006676  -0.025814  0  3.939261  0
C  C46  1  0.51501898  0.43076204  0.85606209  1  0  0.282203  0  3.779183  0  0  0.256563  0  4.068156  0  0  0.270552  0  4.083449  0  0  0.198453  0.247261  0  4.057622  0
C  C47  1  0.48498199  0.56923017  0.14393915  1  0  0.282291  0  3.779375  0  0  0.256673  0  4.068289  0  0  0.270665  0  4.083586  0  0  0.198517  0.247362  0  4.057766  0
C  C48  1  0.65830014  0.23464152  0.68317655  1  0  -0.148714  0  3.628502  0  0  -0.185818  0  3.875891  0  0  -0.183991  0  3.885853  0  0  -0.141266  -0.187134  0  3.869425  0
C  C49  1  0.34170278  0.76536147  0.31682487  1  0  -0.148567  0  3.628457  0  0  -0.185692  0  3.875893  0  0  -0.183859  0  3.885862  0  0  -0.141221  -0.186995  0  3.869412  0
C  C50  1  0.51452337  0.12744414  0.65060957  1  0  -0.037088  0  3.704391  0  0  -0.030858  0  3.952027  0  0  -0.035746  0  3.978535  0  0  -0.030352  -0.027679  0  3.934456  0
C  C51  1  0.48547874  0.87255365  0.34938672  1  0  -0.037179  0  3.704585  0  0  -0.030953  0  3.952176  0  0  -0.035839  0  3.978683  0  0  -0.030365  -0.027777  0  3.934604  0
C  C52  1  0.35101801  0.15071996  0.62244841  1  0  0.12072  0  3.748622  0  0  0.135707  0  3.999081  0  0  0.138076  0  4.023499  0  0  -0.013846  0.13408  0  3.982758  0
C  C53  1  0.64898057  0.84928020  0.37755136  1  0  0.120709  0  3.748521  0  0  0.13577  0  3.998874  0  0  0.138142  0  4.023287  0  0  -0.013891  0.13415  0  3.982547  0
C  C54  1  0.31531698  0.27765239  0.61831399  1  0  -0.33298  0  3.706138  0  0  -0.40997  0  3.93376  0  0  -0.411889  0  3.942992  0  0  -0.24539  -0.408326  0  3.927326  0
C  C55  1  0.68467883  0.72234703  0.38168756  1  0  -0.33312  0  3.706146  0  0  -0.41018  0  3.933765  0  0  -0.412092  0  3.942996  0  0  -0.245448  -0.408544  0  3.92731  0
C  C56  1  0.21878152  0.04957153  0.59454452  1  0  -0.208624  0  3.759728  0  0  -0.239264  0  4.013941  0  0  -0.245338  0  4.03624  0  0  -0.111396  -0.235177  0  3.99891  0
C  C57  1  0.78122222  0.95042815  0.40545173  1  0  -0.208596  0  3.759524  0  0  -0.239234  0  4.013707  0  0  -0.24531  0  4.036006  0  0  -0.111302  -0.235153  0  3.998679  0
C  C58  1  0.24353187  0.92627956  0.59088928  1  0  0.12139  0  3.761186  0  0  0.14067  0  4.003464  0  0  0.142891  0  4.028283  0  0  -0.014716  0.139318  0  3.986535  0
C  C59  1  0.75647363  0.07372321  0.40911071  1  0  0.121521  0  3.761028  0  0  0.140772  0  4.003368  0  0  0.142993  0  4.028185  0  0  -0.014736  0.13942  0  3.986443  0
C  C60  1  0.09621609  0.82237702  0.56031715  1  0  -0.348144  0  3.741861  0  0  -0.426882  0  3.972755  0  0  -0.43011  0  3.982089  0  0  -0.254906  -0.424446  0  3.966322  0
C  C61  1  0.90378830  0.17762686  0.43968389  1  0  -0.348285  0  3.741901  0  0  -0.427061  0  3.972791  0  0  -0.430277  0  3.982128  0  0  -0.254967  -0.424628  0  3.966361  0
C  C62  1  0.40867985  0.90153705  0.61656733  1  0  -0.034712  0  3.706652  0  0  -0.026222  0  3.947668  0  0  -0.031299  0  3.974422  0  0  -0.028936  -0.022934  0  3.929498  0
C  C63  1  0.59132020  0.09846396  0.38343137  1  0  -0.034722  0  3.706517  0  0  -0.02625  0  3.947592  0  0  -0.031327  0  3.974346  0  0  -0.028916  -0.02296  0  3.929427  0
C  C64  1  0.54385796  0.00306163  0.64789867  1  0  0.072742  0  3.689728  0  0  0.084319  0  3.939078  0  0  0.086033  0  3.964166  0  0  -0.010333  0.083329  0  3.921861  0
C  C65  1  0.45614429  0.99693728  0.35210003  1  0  0.072796  0  3.689717  0  0  0.084383  0  3.939065  0  0  0.086096  0  3.964154  0  0  -0.010326  0.083393  0  3.921851  0
C  C66  1  0.72078741  0.98403170  0.67870152  1  0  -0.326709  0  3.716678  0  0  -0.406427  0  3.948355  0  0  -0.40911  0  3.958571  0  0  -0.247993  -0.404217  0  3.941398  0
C  C67  1  0.27921281  0.01597031  0.32129751  1  0  -0.326774  0  3.716747  0  0  -0.406523  0  3.948416  0  0  -0.409206  0  3.958633  0  0  -0.248021  -0.404311  0  3.94146  0
C  C68  1  0.43114898  0.76812172  0.61228462  1  0  -0.159557  0  3.64275  0  0  -0.197498  0  3.891376  0  0  -0.195963  0  3.900721  0  0  -0.143218  -0.198381  0  3.884919  0
C  C69  1  0.56885105  0.23187932  0.38771478  1  0  -0.159505  0  3.642692  0  0  -0.197483  0  3.891381  0  0  -0.195944  0  3.900721  0  0  -0.143204  -0.198372  0  3.884928  0
C  C70  1  0.47609255  0.88033647  0.82050814  1  0  0.276904  0  3.794905  0  0  0.251258  0  4.082963  0  0  0.264781  0  4.099209  0  0  0.198673  0.242351  0  4.071815  0
C  C71  1  0.52391635  0.11967124  0.17949487  1  0  0.27703  0  3.794764  0  0  0.251456  0  4.082754  0  0  0.264984  0  4.098999  0  0  0.198727  0.24254  0  4.071619  0
C  C72  1  0.69217193  0.99049745  0.92873994  1  0  0.011893  0  3.736832  0  0  -0.0205  0  3.99718  0  0  -0.019115  0  4.017635  0  0  -0.008549  -0.021413  0  3.983454  0
C  C73  1  0.30783659  0.00950838  0.07126449  1  0  0.011869  0  3.737009  0  0  -0.020496  0  3.997367  0  0  -0.019112  0  4.017825  0  0  -0.008556  -0.021409  0  3.983626  0
C  C74  1  0.58603226  0.08470112  0.92981938  1  0  0.013344  0  3.686197  0  0  -0.026826  0  3.956005  0  0  -0.024618  0  3.9743  0  0  0.002579  -0.028264  0  3.943475  0
C  C75  1  0.41397059  0.91530889  0.07018367  1  0  0.013375  0  3.686193  0  0  -0.026736  0  3.95601  0  0  -0.024524  0  3.974306  0  0  0.00253  -0.028168  0  3.943466  0
S  S76  1  0.69392778  0.33542310  0.82541197  1  0  -0.075817  0  2.3308  0  0  -0.078592  0  2.670392  0  0  -0.080611  0  2.668282  0  0  -0.006  -0.076913  0  2.671782  0
S  S77  1  0.30607741  0.66457077  0.17458781  1  0  -0.075886  0  2.330871  0  0  -0.078666  0  2.670482  0  0  -0.080682  0  2.668367  0  0  -0.006036  -0.076988  0  2.671868  0
S  S78  1  0.34325820  0.75579822  0.72555839  1  0  -0.055124  0  2.342169  0  0  -0.055934  0  2.675467  0  0  -0.057317  0  2.671807  0  0  0.001363  -0.054893  0  2.677964  0
S  S79  1  0.65674744  0.24420567  0.27444402  1  0  -0.055193  0  2.342206  0  0  -0.056028  0  2.675521  0  0  -0.057409  0  2.671856  0  0  0.001318  -0.054983  0  2.678022  0
I  I80  1  0.91554247  0.77215791  0.02272545  1  0  -0.496188  0  0.987098  0  0  -0.433972  0  1.288263  0  0  -0.45206  0  1.265475  0  0  -0.227379  -0.421466  0  1.303852  0
I  I81  1  0.08445977  0.22784104  0.97727395  1  0  -0.496183  0  0.987136  0  0  -0.43399  0  1.288296  0  0  -0.452074  0  1.265509  0  0  -0.227365  -0.421474  0  1.303889  0
I  I82  1  0.86743102  0.55516408  0.64183147  1  0  -0.472797  0  1.016768  0  0  -0.414162  0  1.320262  0  0  -0.433686  0  1.297908  0  0  -0.238922  -0.400741  0  1.335396  0
I  I83  1  0.13254089  0.44483830  0.35816546  1  0  -0.472814  0  1.016797  0  0  -0.414184  0  1.320306  0  0  -0.43371  0  1.297952  0  0  -0.23892  -0.400758  0  1.33544  0
N  N84  1  0.50252724  0.54728341  0.85314067  1  0  -0.404673  0  3.260517  0  0  -0.328055  0  3.538299  0  0  -0.348694  0  3.555868  0  0  -0.362183  -0.313753  0  3.525748  0
N  N85  1  0.49747468  0.45270668  0.14685920  1  0  -0.40478  0  3.260713  0  0  -0.328201  0  3.538562  0  0  -0.348841  0  3.556123  0  0  -0.362183  -0.313896  0  3.526018  0
N  N86  1  0.35941380  0.39582024  0.88275210  1  0  -0.301002  0  3.490444  0  0  -0.236435  0  3.715553  0  0  -0.252561  0  3.731387  0  0  -0.376871  -0.225709  0  3.70504  0
N  N87  1  0.64058863  0.60417286  0.11724876  1  0  -0.301048  0  3.490443  0  0  -0.236458  0  3.715613  0  0  -0.252603  0  3.731396  0  0  -0.376894  -0.225728  0  3.705092  0
N  N88  1  0.62292309  0.86483205  0.86113335  1  0  -0.402255  0  3.267694  0  0  -0.321495  0  3.537531  0  0  -0.342856  0  3.557344  0  0  -0.362343  -0.30702  0  3.523617  0
N  N89  1  0.37708453  0.13517573  0.13886968  1  0  -0.402504  0  3.267714  0  0  -0.32173  0  3.537477  0  0  -0.34309  0  3.557285  0  0  -0.362415  -0.307251  0  3.523567  0
N  N90  1  0.45140620  0.01386500  0.86249879  1  0  -0.310602  0  3.509641  0  0  -0.246269  0  3.738863  0  0  -0.261954  0  3.754646  0  0  -0.376278  -0.235734  0  3.727837  0
N  N91  1  0.54860256  0.98614159  0.13750181  1  0  -0.310397  0  3.50943  0  0  -0.246177  0  3.738731  0  0  -0.261877  0  3.754527  0  0  -0.376251  -0.235646  0  3.727714  0
