# generated using pymatgen
data_ZnH10C4SN2O3
_symmetry_space_group_name_H-M   'P 1'
_cell_length_a   7.27440384
_cell_length_b   8.27601547
_cell_length_c   12.13760887
_cell_angle_alpha   90.00003205
_cell_angle_beta   90.00001568
_cell_angle_gamma   90.00000753
_symmetry_Int_Tables_number   1
_chemical_formula_structural   ZnH10C4SN2O3
_chemical_formula_sum   'Zn4 H40 C16 S4 N8 O12'
_cell_volume   730.72142205
_cell_formula_units_Z   4
loop_
 _symmetry_equiv_pos_site_id
 _symmetry_equiv_pos_as_xyz
  1  'x, y, z'
loop_
 _atom_site_type_symbol
 _atom_site_label
 _atom_site_symmetry_multiplicity
 _atom_site_fract_x
 _atom_site_fract_y
 _atom_site_fract_z
 _atom_site_occupancy
 _atom_site_hle17_bader_spin_density
 _atom_site_hle17_ddec_charge
 _atom_site_hle17_ddec_spin_density
 _atom_site_hle17_ddec_sum_bond_order
 _atom_site_hle17_magmom
 _atom_site_hse06_10hf_bader_spin_density
 _atom_site_hse06_10hf_ddec_charge
 _atom_site_hse06_10hf_ddec_spin_density
 _atom_site_hse06_10hf_ddec_sum_bond_order
 _atom_site_hse06_10hf_magmom
 _atom_site_hse06_bader_spin_density
 _atom_site_hse06_ddec_charge
 _atom_site_hse06_ddec_spin_density
 _atom_site_hse06_ddec_sum_bond_order
 _atom_site_hse06_magmom
 _atom_site_pbe_bader_spin_density
 _atom_site_pbe_cm5_charge
 _atom_site_pbe_ddec_charge
 _atom_site_pbe_ddec_spin_density
 _atom_site_pbe_ddec_sum_bond_order
 _atom_site_pbe_magmom
Zn  Zn0  1  0.08840592  0.63659138  0.01357611  1  0  1.010165  0  1.774937  0  0  0.821424  0  2.231974  0  0  0.866238  0  2.179118  0  0  0.684049  0.790727  0  2.268656  0
Zn  Zn1  1  0.41159401  0.36340821  0.51357655  1  0  1.01022  0  1.77487  0  0  0.821477  0  2.231933  0  0  0.866286  0  2.179073  0  0  0.684079  0.79078  0  2.268619  0
Zn  Zn2  1  0.91159510  0.13659255  0.48642375  1  0  1.010184  0  1.774911  0  0  0.821451  0  2.231962  0  0  0.866277  0  2.179105  0  0  0.68407  0.790757  0  2.26865  0
Zn  Zn3  1  0.58840590  0.86340748  0.98642514  1  0  1.010202  0  1.774894  0  0  0.821495  0  2.231919  0  0  0.866302  0  2.17906  0  0  0.684074  0.790799  0  2.268602  0
H  H4  1  0.37268354  0.61237447  0.13167518  1  0  0.257886  0  0.930734  0  0  0.248462  0  0.98577  0  0  0.254237  0  0.982415  0  0  0.290307  0.244362  0  0.988089  0
H  H5  1  0.12731645  0.38762641  0.63167475  1  0  0.257893  0  0.930725  0  0  0.248471  0  0.985758  0  0  0.254245  0  0.982403  0  0  0.290309  0.244372  0  0.988078  0
H  H6  1  0.62731610  0.11237431  0.36832550  1  0  0.25787  0  0.930746  0  0  0.248444  0  0.985785  0  0  0.25422  0  0.982428  0  0  0.290296  0.244343  0  0.988104  0
H  H7  1  0.87268346  0.88762562  0.86832531  1  0  0.257874  0  0.930759  0  0  0.24846  0  0.985796  0  0  0.254227  0  0.982441  0  0  0.290297  0.244359  0  0.988115  0
H  H8  1  0.42129238  0.64988658  0.34878385  1  0  0.070865  0  0.947987  0  0  0.087257  0  1.015155  0  0  0.087435  0  1.016265  0  0  0.104982  0.086741  0  1.015113  0
H  H9  1  0.07870770  0.35011328  0.84878340  1  0  0.070861  0  0.947998  0  0  0.087245  0  1.015183  0  0  0.087421  0  1.016297  0  0  0.104976  0.086728  0  1.015141  0
H  H10  1  0.57870864  0.14988623  0.15121685  1  0  0.070887  0  0.947981  0  0  0.087274  0  1.015158  0  0  0.087451  0  1.01627  0  0  0.104989  0.086757  0  1.015117  0
H  H11  1  0.92129220  0.85011352  0.65121582  1  0  0.070837  0  0.947997  0  0  0.08722  0  1.015187  0  0  0.087399  0  1.016295  0  0  0.104981  0.086704  0  1.015146  0
H  H12  1  0.21517517  0.66961832  0.42535081  1  0  0.057162  0  0.967587  0  0  0.069287  0  1.045231  0  0  0.069279  0  1.045821  0  0  0.099635  0.069326  0  1.044625  0
H  H13  1  0.28482495  0.33038161  0.92535039  1  0  0.05717  0  0.967582  0  0  0.06929  0  1.045233  0  0  0.069284  0  1.045821  0  0  0.099639  0.06933  0  1.044624  0
H  H14  1  0.78482448  0.16961793  0.07464989  1  0  0.057168  0  0.96759  0  0  0.069289  0  1.045238  0  0  0.069283  0  1.045827  0  0  0.099637  0.069329  0  1.04463  0
H  H15  1  0.71517495  0.83038297  0.57464882  1  0  0.057194  0  0.967572  0  0  0.069315  0  1.045216  0  0  0.069308  0  1.045805  0  0  0.099649  0.069354  0  1.04461  0
H  H16  1  0.02556646  0.62114201  0.25975557  1  0  0.082501  0  0.926804  0  0  0.097441  0  0.990243  0  0  0.098641  0  0.989727  0  0  0.106061  0.09656  0  0.990451  0
H  H17  1  0.47443358  0.37885778  0.75975602  1  0  0.082523  0  0.926807  0  0  0.09745  0  0.990244  0  0  0.098652  0  0.989725  0  0  0.106062  0.096569  0  0.990452  0
H  H18  1  0.97443318  0.12114058  0.24024429  1  0  0.082501  0  0.92681  0  0  0.09744  0  0.990242  0  0  0.098642  0  0.989725  0  0  0.106055  0.09656  0  0.990451  0
H  H19  1  0.52556770  0.87885804  0.74024403  1  0  0.082524  0  0.926826  0  0  0.097452  0  0.990253  0  0  0.098653  0  0.989737  0  0  0.106067  0.096571  0  0.990461  0
H  H20  1  0.17835287  0.78743943  0.23670494  1  0  0.092373  0  0.951067  0  0  0.104783  0  1.016607  0  0  0.106602  0  1.01534  0  0  0.106713  0.103514  0  1.017254  0
H  H21  1  0.32164579  0.21256034  0.73670530  1  0  0.092365  0  0.951119  0  0  0.104804  0  1.016599  0  0  0.106625  0  1.015328  0  0  0.10672  0.103536  0  1.017246  0
H  H22  1  0.82164679  0.28743920  0.26329498  1  0  0.092377  0  0.951067  0  0  0.104783  0  1.016607  0  0  0.106603  0  1.015339  0  0  0.106715  0.103515  0  1.017253  0
H  H23  1  0.67835410  0.71256064  0.76329468  1  0  0.092391  0  0.951085  0  0  0.104799  0  1.016599  0  0  0.106619  0  1.015332  0  0  0.106713  0.103532  0  1.017244  0
H  H24  1  0.33095641  0.21742240  0.28552912  1  0  0.091588  0  0.933771  0  0  0.104275  0  0.999661  0  0  0.105679  0  0.998738  0  0  0.1082  0.103533  0  0.999913  0
H  H25  1  0.16904502  0.78257741  0.78552885  1  0  0.091623  0  0.933772  0  0  0.104265  0  0.999699  0  0  0.10567  0  0.998775  0  0  0.108188  0.103522  0  0.999953  0
H  H26  1  0.66904324  0.71742266  0.21447077  1  0  0.091667  0  0.933683  0  0  0.104286  0  0.999648  0  0  0.105691  0  0.998727  0  0  0.108202  0.103543  0  0.999903  0
H  H27  1  0.83095625  0.28257715  0.71447116  1  0  0.091606  0  0.933765  0  0  0.104261  0  0.99968  0  0  0.105665  0  0.998757  0  0  0.10819  0.103519  0  0.999934  0
H  H28  1  0.49474441  0.37658716  0.26615797  1  0  0.081717  0  0.938131  0  0  0.098628  0  0.998773  0  0  0.09959  0  0.998583  0  0  0.106105  0.097917  0  0.998854  0
H  H29  1  0.00525701  0.62341384  0.76615761  1  0  0.081729  0  0.938201  0  0  0.098625  0  0.998822  0  0  0.09959  0  0.998633  0  0  0.106106  0.097916  0  0.998902  0
H  H30  1  0.50525664  0.87658621  0.23384198  1  0  0.081694  0  0.938207  0  0  0.098595  0  0.998831  0  0  0.099561  0  0.998643  0  0  0.1061  0.097886  0  0.998912  0
H  H31  1  0.99474423  0.12341361  0.73384234  1  0  0.081715  0  0.938153  0  0  0.098618  0  0.998784  0  0  0.099579  0  0.998595  0  0  0.106103  0.097909  0  0.998863  0
H  H32  1  0.31549119  0.34050087  0.09769067  1  0  0.062446  0  0.957657  0  0  0.076103  0  1.03118  0  0  0.076477  0  1.031093  0  0  0.102056  0.075434  0  1.031901  0
H  H33  1  0.18451015  0.65949999  0.59769035  1  0  0.062475  0  0.957588  0  0  0.076109  0  1.031139  0  0  0.076484  0  1.031051  0  0  0.102055  0.075441  0  1.031862  0
H  H34  1  0.68450986  0.84050008  0.40230928  1  0  0.062433  0  0.957679  0  0  0.076076  0  1.031211  0  0  0.07645  0  1.031125  0  0  0.102042  0.075408  0  1.031934  0
H  H35  1  0.81548972  0.15949988  0.90230961  1  0  0.062465  0  0.957585  0  0  0.076101  0  1.031141  0  0  0.076476  0  1.031054  0  0  0.102057  0.075432  0  1.031864  0
H  H36  1  0.10371716  0.35393851  0.16901277  1  0  0.072083  0  0.941679  0  0  0.088804  0  1.006219  0  0  0.089061  0  1.007043  0  0  0.106027  0.088464  0  1.005522  0
H  H37  1  0.39628285  0.64606120  0.66901331  1  0  0.072093  0  0.941689  0  0  0.088813  0  1.006219  0  0  0.08907  0  1.007043  0  0  0.106025  0.088473  0  1.005522  0
H  H38  1  0.89628390  0.85393890  0.33098717  1  0  0.072094  0  0.941664  0  0  0.088809  0  1.006202  0  0  0.089067  0  1.007025  0  0  0.106032  0.088468  0  1.005504  0
H  H39  1  0.60371703  0.14606100  0.83098665  1  0  0.072078  0  0.941687  0  0  0.0888  0  1.006222  0  0  0.089057  0  1.007048  0  0  0.106024  0.08846  0  1.005525  0
H  H40  1  0.14629527  0.39749218  0.39063304  1  0  0.258695  0  0.934989  0  0  0.249687  0  0.987291  0  0  0.255809  0  0.983711  0  0  0.288624  0.245  0  0.990467  0
H  H41  1  0.35370483  0.60250772  0.89063356  1  0  0.258689  0  0.934991  0  0  0.249679  0  0.987291  0  0  0.255801  0  0.983713  0  0  0.288624  0.244992  0  0.990466  0
H  H42  1  0.85370441  0.89749238  0.10936610  1  0  0.258677  0  0.935017  0  0  0.249665  0  0.987318  0  0  0.255785  0  0.983742  0  0  0.288623  0.244977  0  0.990494  0
H  H43  1  0.64629641  0.10250855  0.60936721  1  0  0.25866  0  0.935022  0  0  0.249648  0  0.987331  0  0  0.255768  0  0.983752  0  0  0.288604  0.24496  0  0.990506  0
C  C44  1  0.27736856  0.61033372  0.35373126  1  0  0.001539  0  3.643064  0  0  -0.062438  0  3.907818  0  0  -0.059089  0  3.921285  0  0  -0.078754  -0.064565  0  3.898385  0
C  C45  1  0.22263153  0.38966614  0.85373085  1  0  0.001558  0  3.643085  0  0  -0.06244  0  3.907831  0  0  -0.059091  0  3.921298  0  0  -0.078745  -0.064566  0  3.898395  0
C  C46  1  0.72263245  0.11033339  0.14626859  1  0  0.001484  0  3.643093  0  0  -0.0625  0  3.907833  0  0  -0.059152  0  3.921299  0  0  -0.078776  -0.064627  0  3.898398  0
C  C47  1  0.77736838  0.88966636  0.64626838  1  0  0.001603  0  3.643086  0  0  -0.062398  0  3.907827  0  0  -0.059051  0  3.921296  0  0  -0.078737  -0.064525  0  3.898393  0
C  C48  1  0.17078386  0.65649115  0.25067637  1  0  -0.016237  0  3.613721  0  0  -0.070341  0  3.869326  0  0  -0.067514  0  3.880643  0  0  -0.08282  -0.072147  0  3.861124  0
C  C49  1  0.32921618  0.34350863  0.75067678  1  0  -0.01631  0  3.613843  0  0  -0.070385  0  3.869366  0  0  -0.067558  0  3.88068  0  0  -0.082833  -0.072189  0  3.861163  0
C  C50  1  0.82921579  0.15649092  0.24932351  1  0  -0.016242  0  3.613726  0  0  -0.070338  0  3.869319  0  0  -0.067509  0  3.880637  0  0  -0.082815  -0.072144  0  3.861117  0
C  C51  1  0.67078372  0.84350892  0.74932326  1  0  -0.016373  0  3.613875  0  0  -0.070404  0  3.869396  0  0  -0.067588  0  3.880706  0  0  -0.082845  -0.07221  0  3.861193  0
C  C52  1  0.34749661  0.34788735  0.27291464  1  0  -0.012325  0  3.610967  0  0  -0.069094  0  3.868479  0  0  -0.065795  0  3.879829  0  0  -0.081338  -0.071667  0  3.860713  0
C  C53  1  0.15249932  0.65211245  0.77291432  1  0  -0.01239  0  3.611041  0  0  -0.069079  0  3.868432  0  0  -0.065785  0  3.879787  0  0  -0.081316  -0.071654  0  3.860666  0
C  C54  1  0.65249895  0.84788641  0.22708531  1  0  -0.012338  0  3.610941  0  0  -0.069036  0  3.868383  0  0  -0.065748  0  3.879749  0  0  -0.081309  -0.071612  0  3.860618  0
C  C55  1  0.84749780  0.15211340  0.72708565  1  0  -0.012379  0  3.611017  0  0  -0.069099  0  3.868462  0  0  -0.065798  0  3.87981  0  0  -0.081345  -0.07167  0  3.860694  0
C  C56  1  0.24652199  0.39686135  0.16816337  1  0  0.002524  0  3.635383  0  0  -0.058838  0  3.896819  0  0  -0.055318  0  3.909472  0  0  -0.077732  -0.06101  0  3.888244  0
C  C57  1  0.25347801  0.60313836  0.66816304  1  0  0.002487  0  3.635337  0  0  -0.058859  0  3.896735  0  0  -0.055338  0  3.909384  0  0  -0.077735  -0.061032  0  3.888164  0
C  C58  1  0.75347769  0.89686051  0.33183742  1  0  0.002473  0  3.635361  0  0  -0.058873  0  3.896751  0  0  -0.055343  0  3.909398  0  0  -0.07775  -0.061042  0  3.888175  0
C  C59  1  0.74652185  0.10313818  0.83183690  1  0  0.002548  0  3.635297  0  0  -0.058795  0  3.896738  0  0  -0.055283  0  3.909375  0  0  -0.077718  -0.06097  0  3.888166  0
S  S60  1  0.19653707  0.01163726  0.01339887  1  0  0.876771  0  4.516113  0  0  0.787611  0  5.021052  0  0  0.82489  0  5.001814  0  0  0.350702  0.762037  0  5.032861  0
S  S61  1  0.30346286  0.98836353  0.51339870  1  0  0.876677  0  4.516037  0  0  0.787517  0  5.020972  0  0  0.82479  0  5.001741  0  0  0.350673  0.761941  0  5.032781  0
S  S62  1  0.80346255  0.51163655  0.48660095  1  0  0.876735  0  4.516013  0  0  0.787596  0  5.020946  0  0  0.824867  0  5.00171  0  0  0.350709  0.762018  0  5.032755  0
S  S63  1  0.69653706  0.48836227  0.98660139  1  0  0.876747  0  4.516091  0  0  0.787596  0  5.021037  0  0  0.824869  0  5.0018  0  0  0.350707  0.762017  0  5.032843  0
N  N64  1  0.24154015  0.57421360  0.15075305  1  0  -0.412976  0  3.229919  0  0  -0.327704  0  3.48769  0  0  -0.346754  0  3.49584  0  0  -0.490661  -0.31481  0  3.481737  0
N  N65  1  0.25845985  0.42578610  0.65075348  1  0  -0.412974  0  3.229916  0  0  -0.327736  0  3.487688  0  0  -0.34678  0  3.495829  0  0  -0.490674  -0.314842  0  3.481737  0
N  N66  1  0.75845949  0.07421344  0.34924679  1  0  -0.412944  0  3.22994  0  0  -0.327677  0  3.487698  0  0  -0.346739  0  3.495863  0  0  -0.490642  -0.314785  0  3.481746  0
N  N67  1  0.74154007  0.92578648  0.84924659  1  0  -0.412944  0  3.229926  0  0  -0.32776  0  3.487754  0  0  -0.346767  0  3.495856  0  0  -0.490666  -0.314866  0  3.481802  0
N  N68  1  0.27922437  0.43315306  0.37237988  1  0  -0.416073  0  3.239403  0  0  -0.327445  0  3.497999  0  0  -0.347041  0  3.505862  0  0  -0.4898  -0.313946  0  3.492535  0
N  N69  1  0.22077572  0.56684682  0.87237953  1  0  -0.416003  0  3.239355  0  0  -0.327373  0  3.4979  0  0  -0.346971  0  3.505768  0  0  -0.489788  -0.313874  0  3.492436  0
N  N70  1  0.72077669  0.93315205  0.12762093  1  0  -0.416009  0  3.239411  0  0  -0.327367  0  3.497942  0  0  -0.346962  0  3.505815  0  0  -0.489787  -0.313867  0  3.492477  0
N  N71  1  0.77922551  0.06684648  0.62762040  1  0  -0.41602  0  3.239414  0  0  -0.327371  0  3.497934  0  0  -0.346977  0  3.50582  0  0  -0.48977  -0.313872  0  3.492469  0
O  O72  1  0.04752859  0.87240816  0.99826022  1  0  -0.758635  0  2.095416  0  0  -0.662696  0  2.397879  0  0  -0.687566  0  2.375346  0  0  -0.389427  -0.645577  0  2.412896  0
O  O73  1  0.45247157  0.12759182  0.49826047  1  0  -0.758594  0  2.09542  0  0  -0.662652  0  2.397885  0  0  -0.68752  0  2.375349  0  0  -0.389423  -0.64553  0  2.4129  0
O  O74  1  0.95247270  0.37240773  0.50173983  1  0  -0.758615  0  2.095364  0  0  -0.6627  0  2.397842  0  0  -0.687572  0  2.37531  0  0  -0.389442  -0.645579  0  2.41286  0
O  O75  1  0.54752808  0.62759190  0.00173939  1  0  -0.758625  0  2.095394  0  0  -0.66271  0  2.397871  0  0  -0.687579  0  2.375336  0  0  -0.38943  -0.645589  0  2.412887  0
O  O76  1  0.35583563  0.95900417  0.93512179  1  0  -0.721474  0  2.056466  0  0  -0.633743  0  2.364573  0  0  -0.659371  0  2.344866  0  0  -0.391888  -0.615555  0  2.377383  0
O  O77  1  0.14416449  0.04099576  0.43512114  1  0  -0.72142  0  2.056388  0  0  -0.633712  0  2.36453  0  0  -0.65934  0  2.344822  0  0  -0.391877  -0.615522  0  2.37734  0
O  O78  1  0.64416429  0.45900497  0.56487911  1  0  -0.721451  0  2.056389  0  0  -0.633725  0  2.364493  0  0  -0.659347  0  2.344778  0  0  -0.391892  -0.615534  0  2.3773  0
O  O79  1  0.85583514  0.54099472  0.06487869  1  0  -0.721457  0  2.056473  0  0  -0.633724  0  2.364571  0  0  -0.659347  0  2.344858  0  0  -0.391887  -0.615532  0  2.377377  0
O  O80  1  0.26723850  0.99649772  0.12895148  1  0  -0.68065  0  1.978994  0  0  -0.621508  0  2.24865  0  0  -0.645537  0  2.238106  0  0  -0.371068  -0.604387  0  2.254324  0
O  O81  1  0.23276149  0.00350196  0.62895174  1  0  -0.680637  0  1.978967  0  0  -0.621487  0  2.248624  0  0  -0.645516  0  2.238078  0  0  -0.371055  -0.604365  0  2.254295  0
O  O82  1  0.73276257  0.49649878  0.37104853  1  0  -0.680646  0  1.979017  0  0  -0.621495  0  2.248653  0  0  -0.645522  0  2.238107  0  0  -0.371052  -0.604372  0  2.254324  0
O  O83  1  0.76723837  0.50350236  0.87104899  1  0  -0.680627  0  1.97899  0  0  -0.621479  0  2.248644  0  0  -0.645508  0  2.238099  0  0  -0.371056  -0.604358  0  2.254314  0
