# generated using pymatgen
data_ZnH15C18N3O7
_symmetry_space_group_name_H-M   'P 1'
_cell_length_a   9.32500796
_cell_length_b   9.30873814
_cell_length_c   11.67461598
_cell_angle_alpha   67.21174848
_cell_angle_beta   81.52903700
_cell_angle_gamma   80.55809776
_symmetry_Int_Tables_number   1
_chemical_formula_structural   ZnH15C18N3O7
_chemical_formula_sum   'Zn2 H30 C36 N6 O14'
_cell_volume   917.72494402
_cell_formula_units_Z   2
loop_
 _symmetry_equiv_pos_site_id
 _symmetry_equiv_pos_as_xyz
  1  'x, y, z'
loop_
 _atom_site_type_symbol
 _atom_site_label
 _atom_site_symmetry_multiplicity
 _atom_site_fract_x
 _atom_site_fract_y
 _atom_site_fract_z
 _atom_site_occupancy
 _atom_site_pbe_bader_spin_density
 _atom_site_pbe_cm5_charge
 _atom_site_pbe_ddec_charge
 _atom_site_pbe_ddec_spin_density
 _atom_site_pbe_ddec_sum_bond_order
 _atom_site_pbe_magmom
Zn  Zn0  1  0.03459661  0.48254604  0.28816818  1  0  0.689324  0.838293  0  2.307328  0
Zn  Zn1  1  0.96540387  0.51745584  0.71183162  1  0  0.689317  0.838239  0  2.307356  0
H  H2  1  0.17052855  0.79939432  0.14666450  1  0  0.116965  0.083835  0  1.02083  0
H  H3  1  0.82947516  0.20060756  0.85333318  1  0  0.116983  0.083856  0  1.020827  0
H  H4  1  0.33943458  0.91505136  0.95311089  1  0  0.109039  0.116325  0  0.994621  0
H  H5  1  0.66057183  0.08494583  0.04688877  1  0  0.109059  0.116359  0  0.994586  0
H  H6  1  0.42633024  0.75646068  0.81840181  1  0  0.107529  0.109636  0  1.035175  0
H  H7  1  0.57367307  0.24353533  0.18159947  1  0  0.107514  0.109617  0  1.035141  0
H  H8  1  0.33551743  0.49658517  0.87737161  1  0  0.111837  0.125598  0  0.998393  0
H  H9  1  0.66448261  0.50341083  0.12262923  1  0  0.111835  0.125608  0  0.998374  0
H  H10  1  0.21251239  0.24732671  0.94589393  1  0  0.110082  0.14005  0  1.036116  0
H  H11  1  0.78748497  0.75267399  0.05410664  1  0  0.110104  0.140081  0  1.036047  0
H  H12  1  0.03417417  0.03301741  0.11391356  1  0  0.130957  0.133443  0  1.003523  0
H  H13  1  0.96582428  0.96698329  0.88608773  1  0  0.130946  0.133437  0  1.003561  0
H  H14  1  0.96997980  0.06840522  0.40090214  1  0  0.111394  0.140459  0  1.025905  0
H  H15  1  0.03001878  0.93159430  0.59909864  1  0  0.111404  0.140474  0  1.025926  0
H  H16  1  0.87739100  0.01427891  0.30178007  1  0  0.110587  0.141609  0  1.041485  0
H  H17  1  0.12260852  0.98572179  0.69821937  1  0  0.110587  0.141617  0  1.041486  0
H  H18  1  0.81876029  0.19560163  0.32664725  1  0  0.113026  0.142216  0  0.975823  0
H  H19  1  0.18123816  0.80439907  0.67335318  1  0  0.113042  0.142259  0  0.975796  0
H  H20  1  0.57049099  0.51772934  0.32701086  1  0  0.106852  0.112357  0  1.018138  0
H  H21  1  0.42950771  0.48226901  0.67299027  1  0  0.106868  0.112369  0  1.018143  0
H  H22  1  0.64253393  0.96277351  0.32409828  1  0  0.108803  0.10889  0  1.034553  0
H  H23  1  0.35746585  0.03722483  0.67590186  1  0  0.108801  0.10888  0  1.034548  0
H  H24  1  0.40420670  0.25894708  0.37240187  1  0  0.312133  0.389607  0  0.950236  0
H  H25  1  0.59578958  0.74105362  0.62759884  1  0  0.312203  0.389656  0  0.950173  0
H  H26  1  0.20845109  0.82388141  0.41210061  1  0  0.111965  0.118021  0  1.027378  0
H  H27  1  0.79155063  0.17611931  0.58790111  1  0  0.111953  0.117979  0  1.027369  0
H  H28  1  0.97334213  0.32389749  0.53172055  1  0  0.298162  0.400295  0  0.929638  0
H  H29  1  0.02666041  0.67610557  0.46827948  1  0  0.298165  0.400341  0  0.929598  0
H  H30  1  0.10454701  0.22297640  0.47496283  1  0  0.300372  0.390963  0  0.940563  0
H  H31  1  0.89545820  0.77702196  0.52503747  1  0  0.300381  0.390967  0  0.94056  0
C  C32  1  0.21085296  0.73754608  0.08373465  1  0  0.049939  0.099263  0  3.965954  0
C  C33  1  0.78914994  0.26245345  0.91626472  1  0  0.049896  0.099203  0  3.966062  0
C  C34  1  0.30508869  0.79968840  0.97733746  1  0  -0.085934  -0.136448  0  3.968311  0
C  C35  1  0.69491529  0.20031113  0.02266177  1  0  -0.085934  -0.13645  0  3.968272  0
C  C36  1  0.35248293  0.71175844  0.90239456  1  0  -0.066069  -0.020322  0  3.951849  0
C  C37  1  0.64751901  0.28823991  0.09760531  1  0  -0.06602  -0.020255  0  3.95168  0
C  C38  1  0.30268120  0.56670870  0.93503020  1  0  -0.076935  -0.150279  0  3.901671  0
C  C39  1  0.69731967  0.43328966  0.06497065  1  0  -0.076949  -0.150306  0  3.901647  0
C  C40  1  0.20739354  0.51238490  0.04305950  1  0  0.126265  0.195417  0  4.002771  0
C  C41  1  0.79260598  0.48761580  0.95693994  1  0  0.126246  0.195402  0  4.002787  0
C  C42  1  0.14645278  0.36361661  0.08527830  1  0  0.091975  0.101565  0  4.076449  0
C  C43  1  0.85354567  0.63638409  0.91472214  1  0  0.091942  0.101539  0  4.076481  0
C  C44  1  0.15519197  0.24851557  0.03312072  1  0  -0.10932  -0.237949  0  3.991352  0
C  C45  1  0.84480660  0.75148395  0.96688007  1  0  -0.10933  -0.237927  0  3.9913  0
C  C46  1  0.06589441  0.13945614  0.11512596  1  0  0.028082  -0.062505  0  3.88295  0
C  C47  1  0.93410512  0.86054456  0.88487433  1  0  0.028096  -0.062526  0  3.882963  0
C  C48  1  0.91244251  0.11187369  0.31676868  1  0  -0.132774  -0.330345  0  3.855169  0
C  C49  1  0.08755498  0.88812583  0.68323224  1  0  -0.132784  -0.330402  0  3.855259  0
C  C50  1  0.27748138  0.55011320  0.36628798  1  0  0.214958  0.590115  0  4.184965  0
C  C51  1  0.72251707  0.44988750  0.63371245  1  0  0.214949  0.590042  0  4.184781  0
C  C52  1  0.37798078  0.65990898  0.36710070  1  0  -0.018758  -0.045538  0  3.979545  0
C  C53  1  0.62201792  0.34008937  0.63290043  1  0  -0.018753  -0.045482  0  3.979417  0
C  C54  1  0.52792915  0.62821581  0.33791926  1  0  -0.069321  -0.087546  0  3.917821  0
C  C55  1  0.47206969  0.37178137  0.66208222  1  0  -0.06931  -0.087547  0  3.9179  0
C  C56  1  0.62325512  0.73764430  0.32092116  1  0  -0.021385  -0.042057  0  3.978155  0
C  C57  1  0.37674563  0.26235524  0.67908020  1  0  -0.021374  -0.042057  0  3.978178  0
C  C58  1  0.78402470  0.70549777  0.28531673  1  0  0.197272  0.563653  0  4.241992  0
C  C59  1  0.21597222  0.29450642  0.71467938  1  0  0.1972  0.563482  0  4.242051  0
C  C60  1  0.56803617  0.87812894  0.33696726  1  0  -0.071337  -0.093341  0  3.923408  0
C  C61  1  0.43196282  0.12186708  0.66303628  1  0  -0.071289  -0.09328  0  3.92321  0
C  C62  1  0.41943312  0.90722801  0.37262981  1  0  -0.022757  -0.05974  0  4.014566  0
C  C63  1  0.58056816  0.09276683  0.62737295  1  0  -0.022734  -0.059644  0  4.014566  0
C  C64  1  0.35935348  0.05218816  0.39635308  1  0  0.236827  0.5847  0  4.118338  0
C  C65  1  0.64062688  0.94781018  0.60365638  1  0  0.23664  0.584572  0  4.117736  0
C  C66  1  0.32416474  0.79880218  0.38645256  1  0  -0.066271  -0.081448  0  3.889996  0
C  C67  1  0.67583318  0.20119384  0.61355197  1  0  -0.066223  -0.081403  0  3.889979  0
N  N68  1  0.16368702  0.59737449  0.11613456  1  0  -0.315743  -0.281944  0  3.52269  0
N  N69  1  0.83631236  0.40262738  0.88386453  1  0  -0.31575  -0.281961  0  3.522733  0
N  N70  1  0.01011291  0.18945758  0.20917043  1  0  -0.129625  0.271517  0  3.754202  0
N  N71  1  0.98988663  0.81054312  0.79083072  1  0  -0.129542  0.271612  0  3.754243  0
N  N72  1  0.05829380  0.32479119  0.19283788  1  0  -0.231467  -0.26988  0  3.35974  0
N  N73  1  0.94170451  0.67521068  0.80716221  1  0  -0.231539  -0.269983  0  3.359826  0
O  O74  1  0.13921690  0.59548765  0.37090639  1  0  -0.311379  -0.559997  0  2.35974  0
O  O75  1  0.86078140  0.40451421  0.62909283  1  0  -0.311423  -0.560001  0  2.359705  0
O  O76  1  0.33054868  0.42561207  0.34952581  1  0  -0.320054  -0.576734  0  2.267568  0
O  O77  1  0.66944876  0.57438744  0.65047170  1  0  -0.320007  -0.576639  0  2.267428  0
O  O78  1  0.82564762  0.56235404  0.29320127  1  0  -0.337753  -0.560524  0  2.330878  0
O  O79  1  0.17435449  0.43765252  0.70679601  1  0  -0.33775  -0.560481  0  2.330718  0
O  O80  1  0.86388868  0.81331153  0.25029806  1  0  -0.32977  -0.561266  0  2.134938  0
O  O81  1  0.13610534  0.18669850  0.74969145  1  0  -0.329716  -0.561145  0  2.135147  0
O  O82  1  0.45483890  0.15590172  0.36660822  1  0  -0.327295  -0.494553  0  2.340338  0
O  O83  1  0.54516317  0.84409546  0.63339200  1  0  -0.32728  -0.494532  0  2.340637  0
O  O84  1  0.23220393  0.07326796  0.44005093  1  0  -0.276433  -0.495504  0  2.229889  0
O  O85  1  0.76780900  0.92672803  0.55994057  1  0  -0.276409  -0.495585  0  2.228762  0
O  O86  1  0.01233482  0.29354411  0.45942852  1  0  -0.573979  -0.749929  0  2.186716  0
O  O87  1  0.98766744  0.70646129  0.54056995  1  0  -0.574002  -0.749964  0  2.186631  0
