# generated using pymatgen
data_HgH11PbC17N5Cl2
_symmetry_space_group_name_H-M   'P 1'
_cell_length_a   8.93594385
_cell_length_b   14.52657721
_cell_length_c   14.54000000
_cell_angle_alpha   90.00000000
_cell_angle_beta   95.73231148
_cell_angle_gamma   90.00000000
_symmetry_Int_Tables_number   1
_chemical_formula_structural   HgH11PbC17N5Cl2
_chemical_formula_sum   'Hg4 H44 Pb4 C68 N20 Cl8'
_cell_volume   1877.97995956
_cell_formula_units_Z   4
loop_
 _symmetry_equiv_pos_site_id
 _symmetry_equiv_pos_as_xyz
  1  'x, y, z'
loop_
 _atom_site_type_symbol
 _atom_site_label
 _atom_site_symmetry_multiplicity
 _atom_site_fract_x
 _atom_site_fract_y
 _atom_site_fract_z
 _atom_site_occupancy
 _atom_site_hle17_bader_spin_density
 _atom_site_hle17_ddec_charge
 _atom_site_hle17_ddec_spin_density
 _atom_site_hle17_ddec_sum_bond_order
 _atom_site_hle17_magmom
 _atom_site_hse06_10hf_bader_spin_density
 _atom_site_hse06_10hf_ddec_charge
 _atom_site_hse06_10hf_ddec_spin_density
 _atom_site_hse06_10hf_ddec_sum_bond_order
 _atom_site_hse06_10hf_magmom
 _atom_site_hse06_bader_spin_density
 _atom_site_hse06_ddec_charge
 _atom_site_hse06_ddec_spin_density
 _atom_site_hse06_ddec_sum_bond_order
 _atom_site_hse06_magmom
 _atom_site_pbe_bader_charge
 _atom_site_pbe_bader_spin_density
 _atom_site_pbe_cm5_charge
 _atom_site_pbe_ddec_charge
 _atom_site_pbe_ddec_spin_density
 _atom_site_pbe_ddec_sum_bond_order
 _atom_site_pbe_magmom
Hg  Hg0  1  0.61074479  0.37028544  0.51465461  1  0  0.643274  0  2.385015  0  0  0.509761  0  2.886582  0  0  0.543819  0  2.854248  0  0.741688  0  0.505666  0.486492  0  2.90838  0
Hg  Hg1  1  0.88925091  0.87028829  0.98534478  1  0  0.643189  0  2.38531  0  0  0.509683  0  2.886905  0  0  0.543742  0  2.854571  0  0.741765  0  0.505643  0.486419  0  2.908693  0
Hg  Hg2  1  0.38926547  0.62971613  0.48534602  1  0  0.643221  0  2.385188  0  0  0.509703  0  2.886773  0  0  0.543762  0  2.854442  0  0.741791  0  0.50562  0.486435  0  2.908564  0
Hg  Hg3  1  0.11073573  0.12970571  0.01465371  1  0  0.643272  0  2.385184  0  0  0.509781  0  2.886751  0  0  0.543834  0  2.85442  0  0.741992  0  0.505658  0.486526  0  2.908522  0
H  H4  1  0.05156188  0.53633075  0.23770843  1  0  0.079007  0  0.958623  0  0  0.087456  0  1.022921  0  0  0.08948  0  1.022007  0  0.092113  0  0.114519  0.085977  0  1.023619  0
H  H5  1  0.44843594  0.03632927  0.26229041  1  0  0.079046  0  0.958644  0  0  0.087495  0  1.022926  0  0  0.089519  0  1.022014  0  0.092479  0  0.114561  0.086016  0  1.023625  0
H  H6  1  0.94843938  0.46367289  0.76228959  1  0  0.07895  0  0.958711  0  0  0.087391  0  1.023004  0  0  0.089415  0  1.022092  0  0.092503  0  0.114513  0.085913  0  1.0237  0
H  H7  1  0.55156307  0.96367092  0.73771022  1  0  0.07899  0  0.958653  0  0  0.087434  0  1.022954  0  0  0.089457  0  1.022043  0  0.092512  0  0.114525  0.085955  0  1.023651  0
H  H8  1  0.92444503  0.65991939  0.13698933  1  0  0.114194  0  0.960025  0  0  0.122085  0  1.021379  0  0  0.125227  0  1.020627  0  0.100067  0  0.102738  0.119788  0  1.022103  0
H  H9  1  0.57555967  0.15991861  0.36300167  1  0  0.114174  0  0.960048  0  0  0.122077  0  1.021379  0  0  0.125228  0  1.020618  0  0.099944  0  0.102771  0.11978  0  1.022103  0
H  H10  1  0.07555511  0.34008355  0.86300655  1  0  0.114223  0  0.960043  0  0  0.122079  0  1.021429  0  0  0.125219  0  1.020684  0  0.099968  0  0.102783  0.119791  0  1.022145  0
H  H11  1  0.42444271  0.84008296  0.63699229  1  0  0.114169  0  0.960097  0  0  0.122071  0  1.021441  0  0  0.125213  0  1.02069  0  0.100014  0  0.102751  0.119773  0  1.022166  0
H  H12  1  0.71252791  0.61527777  0.02095134  1  0  0.097214  0  0.960773  0  0  0.103908  0  1.029461  0  0  0.10711  0  1.026444  0  0.09506  0  0.0974  0.101497  0  1.031779  0
H  H13  1  0.78747230  0.11527630  0.47904351  1  0  0.097303  0  0.960749  0  0  0.103928  0  1.029505  0  0  0.10713  0  1.02649  0  0.095055  0  0.097413  0.101518  0  1.031823  0
H  H14  1  0.28746436  0.38472311  0.97904749  1  0  0.097207  0  0.9609  0  0  0.103907  0  1.029574  0  0  0.107108  0  1.026557  0  0.095094  0  0.097389  0.101495  0  1.031894  0
H  H15  1  0.21253009  0.88471908  0.52095457  1  0  0.097209  0  0.960795  0  0  0.103919  0  1.029467  0  0  0.107121  0  1.026451  0  0.095063  0  0.097414  0.101507  0  1.031789  0
H  H16  1  0.62895144  0.45075037  0.01239945  1  0  0.094583  0  0.975463  0  0  0.106114  0  1.037061  0  0  0.108616  0  1.037028  0  0.077963  0  0.102852  0.104367  0  1.037087  0
H  H17  1  0.87104314  0.95074909  0.48760331  1  0  0.094555  0  0.975488  0  0  0.106103  0  1.037068  0  0  0.108611  0  1.037021  0  0.077807  0  0.102869  0.104358  0  1.037091  0
H  H18  1  0.37104195  0.54924983  0.98760633  1  0  0.094515  0  0.975509  0  0  0.106081  0  1.03706  0  0  0.108579  0  1.037036  0  0.089619  0  0.102859  0.104337  0  1.037081  0
H  H19  1  0.12895474  0.04924904  0.51239794  1  0  0.094548  0  0.975479  0  0  0.106075  0  1.037074  0  0  0.108577  0  1.03704  0  0.077998  0  0.102842  0.10433  0  1.037098  0
H  H20  1  0.47514532  0.16191633  0.03566791  1  0  0.094777  0  0.982233  0  0  0.101713  0  1.048521  0  0  0.104244  0  1.046903  0  0.145823  0  0.093367  0.099821  0  1.049766  0
H  H21  1  0.02485587  0.66191918  0.46433526  1  0  0.094712  0  0.982241  0  0  0.101715  0  1.048465  0  0  0.104246  0  1.046848  0  0.145278  0  0.093365  0.099822  0  1.049711  0
H  H22  1  0.52486381  0.83808731  0.96434159  1  0  0.094654  0  0.982343  0  0  0.101669  0  1.048584  0  0  0.104201  0  1.046966  0  0.145588  0  0.093329  0.099774  0  1.049835  0
H  H23  1  0.97514314  0.33808102  0.53566331  1  0  0.094723  0  0.982246  0  0  0.101686  0  1.048508  0  0  0.104218  0  1.04689  0  0.14576  0  0.093349  0.099794  0  1.049755  0
H  H24  1  0.53906653  0.32663579  0.03590255  1  0  0.102633  0  0.95461  0  0  0.113737  0  1.0162  0  0  0.116812  0  1.014983  0  0.083506  0  0.106416  0.11153  0  1.017182  0
H  H25  1  0.96093255  0.82663864  0.46409430  1  0  0.10264  0  0.954638  0  0  0.113753  0  1.016202  0  0  0.11683  0  1.014988  0  0.083507  0  0.106428  0.111541  0  1.017195  0
H  H26  1  0.46094261  0.67336372  0.96410283  1  0  0.102569  0  0.954598  0  0  0.113689  0  1.016172  0  0  0.116769  0  1.014962  0  0.083355  0  0.106414  0.111481  0  1.017156  0
H  H27  1  0.03906646  0.17336431  0.53590358  1  0  0.102617  0  0.95464  0  0  0.113694  0  1.016248  0  0  0.116772  0  1.015037  0  0.083538  0  0.106414  0.111491  0  1.01722  0
H  H28  1  0.64879002  0.05133074  0.12203126  1  0  0.115416  0  0.951611  0  0  0.125533  0  1.011714  0  0  0.128652  0  1.010646  0  0.109996  0  0.109672  0.123344  0  1.012532  0
H  H29  1  0.85120906  0.55133222  0.37797453  1  0  0.115411  0  0.951762  0  0  0.125562  0  1.011779  0  0  0.128679  0  1.010715  0  0.110024  0  0.109683  0.123374  0  1.012594  0
H  H30  1  0.35121461  0.94867083  0.87798003  1  0  0.115424  0  0.951605  0  0  0.125565  0  1.011667  0  0  0.128681  0  1.010603  0  0.110136  0  0.109688  0.123375  0  1.012485  0
H  H31  1  0.14878433  0.44866866  0.62202576  1  0  0.115483  0  0.951571  0  0  0.125613  0  1.011639  0  0  0.128731  0  1.010572  0  0.110159  0  0.109724  0.123422  0  1.012462  0
H  H32  1  0.81817099  0.96642931  0.16759506  1  0  0.09863  0  1.006293  0  0  0.104401  0  1.078088  0  0  0.108041  0  1.076091  0  0.110642  0  0.089946  0.101738  0  1.079728  0
H  H33  1  0.68183484  0.46642853  0.33240289  1  0  0.098571  0  1.006372  0  0  0.104346  0  1.078152  0  0  0.107999  0  1.076127  0  0.11053  0  0.089936  0.101669  0  1.079826  0
H  H34  1  0.18182352  0.03357708  0.83240529  1  0  0.098735  0  1.006209  0  0  0.104498  0  1.078001  0  0  0.108132  0  1.076012  0  0.110671  0  0.090003  0.101819  0  1.079651  0
H  H35  1  0.31817205  0.53357235  0.66759340  1  0  0.098657  0  1.006262  0  0  0.10442  0  1.078065  0  0  0.108068  0  1.076042  0  0.110636  0  0.089949  0.101753  0  1.079708  0
H  H36  1  0.01164065  0.86884266  0.25226476  1  0  0.104347  0  0.934688  0  0  0.11264  0  0.995985  0  0  0.11554  0  0.994448  0  0.081515  0  0.104987  0.110534  0  0.997096  0
H  H37  1  0.48836505  0.36883843  0.24773662  1  0  0.104398  0  0.934645  0  0  0.112661  0  0.995969  0  0  0.115556  0  0.994442  0  0.081406  0  0.105007  0.110555  0  0.997079  0
H  H38  1  0.98836174  0.13116028  0.74773332  1  0  0.104359  0  0.934728  0  0  0.112672  0  0.995998  0  0  0.11557  0  0.994464  0  0.081462  0  0.105  0.110567  0  0.997108  0
H  H39  1  0.51163622  0.63115763  0.75226208  1  0  0.104362  0  0.934635  0  0  0.112637  0  0.99596  0  0  0.115537  0  0.994423  0  0.081492  0  0.104962  0.110532  0  0.997071  0
H  H40  1  0.21874068  0.94281260  0.35529110  1  0  0.103168  0  0.987908  0  0  0.110201  0  1.053424  0  0  0.113335  0  1.052959  0  0.112885  0  0.095119  0.107884  0  1.05398  0
H  H41  1  0.28125826  0.44280493  0.14471743  1  0  0.103187  0  0.987875  0  0  0.110176  0  1.053426  0  0  0.11336  0  1.052907  0  0.112969  0  0.095116  0.107863  0  1.053975  0
H  H42  1  0.78126508  0.05719104  0.64470925  1  0  0.103111  0  0.987974  0  0  0.110176  0  1.053452  0  0  0.113309  0  1.05299  0  0.113122  0  0.095094  0.107858  0  1.054009  0
H  H43  1  0.71873175  0.55719044  0.85529090  1  0  0.103136  0  0.987986  0  0  0.110209  0  1.053448  0  0  0.113342  0  1.052985  0  0.113142  0  0.095117  0.107892  0  1.054003  0
H  H44  1  0.22334408  0.11677080  0.36621948  1  0  0.081902  0  0.965816  0  0  0.086825  0  1.035673  0  0  0.089965  0  1.032832  0  0.129509  0  0.112829  0.084576  0  1.037708  0
H  H45  1  0.27664362  0.61676263  0.13378423  1  0  0.081918  0  0.965839  0  0  0.086876  0  1.035655  0  0  0.090016  0  1.032813  0  0.12925  0  0.112887  0.084627  0  1.037688  0
H  H46  1  0.77666056  0.88323146  0.63378011  1  0  0.08191  0  0.965874  0  0  0.086844  0  1.035704  0  0  0.089983  0  1.032864  0  0.129388  0  0.112822  0.084596  0  1.037736  0
H  H47  1  0.72334190  0.38323136  0.86621969  1  0  0.081906  0  0.965801  0  0  0.086835  0  1.035645  0  0  0.089976  0  1.032801  0  0.129371  0  0.112835  0.084586  0  1.037679  0
Pb  Pb48  1  0.05803340  0.30961388  0.28384295  1  0  1.115316  0  1.671027  0  0  0.911958  0  2.103206  0  0  0.96559  0  2.065638  0  1.321397  0  0.531759  0.87415  0  2.12904  0
Pb  Pb49  1  0.44195317  0.80962086  0.21615519  1  0  1.115318  0  1.670937  0  0  0.911987  0  2.10308  0  0  0.965622  0  2.065512  0  1.321397  0  0.531793  0.874178  0  2.128911  0
Pb  Pb50  1  0.94192962  0.69036497  0.71616440  1  0  1.115447  0  1.670825  0  0  0.91211  0  2.102954  0  0  0.965753  0  2.065388  0  1.321526  0  0.531785  0.874274  0  2.128849  0
Pb  Pb51  1  0.55803797  0.19037382  0.78385733  1  0  1.115398  0  1.67084  0  0  0.912066  0  2.102971  0  0  0.965701  0  2.065401  0  1.321539  0  0.531796  0.874239  0  2.128836  0
C  C52  1  0.95781601  0.52043092  0.18620492  1  0  0.124749  0  3.711039  0  0  0.097571  0  3.958441  0  0  0.103818  0  3.977322  0  0.524999  0  0.051468  0.093582  0  3.945449  0
C  C53  1  0.54218420  0.02043014  0.31379269  1  0  0.124659  0  3.711171  0  0  0.097487  0  3.958576  0  0  0.103733  0  3.97746  0  0.524741  0  0.051452  0.093498  0  3.945585  0
C  C54  1  0.04219200  0.47957064  0.81379351  1  0  0.124636  0  3.710945  0  0  0.0975  0  3.958328  0  0  0.103746  0  3.977213  0  0.524807  0  0.051424  0.093513  0  3.945336  0
C  C55  1  0.45781257  0.97956868  0.68620505  1  0  0.124574  0  3.71093  0  0  0.097402  0  3.958353  0  0  0.10365  0  3.977238  0  0.524655  0  0.051372  0.093417  0  3.945356  0
C  C56  1  0.88726919  0.58873538  0.13049755  1  0  -0.09663  0  3.693826  0  0  -0.110069  0  3.94025  0  0  -0.116063  0  3.960676  0  -0.032852  0  -0.079316  -0.106224  0  3.926566  0
C  C57  1  0.61273439  0.08873598  0.36949751  1  0  -0.096539  0  3.693895  0  0  -0.109981  0  3.940294  0  0  -0.115981  0  3.960713  0  -0.032887  0  -0.079358  -0.106136  0  3.92661  0
C  C58  1  0.11273319  0.41126343  0.86950053  1  0  -0.096483  0  3.693815  0  0  -0.109918  0  3.940271  0  0  -0.115908  0  3.960682  0  -0.032968  0  -0.079303  -0.106083  0  3.926584  0
C  C59  1  0.38727025  0.91126353  0.63049590  1  0  -0.096501  0  3.693925  0  0  -0.109973  0  3.940384  0  0  -0.115967  0  3.960808  0  -0.032884  0  -0.079349  -0.106128  0  3.926698  0
C  C60  1  0.76756736  0.56327722  0.06667241  1  0  0.003745  0  3.7087  0  0  -0.0146  0  3.958081  0  0  -0.011089  0  3.975759  0  0.022589  0  -0.067385  -0.016666  0  3.946022  0
C  C61  1  0.73243285  0.06327781  0.43332450  1  0  0.003673  0  3.708838  0  0  -0.014624  0  3.958213  0  0  -0.011113  0  3.975895  0  0.022658  0  -0.06739  -0.01669  0  3.946152  0
C  C62  1  0.23242716  0.43672160  0.93332587  1  0  0.003667  0  3.708837  0  0  -0.014671  0  3.958215  0  0  -0.011162  0  3.975906  0  0.022616  0  -0.067421  -0.016738  0  3.946158  0
C  C63  1  0.26757516  0.93672169  0.56667186  1  0  0.003678  0  3.708796  0  0  -0.014667  0  3.95818  0  0  -0.011164  0  3.975878  0  0.022618  0  -0.067408  -0.016731  0  3.946116  0
C  C64  1  0.72176844  0.47162796  0.06214855  1  0  -0.147697  0  3.706577  0  0  -0.164372  0  3.949299  0  0  -0.171723  0  3.971622  0  -0.076882  0  -0.082254  -0.159542  0  3.93425  0
C  C65  1  0.77822839  0.97162806  0.43785022  1  0  -0.147679  0  3.706654  0  0  -0.164342  0  3.949369  0  0  -0.171705  0  3.971682  0  -0.076656  0  -0.08224  -0.159516  0  3.934319  0
C  C66  1  0.27822720  0.52837292  0.93785187  1  0  -0.147559  0  3.706483  0  0  -0.164226  0  3.949205  0  0  -0.171591  0  3.971515  0  -0.088472  0  -0.082212  -0.159395  0  3.934149  0
C  C67  1  0.22177512  0.02837282  0.56214725  1  0  -0.147534  0  3.706465  0  0  -0.164185  0  3.94916  0  0  -0.17154  0  3.971486  0  -0.076829  0  -0.082182  -0.159353  0  3.934109  0
C  C68  1  0.57903050  0.18561702  0.07371748  1  0  0.020017  0  3.709838  0  0  0.002975  0  3.955469  0  0  0.00653  0  3.973775  0  0.051262  0  -0.062929  0.000865  0  3.942981  0
C  C69  1  0.92096858  0.68561849  0.42628075  1  0  0.020159  0  3.709726  0  0  0.00304  0  3.955361  0  0  0.006596  0  3.973669  0  0.051948  0  -0.062867  0.000931  0  3.942871  0
C  C70  1  0.42097639  0.81438592  0.92628639  1  0  0.020081  0  3.709813  0  0  0.002929  0  3.95549  0  0  0.006486  0  3.973795  0  0.051819  0  -0.062951  0.000822  0  3.942994  0
C  C71  1  0.07903155  0.31438514  0.57371720  1  0  0.020068  0  3.709893  0  0  0.003014  0  3.955479  0  0  0.006569  0  3.973787  0  0.051325  0  -0.062913  0.000904  0  3.942989  0
C  C72  1  0.61604663  0.27848818  0.07320427  1  0  -0.117908  0  3.674892  0  0  -0.140192  0  3.927112  0  0  -0.146278  0  3.946518  0  -0.012277  0  -0.071773  -0.136262  0  3.91411  0
C  C73  1  0.88395470  0.77849103  0.42679065  1  0  -0.117946  0  3.674959  0  0  -0.140227  0  3.927153  0  0  -0.146321  0  3.94657  0  -0.012312  0  -0.071842  -0.136303  0  3.914143  0
C  C74  1  0.38396138  0.72151202  0.92679416  1  0  -0.117867  0  3.674791  0  0  -0.140119  0  3.927019  0  0  -0.146227  0  3.946432  0  -0.012277  0  -0.071803  -0.136169  0  3.914034  0
C  C75  1  0.11605106  0.22151192  0.57320626  1  0  -0.117951  0  3.674945  0  0  -0.140178  0  3.927125  0  0  -0.146274  0  3.946546  0  -0.012247  0  -0.071784  -0.136243  0  3.914131  0
C  C76  1  0.75087681  0.30831007  0.12149794  1  0  0.189112  0  3.74165  0  0  0.181839  0  3.986921  0  0  0.189276  0  4.006009  0  0.471895  0  0.128179  0.176889  0  3.973943  0
C  C77  1  0.74912115  0.80830948  0.37850021  1  0  0.188982  0  3.741935  0  0  0.181774  0  3.987177  0  0  0.1892  0  4.006262  0  0.471876  0  0.128174  0.176843  0  3.974171  0
C  C78  1  0.24913233  0.69169150  0.87850193  1  0  0.189196  0  3.741629  0  0  0.181907  0  3.986937  0  0  0.189364  0  4.00597  0  0.472297  0  0.128228  0.176893  0  3.974043  0
C  C79  1  0.25087674  0.19168865  0.62149828  1  0  0.189201  0  3.741633  0  0  0.181893  0  3.986924  0  0  0.189326  0  4.006016  0  0.471781  0  0.128182  0.176927  0  3.973972  0
C  C80  1  0.79674770  0.40660094  0.12152072  1  0  0.18463  0  3.750105  0  0  0.181209  0  3.987805  0  0  0.187909  0  4.008317  0  0.505066  0  0.126355  0.176689  0  3.973933  0
C  C81  1  0.70325138  0.90660104  0.37847751  1  0  0.184687  0  3.750093  0  0  0.18119  0  3.987883  0  0  0.187928  0  4.008339  0  0.505027  0  0.126379  0.176672  0  3.973994  0
C  C82  1  0.20326256  0.59340338  0.87847854  1  0  0.184589  0  3.749928  0  0  0.181118  0  3.987749  0  0  0.18785  0  4.008194  0  0.504612  0  0.126376  0.176624  0  3.973871  0
C  C83  1  0.29674538  0.09340191  0.62152023  1  0  0.184586  0  3.75005  0  0  0.181165  0  3.987754  0  0  0.18787  0  4.008262  0  0.504995  0  0.126343  0.176647  0  3.973892  0
C  C84  1  0.67697726  0.12415864  0.12162878  1  0  -0.129837  0  3.674773  0  0  -0.147251  0  3.916793  0  0  -0.15432  0  3.938526  0  -0.088688  0  -0.07468  -0.142603  0  3.902065  0
C  C85  1  0.82301957  0.62416011  0.37837068  1  0  -0.129919  0  3.675018  0  0  -0.147329  0  3.917086  0  0  -0.154399  0  3.938826  0  -0.088674  0  -0.074694  -0.14268  0  3.902358  0
C  C86  1  0.32302850  0.87584225  0.87837432  1  0  -0.129885  0  3.674983  0  0  -0.147317  0  3.917062  0  0  -0.154383  0  3.938801  0  -0.089313  0  -0.074692  -0.14267  0  3.902337  0
C  C87  1  0.17697494  0.37584353  0.62162692  1  0  -0.129949  0  3.674991  0  0  -0.147393  0  3.917041  0  0  -0.154458  0  3.938778  0  -0.088915  0  -0.074729  -0.142743  0  3.902313  0
C  C88  1  0.80947593  0.15790437  0.16965760  1  0  0.172795  0  3.769948  0  0  0.168755  0  4.014252  0  0  0.17513  0  4.034922  0  0.510771  0  0.121193  0.16451  0  4.000201  0
C  C89  1  0.69051865  0.65790378  0.33034722  1  0  0.172959  0  3.769626  0  0  0.168905  0  4.013991  0  0  0.175276  0  4.034665  0  0.51035  0  0.12118  0.16466  0  3.999939  0
C  C90  1  0.19053545  0.84209445  0.83034378  1  0  0.17296  0  3.770061  0  0  0.168921  0  4.014337  0  0  0.175291  0  4.035011  0  0.511355  0  0.121251  0.164678  0  4.000277  0
C  C91  1  0.30947137  0.34209366  0.66965629  1  0  0.172946  0  3.769872  0  0  0.168911  0  4.014164  0  0  0.175282  0  4.034839  0  0.511423  0  0.121209  0.164664  0  4.00011  0
C  C92  1  0.91855498  0.09495286  0.22149160  1  0  0.169545  0  3.775436  0  0  0.163852  0  4.019187  0  0  0.170447  0  4.040399  0  0.477415  0  0.118689  0.159484  0  4.004783  0
C  C93  1  0.58143511  0.59495226  0.27851570  1  0  0.169517  0  3.775003  0  0  0.163828  0  4.018768  0  0  0.170415  0  4.039989  0  0.477836  0  0.118668  0.159463  0  4.004359  0
C  C94  1  0.08145303  0.90504802  0.77850752  1  0  0.169527  0  3.775227  0  0  0.163894  0  4.018904  0  0  0.170488  0  4.040123  0  0.476904  0  0.118647  0.159526  0  4.004491  0
C  C95  1  0.41855378  0.40504724  0.72149325  1  0  0.169499  0  3.775273  0  0  0.163823  0  4.019014  0  0  0.170412  0  4.040226  0  0.476883  0  0.118676  0.159453  0  4.004607  0
C  C96  1  0.90874309  0.99897380  0.21171736  1  0  -0.157174  0  3.714976  0  0  -0.174238  0  3.963807  0  0  -0.18257  0  3.986692  0  0.003967  0  -0.088557  -0.168818  0  3.948512  0
C  C97  1  0.59125374  0.49897370  0.28828554  1  0  -0.157144  0  3.714858  0  0  -0.174222  0  3.963717  0  0  -0.182533  0  3.986569  0  0.004112  0  -0.088581  -0.168797  0  3.948414  0
C  C98  1  0.09125480  0.00102984  0.78828319  1  0  -0.157406  0  3.715156  0  0  -0.174521  0  3.964074  0  0  -0.182808  0  3.986857  0  0.003946  0  -0.088684  -0.169097  0  3.948817  0
C  C99  1  0.40874190  0.50102649  0.71171763  1  0  -0.157243  0  3.715066  0  0  -0.174319  0  3.963888  0  0  -0.182648  0  3.986781  0  0.003949  0  -0.08857  -0.16889  0  3.948593  0
C  C100  1  0.01698410  0.94349204  0.25979909  1  0  0.003469  0  3.713896  0  0  -0.01382  0  3.961834  0  0  -0.011029  0  3.982183  0  -0.048578  0  -0.066695  -0.015322  0  3.947839  0
C  C101  1  0.48301485  0.44348919  0.24020462  1  0  0.003483  0  3.713788  0  0  -0.013781  0  3.961722  0  0  -0.010992  0  3.982087  0  -0.048544  0  -0.06666  -0.015284  0  3.947727  0
C  C102  1  0.98301492  0.05651090  0.74020153  1  0  0.003476  0  3.713983  0  0  -0.013838  0  3.961935  0  0  -0.011043  0  3.982293  0  -0.048559  0  -0.066711  -0.01534  0  3.947932  0
C  C103  1  0.51697967  0.55650825  0.75979779  1  0  0.003463  0  3.713897  0  0  -0.013833  0  3.96187  0  0  -0.011039  0  3.982216  0  -0.048607  0  -0.066712  -0.015336  0  3.947874  0
C  C104  1  0.13245031  0.98463043  0.31702035  1  0  -0.122685  0  3.727243  0  0  -0.134548  0  3.976317  0  0  -0.14187  0  3.998396  0  7.8e-05  0  -0.08658  -0.129752  0  3.961415  0
C  C105  1  0.36754526  0.48462552  0.18298591  1  0  -0.122941  0  3.727476  0  0  -0.13477  0  3.976573  0  0  -0.142137  0  3.998626  0  -0.000142  0  -0.086697  -0.129975  0  3.961673  0
C  C106  1  0.86755545  0.01537114  0.68297932  1  0  -0.122592  0  3.727319  0  0  -0.134459  0  3.976364  0  0  -0.141793  0  3.998455  0  -0.000295  0  -0.08649  -0.12966  0  3.961452  0
C  C107  1  0.63244251  0.51536917  0.81702159  1  0  -0.122731  0  3.727357  0  0  -0.134606  0  3.9764  0  0  -0.141935  0  3.998483  0  -0.000184  0  -0.08655  -0.12981  0  3.961495  0
C  C108  1  0.13496964  0.08026116  0.32352575  1  0  0.121467  0  3.718207  0  0  0.092368  0  3.968834  0  0  0.099259  0  3.986323  0  0.430414  0  0.047278  0.087968  0  3.956752  0
C  C109  1  0.36502256  0.58025506  0.17647824  1  0  0.121571  0  3.718577  0  0  0.092423  0  3.969224  0  0  0.099312  0  3.986729  0  0.430671  0  0.047216  0.088026  0  3.957142  0
C  C110  1  0.86503612  0.91974109  0.67647047  1  0  0.121418  0  3.718348  0  0  0.092296  0  3.969  0  0  0.099186  0  3.986497  0  0.430573  0  0.047256  0.087904  0  3.95691  0
C  C111  1  0.63496409  0.41973962  0.82352851  1  0  0.12153  0  3.718259  0  0  0.092414  0  3.968911  0  0  0.099308  0  3.986399  0  0.430555  0  0.04727  0.088021  0  3.956823  0
C  C112  1  0.75530700  0.46747282  0.57574238  1  0  -0.02401  0  3.489876  0  0  -0.003817  0  3.824997  0  0  -0.005109  0  3.839961  0  0.794126  0  0.016816  -0.003142  0  3.814836  0
C  C113  1  0.74470108  0.96746947  0.92424883  1  0  -0.024059  0  3.489858  0  0  -0.00387  0  3.824989  0  0  -0.005163  0  3.839952  0  0.793889  0  0.01678  -0.003198  0  3.814836  0
C  C114  1  0.24471451  0.53252944  0.42424863  1  0  -0.024214  0  3.489879  0  0  -0.004021  0  3.825025  0  0  -0.005316  0  3.83999  0  0.793789  0  0.016765  -0.003347  0  3.814871  0
C  C115  1  0.25529119  0.03252383  0.07573969  1  0  -0.024119  0  3.489901  0  0  -0.003933  0  3.82504  0  0  -0.005224  0  3.840001  0  0.794113  0  0.016842  -0.003263  0  3.81489  0
C  C116  1  0.43054421  0.30174073  0.44791497  1  0  -0.00264  0  3.481823  0  0  0.013576  0  3.81662  0  0  0.012855  0  3.832205  0  0.800861  0  0.024166  0.013877  0  3.806054  0
C  C117  1  0.06944686  0.80174496  0.05207658  1  0  -0.00265  0  3.481629  0  0  0.013571  0  3.816425  0  0  0.012854  0  3.832004  0  0.800463  0  0.024152  0.01387  0  3.805861  0
C  C118  1  0.56948292  0.69825189  0.55207569  1  0  -0.002698  0  3.481519  0  0  0.01352  0  3.816326  0  0  0.012804  0  3.831911  0  0.800696  0  0.024044  0.013819  0  3.805755  0
C  C119  1  0.93053978  0.19825455  0.94791917  1  0  -0.002637  0  3.481779  0  0  0.01358  0  3.816566  0  0  0.012863  0  3.83215  0  0.800769  0  0.024164  0.013878  0  3.805999  0
N  N120  1  0.03087639  0.13373625  0.27723508  1  0  -0.351954  0  3.238763  0  0  -0.277819  0  3.482204  0  0  -0.297125  0  3.503813  0  -1.236802  0  -0.297779  -0.26466  0  3.467305  0
N  N121  1  0.46910905  0.63373360  0.22277056  1  0  -0.351884  0  3.238539  0  0  -0.27773  0  3.481986  0  0  -0.29703  0  3.503589  0  -1.236666  0  -0.297648  -0.264573  0  3.467087  0
N  N122  1  0.96913162  0.86626050  0.72275853  1  0  -0.351964  0  3.238344  0  0  -0.277847  0  3.481779  0  0  -0.297151  0  3.503387  0  -1.236737  0  -0.29781  -0.264688  0  3.466875  0
N  N123  1  0.53087309  0.36626316  0.77723866  1  0  -0.351954  0  3.238581  0  0  -0.277827  0  3.482022  0  0  -0.297128  0  3.503628  0  -1.23684  0  -0.297785  -0.264668  0  3.46712  0
N  N124  1  0.84355322  0.24839781  0.16967583  1  0  -0.366987  0  3.201366  0  0  -0.302253  0  3.445564  0  0  -0.320477  0  3.465212  0  -1.205288  0  -0.287348  -0.28976  0  3.431932  0
N  N125  1  0.65644136  0.74839929  0.33032693  1  0  -0.366933  0  3.201146  0  0  -0.302263  0  3.445392  0  0  -0.320489  0  3.465048  0  -1.205335  0  -0.287375  -0.289778  0  3.431758  0
N  N126  1  0.15645591  0.75160169  0.83032198  1  0  -0.36709  0  3.201287  0  0  -0.302341  0  3.445453  0  0  -0.320592  0  3.465136  0  -1.205316  0  -0.28734  -0.289829  0  3.431842  0
N  N127  1  0.34355540  0.25160160  0.66967768  1  0  -0.367077  0  3.201175  0  0  -0.302341  0  3.445383  0  0  -0.320559  0  3.465018  0  -1.205315  0  -0.287358  -0.289842  0  3.431756  0
N  N128  1  0.91415740  0.43202882  0.18157654  1  0  -0.352896  0  3.225634  0  0  -0.281005  0  3.470849  0  0  -0.30016  0  3.491986  0  -1.228537  0  -0.295896  -0.267901  0  3.456269  0
N  N129  1  0.58583943  0.93202754  0.31842155  1  0  -0.352957  0  3.225742  0  0  -0.281051  0  3.470975  0  0  -0.300221  0  3.492108  0  -1.22857  0  -0.29598  -0.26795  0  3.456396  0
N  N130  1  0.08585174  0.56797344  0.81841989  1  0  -0.352845  0  3.22538  0  0  -0.280968  0  3.470638  0  0  -0.300139  0  3.491773  0  -1.228431  0  -0.295909  -0.267866  0  3.456052  0
N  N131  1  0.41415508  0.06797265  0.68157949  1  0  -0.352807  0  3.225381  0  0  -0.28093  0  3.470625  0  0  -0.300086  0  3.491758  0  -1.228562  0  -0.295836  -0.267823  0  3.456042  0
N  N132  1  0.33480186  0.25865969  0.40771394  1  0  -0.393786  0  2.835651  0  0  -0.347998  0  3.078368  0  0  -0.362634  0  3.099127  0  -1.275333  0  -0.316771  -0.338045  0  3.064465  0
N  N133  1  0.16518921  0.75866323  0.09228104  1  0  -0.393698  0  2.835335  0  0  -0.347927  0  3.078035  0  0  -0.362564  0  3.09879  0  -1.274841  0  -0.316722  -0.337977  0  3.064136  0
N  N134  1  0.66521290  0.74134188  0.59228559  1  0  -0.393714  0  2.835296  0  0  -0.347924  0  3.078028  0  0  -0.362562  0  3.098787  0  -1.275251  0  -0.316652  -0.337971  0  3.064129  0
N  N135  1  0.83481205  0.24133903  0.90770803  1  0  -0.393797  0  2.835543  0  0  -0.348013  0  3.078265  0  0  -0.362651  0  3.09902  0  -1.275243  0  -0.31678  -0.338062  0  3.064372  0
N  N136  1  0.84603094  0.51754105  0.61090977  1  0  -0.377947  0  2.826483  0  0  -0.334376  0  3.067023  0  0  -0.348417  0  3.088477  0  -1.270577  0  -0.313349  -0.324766  0  3.052604  0
N  N137  1  0.65396589  0.01754233  0.88909451  1  0  -0.377864  0  2.826215  0  0  -0.334293  0  3.066738  0  0  -0.348333  0  3.08819  0  -1.270331  0  -0.313309  -0.324685  0  3.052323  0
N  N138  1  0.15396470  0.48246740  0.38909409  1  0  -0.377727  0  2.826303  0  0  -0.334173  0  3.066831  0  0  -0.34821  0  3.088285  0  -1.270142  0  -0.313295  -0.324568  0  3.052414  0
N  N139  1  0.34600950  0.98245236  0.11091361  1  0  -0.377811  0  2.82636  0  0  -0.334235  0  3.066878  0  0  -0.348275  0  3.088332  0  -1.270662  0  -0.313352  -0.324629  0  3.052464  0
Cl  Cl140  1  0.79838189  0.30705031  0.38242502  1  0  -0.598647  0  0.88481  0  0  -0.527612  0  1.148988  0  0  -0.547247  0  1.131172  0  -0.668243  0  -0.3048  -0.513141  0  1.160946  0
Cl  Cl141  1  0.70163181  0.80704352  0.11756929  1  0  -0.598635  0  0.884676  0  0  -0.527639  0  1.148916  0  0  -0.54727  0  1.131102  0  -0.668381  0  -0.304821  -0.513161  0  1.160852  0
Cl  Cl142  1  0.20164074  0.69296365  0.61756743  1  0  -0.598763  0  0.884593  0  0  -0.52773  0  1.148733  0  0  -0.547362  0  1.13092  0  -0.668419  0  -0.304873  -0.513248  0  1.160675  0
Cl  Cl143  1  0.29836833  0.19295323  0.88243485  1  0  -0.598673  0  0.884763  0  0  -0.527656  0  1.148967  0  0  -0.547291  0  1.131155  0  -0.668481  0  -0.304805  -0.513173  0  1.160896  0
Cl  Cl144  1  0.72466567  0.22943739  0.63039999  1  0  -0.593212  0  0.890718  0  0  -0.524522  0  1.154283  0  0  -0.545572  0  1.137122  0  -0.651518  0  -0.305279  -0.508968  0  1.165766  0
Cl  Cl145  1  0.77535028  0.72943129  0.86959102  1  0  -0.593137  0  0.890931  0  0  -0.524448  0  1.154547  0  0  -0.545495  0  1.137383  0  -0.651514  0  -0.305195  -0.508894  0  1.166028  0
Cl  Cl146  1  0.27533222  0.77056968  0.36960194  1  0  -0.593182  0  0.89078  0  0  -0.5245  0  1.15438  0  0  -0.545546  0  1.137217  0  -0.65153  0  -0.305251  -0.508949  0  1.165862  0
Cl  Cl147  1  0.22465998  0.27055720  0.13038623  1  0  -0.593222  0  0.890756  0  0  -0.524513  0  1.154318  0  0  -0.545567  0  1.137163  0  -0.651603  0  -0.305291  -0.508964  0  1.165793  0
