# generated using pymatgen
data_ZnH3C15N(ClO2)3
_symmetry_space_group_name_H-M   'P 1'
_cell_length_a   12.11824816
_cell_length_b   13.11049837
_cell_length_c   14.34606556
_cell_angle_alpha   89.50323989
_cell_angle_beta   89.62055945
_cell_angle_gamma   83.57228453
_symmetry_Int_Tables_number   1
_chemical_formula_structural   ZnH3C15N(ClO2)3
_chemical_formula_sum   'Zn2 H6 C30 N2 Cl6 O12'
_cell_volume   2264.80003250
_cell_formula_units_Z   2
loop_
 _symmetry_equiv_pos_site_id
 _symmetry_equiv_pos_as_xyz
  1  'x, y, z'
loop_
 _atom_site_type_symbol
 _atom_site_label
 _atom_site_symmetry_multiplicity
 _atom_site_fract_x
 _atom_site_fract_y
 _atom_site_fract_z
 _atom_site_occupancy
 _atom_site_pbe_bader_charge
 _atom_site_pbe_bader_spin_density
 _atom_site_pbe_cm5_charge
 _atom_site_pbe_ddec_charge
 _atom_site_pbe_ddec_spin_density
 _atom_site_pbe_ddec_sum_bond_order
 _atom_site_pbe_magmom
Zn  Zn0  1  0.62113217  0.48627410  0.50570475  1  1.301227  0  0.673854  0.858087  0  2.353552  0
Zn  Zn1  1  0.37888332  0.51377350  0.49415560  1  1.302701  0  0.674117  0.858691  0  2.353071  0
H  H2  1  0.45337754  0.00876542  0.69074614  1  0.144031  0  0.105897  0.115576  0  1.031392  0
H  H3  1  0.54663979  0.99125002  0.30921420  1  0.144208  0  0.105965  0.115621  0  1.03144  0
H  H4  1  0.74285537  0.63928443  0.42917905  1  0.189205  0  0.127456  0.123227  0  1.00223  0
H  H5  1  0.25714005  0.36125924  0.57176987  1  0.161092  0  0.127566  0.123019  0  1.00263  0
H  H6  1  0.54746693  0.31472006  0.22475545  1  0.622777  0  0.339054  0.374718  0  0.870525  0
H  H7  1  0.45196015  0.68533801  0.77512575  1  0.623513  0  0.338679  0.374368  0  0.871092  0
C  C8  1  0.48838150  0.69527644  0.52941911  1  1.642163  0  0.212079  0.614553  0  4.205015  0
C  C9  1  0.87248772  0.43944889  0.53680153  1  0.727397  0  0.166556  0.250589  0  3.985108  0
C  C10  1  0.01252812  0.54642481  0.47581278  1  0.040121  0  0.012502  -0.026908  0  3.893194  0
C  C11  1  0.98748604  0.45358238  0.52437780  1  0.086693  0  0.012283  -0.026857  0  3.89264  0
C  C12  1  0.51394646  0.52583797  0.32085959  1  1.752434  0  0.215459  0.645316  0  4.281197  0
C  C13  1  0.48643105  0.47415526  0.67901643  1  1.742864  0  0.215698  0.646614  0  4.280082  0
C  C14  1  0.51687072  0.52327088  0.22006055  1  -0.102955  0  -0.010873  -0.128585  0  3.843193  0
C  C15  1  0.48330729  0.47669804  0.77982325  1  -0.106751  0  -0.01092  -0.128498  0  3.842827  0
C  C16  1  0.51196674  0.51497396  0.13503176  1  -0.05317  0  -0.02043  0.004241  0  4.269668  0
C  C17  1  0.48816046  0.48505998  0.86484629  1  -0.047383  0  -0.0207  0.003686  0  4.270006  0
C  C18  1  0.50444418  0.50520916  0.04239219  1  0.059874  0  -0.006809  -0.006512  0  4.20902  0
C  C19  1  0.51132709  0.30476506  0.47045696  1  1.640722  0  0.211534  0.614215  0  4.204693  0
C  C20  1  0.49563527  0.49482998  0.95748067  1  -0.154615  0  -0.005927  -0.005498  0  4.209036  0
C  C21  1  0.51039082  0.18996982  0.46248492  1  0.085937  0  -0.006093  -0.082227  0  3.905385  0
C  C22  1  0.48941118  0.81006671  0.53743988  1  0.08435  0  -0.005959  -0.08255  0  3.905114  0
C  C23  1  0.46935002  0.96998545  0.62445284  1  0.025682  0  -0.077071  -0.128831  0  3.940735  0
C  C24  1  0.53055757  0.03004362  0.37546953  1  0.024659  0  -0.077258  -0.128749  0  3.941834  0
C  C25  1  0.46925632  0.86443809  0.62265390  1  -0.038492  0  -0.005089  -0.031551  0  3.934216  0
C  C26  1  0.53064056  0.13558346  0.37730296  1  -0.039269  0  -0.004856  -0.031799  0  3.934841  0
C  C27  1  0.50888423  0.86493428  0.45713829  1  0.012967  0  0.022583  0.07565  0  3.981895  0
C  C28  1  0.49088936  0.13511103  0.54277734  1  0.012908  0  0.022735  0.07561  0  3.980348  0
C  C29  1  0.55291467  0.18533101  0.28579681  1  1.528879  0  0.231264  0.577121  0  4.113312  0
C  C30  1  0.51010905  0.97358491  0.45659134  1  0.056056  0  -0.005325  0.034239  0  4.004547  0
C  C31  1  0.44700310  0.81470792  0.71417751  1  1.52804  0  0.230957  0.576116  0  4.114166  0
C  C32  1  0.48970048  0.02644230  0.54329852  1  -0.002153  0  -0.00552  0.034613  0  4.002961  0
C  C33  1  0.07957360  0.38443671  0.55629807  1  0.054783  0  0.024499  0.077624  0  4.015902  0
C  C34  1  0.92047408  0.61575806  0.44424117  1  0.054501  0  0.023886  0.077175  0  4.01647  0
C  C35  1  0.18592470  0.41094091  0.54566198  1  0.585783  0  0.05139  0.053059  0  3.892567  0
C  C36  1  0.81408856  0.58937697  0.45494722  1  0.558223  0  0.051722  0.052699  0  3.892927  0
C  C37  1  0.12750410  0.56039898  0.46311096  1  0.728437  0  0.166016  0.250658  0  3.986327  0
N  N38  1  0.79147034  0.50353433  0.50029055  1  -1.243534  0  -0.310066  -0.222795  0  3.51408  0
N  N39  1  0.20852134  0.49651375  0.49986877  1  -1.246183  0  -0.309569  -0.223225  0  3.512592  0
Cl  Cl40  1  0.46822820  0.20029239  0.64696879  1  -0.197091  0  0.017069  -0.042022  0  1.532701  0
Cl  Cl41  1  0.53147098  0.79973393  0.35296065  1  -0.196788  0  0.017158  -0.041863  0  1.533483  0
Cl  Cl42  1  0.82753527  0.34318655  0.60255022  1  -0.08605  0  0.073253  0.012856  0  1.626046  0
Cl  Cl43  1  0.17238602  0.65607000  0.39659824  1  -0.084887  0  0.073164  0.012719  0  1.626612  0
Cl  Cl44  1  0.07257288  0.26545420  0.60531013  1  -0.134447  0  0.030619  -0.034875  0  1.546223  0
Cl  Cl45  1  0.92759908  0.73497698  0.39581216  1  -0.135507  0  0.030918  -0.034804  0  1.546394  0
O  O46  1  0.58243378  0.64232333  0.52801785  1  -1.16379  0  -0.311151  -0.552275  0  2.360988  0
O  O47  1  0.52888377  0.28887683  0.28661399  1  -1.11735  0  -0.323464  -0.459478  0  2.300155  0
O  O48  1  0.41260314  0.86195469  0.78348473  1  -1.132339  0  -0.297848  -0.481484  0  2.042419  0
O  O49  1  0.47047212  0.71110547  0.71323552  1  -1.117253  0  -0.322794  -0.458859  0  2.300797  0
O  O50  1  0.41726731  0.35766083  0.47194057  1  -1.165159  0  -0.310826  -0.55214  0  2.360982  0
O  O51  1  0.39381313  0.66383896  0.52106701  1  -1.146063  0  -0.31311  -0.542795  0  2.344291  0
O  O52  1  0.60588425  0.33629382  0.47868498  1  -1.144792  0  -0.312853  -0.542657  0  2.343717  0
O  O53  1  0.60664276  0.51658030  0.36275005  1  -1.1431  0  -0.309728  -0.539537  0  2.281319  0
O  O54  1  0.39380888  0.48350852  0.63703188  1  -1.142891  0  -0.309375  -0.539927  0  2.283918  0
O  O55  1  0.41708871  0.53544300  0.35657188  1  -1.127334  0  -0.306839  -0.536134  0  2.317053  0
O  O56  1  0.58333298  0.46452827  0.64339117  1  -1.120677  0  -0.307389  -0.537037  0  2.315099  0
O  O57  1  0.58776938  0.13815523  0.21658541  1  -1.132203  0  -0.298089  -0.482192  0  2.041815  0
