# generated using pymatgen
data_ZnH13C15NO5
_symmetry_space_group_name_H-M   'P 1'
_cell_length_a   8.44372192
_cell_length_b   12.92046057
_cell_length_c   15.66000000
_cell_angle_alpha   90.00000000
_cell_angle_beta   90.00000000
_cell_angle_gamma   91.36586301
_symmetry_Int_Tables_number   1
_chemical_formula_structural   ZnH13C15NO5
_chemical_formula_sum   'Zn4 H52 C60 N4 O20'
_cell_volume   1707.97008956
_cell_formula_units_Z   4
loop_
 _symmetry_equiv_pos_site_id
 _symmetry_equiv_pos_as_xyz
  1  'x, y, z'
loop_
 _atom_site_type_symbol
 _atom_site_label
 _atom_site_symmetry_multiplicity
 _atom_site_fract_x
 _atom_site_fract_y
 _atom_site_fract_z
 _atom_site_occupancy
 _atom_site_hle17_bader_spin_density
 _atom_site_hle17_ddec_charge
 _atom_site_hle17_ddec_spin_density
 _atom_site_hle17_ddec_sum_bond_order
 _atom_site_hle17_magmom
 _atom_site_hse06_10hf_bader_spin_density
 _atom_site_hse06_10hf_ddec_charge
 _atom_site_hse06_10hf_ddec_spin_density
 _atom_site_hse06_10hf_ddec_sum_bond_order
 _atom_site_hse06_10hf_magmom
 _atom_site_hse06_bader_spin_density
 _atom_site_hse06_ddec_charge
 _atom_site_hse06_ddec_spin_density
 _atom_site_hse06_ddec_sum_bond_order
 _atom_site_hse06_magmom
 _atom_site_pbe_bader_charge
 _atom_site_pbe_bader_spin_density
 _atom_site_pbe_cm5_charge
 _atom_site_pbe_ddec_charge
 _atom_site_pbe_ddec_spin_density
 _atom_site_pbe_ddec_sum_bond_order
 _atom_site_pbe_magmom
Zn  Zn0  1  0.38209889  0.07820906  0.99626820  1  0  1.100636  0  1.829294  0  0  0.939112  0  2.302531  0  0  0.992691  0  2.232179  0  1.333288  0  0.667285  0.901646  0  2.350762  0
Zn  Zn1  1  0.38209990  0.57820560  0.50373372  1  0  1.100639  0  1.82922  0  0  0.939088  0  2.302454  0  0  0.992669  0  2.232103  0  1.33171  0  0.667279  0.90162  0  2.350685  0
Zn  Zn2  1  0.61789972  0.92179407  0.00373244  1  0  1.100713  0  1.829073  0  0  0.939171  0  2.302286  0  0  0.992754  0  2.231935  0  1.331589  0  0.667356  0.901704  0  2.350515  0
Zn  Zn3  1  0.61790088  0.42179212  0.49626756  1  0  1.100662  0  1.829162  0  0  0.939151  0  2.302371  0  0  0.992731  0  2.232017  0  1.333263  0  0.667305  0.901683  0  2.350604  0
H  H4  1  0.03352125  0.94027158  0.15801341  1  0  0.110353  0  0.957075  0  0  0.118163  0  1.024243  0  0  0.122102  0  1.020755  0  0.117953  0  0.10653  0.115327  0  1.026767  0
H  H5  1  0.03351539  0.44027194  0.34198723  1  0  0.110331  0  0.957052  0  0  0.118191  0  1.024181  0  0  0.122129  0  1.020693  0  0.117935  0  0.106537  0.115356  0  1.026705  0
H  H6  1  0.96648684  0.05973156  0.84199234  1  0  0.110334  0  0.956988  0  0  0.118133  0  1.024186  0  0  0.122071  0  1.0207  0  0.117894  0  0.106532  0.115303  0  1.026698  0
H  H7  1  0.96648801  0.55973274  0.65801596  1  0  0.110388  0  0.957027  0  0  0.11813  0  1.024287  0  0  0.122069  0  1.020797  0  0.117991  0  0.10651  0.115299  0  1.026803  0
H  H8  1  0.41913970  0.74115089  0.21631992  1  0  0.09296  0  0.966321  0  0  0.101509  0  1.03211  0  0  0.104845  0  1.029712  0  0.094875  0  0.098229  0.099089  0  1.033924  0
H  H9  1  0.41913496  0.24114971  0.28368263  1  0  0.092987  0  0.966188  0  0  0.101554  0  1.031966  0  0  0.104892  0  1.029566  0  0.094916  0  0.098256  0.099132  0  1.033785  0
H  H10  1  0.58086737  0.25885689  0.78368774  1  0  0.092965  0  0.966102  0  0  0.101494  0  1.031924  0  0  0.104832  0  1.029525  0  0.094849  0  0.098245  0.099073  0  1.033741  0
H  H11  1  0.58086364  0.75885343  0.71631673  1  0  0.092988  0  0.966273  0  0  0.101532  0  1.032057  0  0  0.104869  0  1.029658  0  0.095008  0  0.098234  0.099112  0  1.033872  0
H  H12  1  0.24579404  0.63603808  0.31420754  1  0  0.115547  0  0.963407  0  0  0.123253  0  1.026508  0  0  0.126791  0  1.024799  0  0.130861  0  0.102946  0.120676  0  1.027852  0
H  H13  1  0.24578691  0.13603613  0.18579630  1  0  0.11558  0  0.963361  0  0  0.123257  0  1.026495  0  0  0.126837  0  1.024736  0  0.130351  0  0.102976  0.120681  0  1.027838  0
H  H14  1  0.75421410  0.36396660  0.68579757  1  0  0.115581  0  0.963392  0  0  0.123329  0  1.02644  0  0  0.126879  0  1.024715  0  0.130316  0  0.103004  0.120752  0  1.027783  0
H  H15  1  0.75420459  0.86396701  0.81420434  1  0  0.115529  0  0.963503  0  0  0.123294  0  1.026522  0  0  0.126826  0  1.024821  0  0.130245  0  0.102984  0.120718  0  1.027864  0
H  H16  1  0.97947783  0.59795741  0.37351916  1  0  0.116409  0  0.945629  0  0  0.124999  0  1.010129  0  0  0.129198  0  1.005958  0  0.109143  0  0.110584  0.121961  0  1.013184  0
H  H17  1  0.97947090  0.09796088  0.12648020  1  0  0.116417  0  0.945667  0  0  0.125021  0  1.01014  0  0  0.12922  0  1.005969  0  0.109329  0  0.110608  0.121985  0  1.013189  0
H  H18  1  0.02053008  0.40204108  0.62648084  1  0  0.116312  0  0.945501  0  0  0.1249  0  1.010018  0  0  0.1291  0  1.005846  0  0.109194  0  0.110538  0.12186  0  1.013077  0
H  H19  1  0.02052322  0.90204923  0.87351980  1  0  0.116386  0  0.945622  0  0  0.124948  0  1.010144  0  0  0.129149  0  1.00597  0  0.109077  0  0.11053  0.121909  0  1.013198  0
H  H20  1  0.59181662  0.79568689  0.31568774  1  0  0.102677  0  0.957186  0  0  0.112769  0  1.01783  0  0  0.116401  0  1.015429  0  0.084978  0  0.102037  0.110101  0  1.019667  0
H  H21  1  0.59181561  0.29569035  0.18430907  1  0  0.102702  0  0.957135  0  0  0.112764  0  1.017813  0  0  0.116397  0  1.015408  0  0.084934  0  0.102034  0.110107  0  1.019637  0
H  H22  1  0.40818647  0.20430928  0.68430971  1  0  0.102694  0  0.957153  0  0  0.112757  0  1.017828  0  0  0.116389  0  1.015425  0  0.084902  0  0.102022  0.110102  0  1.01965  0
H  H23  1  0.40818325  0.70431976  0.81569157  1  0  0.102715  0  0.957068  0  0  0.112763  0  1.017769  0  0  0.116395  0  1.015366  0  0.08508  0  0.102009  0.110113  0  1.019585  0
H  H24  1  0.76743244  0.90521101  0.22169796  1  0  0.109044  0  0.94373  0  0  0.120041  0  1.001283  0  0  0.123268  0  1.00035  0  0.06848  0  0.104038  0.117713  0  1.00204  0
H  H25  1  0.76742664  0.40521292  0.27830332  1  0  0.109086  0  0.943654  0  0  0.12008  0  1.001206  0  0  0.123301  0  1.000294  0  0.068578  0  0.104034  0.11775  0  1.001962  0
H  H26  1  0.23257070  0.09478671  0.77830332  1  0  0.109061  0  0.9437  0  0  0.120056  0  1.001255  0  0  0.123278  0  1.00034  0  0.068553  0  0.104024  0.117733  0  1.002014  0
H  H27  1  0.23257089  0.59479331  0.72170115  1  0  0.109082  0  0.943701  0  0  0.120137  0  1.001179  0  0  0.123361  0  1.00026  0  0.068679  0  0.104064  0.117807  0  1.001938  0
H  H28  1  0.34239583  0.27084672  0.89461686  1  0  0.05163  0  0.93325  0  0  0.058797  0  1.004779  0  0  0.060998  0  0.999217  0  0.131109  0  0.127446  0.056961  0  1.008945  0
H  H29  1  0.34239949  0.77085099  0.60539272  1  0  0.051598  0  0.933388  0  0  0.058849  0  1.004851  0  0  0.061052  0  0.999285  0  0.131389  0  0.127485  0.057022  0  1.009008  0
H  H30  1  0.65759257  0.72913629  0.10538825  1  0  0.051659  0  0.933165  0  0  0.05885  0  1.004701  0  0  0.061056  0  0.999127  0  0.131011  0  0.127452  0.056969  0  1.008918  0
H  H31  1  0.65760123  0.22914518  0.39460536  1  0  0.051563  0  0.933315  0  0  0.058776  0  1.004827  0  0  0.060978  0  0.999265  0  0.130999  0  0.127482  0.056959  0  1.008973  0
H  H32  1  0.19086078  0.49878494  0.90737931  1  0  0.094415  0  0.938325  0  0  0.114234  0  1.000937  0  0  0.114702  0  1.001329  0  0.042172  0  0.101966  0.113809  0  1.000727  0
H  H33  1  0.19085855  0.99878999  0.59262069  1  0  0.094402  0  0.938467  0  0  0.114249  0  1.001022  0  0  0.114718  0  1.001413  0  0.042175  0  0.101964  0.11382  0  1.000816  0
H  H34  1  0.80913726  0.50120272  0.09261686  1  0  0.094416  0  0.938433  0  0  0.114232  0  1.001045  0  0  0.114701  0  1.001434  0  0.042079  0  0.101946  0.113804  0  1.000839  0
H  H35  1  0.80913994  0.00121005  0.40737676  1  0  0.094453  0  0.938436  0  0  0.114287  0  1.001015  0  0  0.114756  0  1.001406  0  0.042128  0  0.101973  0.113858  0  1.000809  0
H  H36  1  0.06165142  0.43917724  0.83040230  1  0  0.103573  0  0.940359  0  0  0.121653  0  1.006029  0  0  0.121692  0  1.00748  0  0.072613  0  0.106659  0.121536  0  1.005096  0
H  H37  1  0.06164809  0.93918462  0.66959706  1  0  0.103594  0  0.940389  0  0  0.121645  0  1.006074  0  0  0.121683  0  1.007527  0  0.072585  0  0.10666  0.121529  0  1.005138  0
H  H38  1  0.93834656  0.56080886  0.16959451  1  0  0.103543  0  0.940466  0  0  0.121668  0  1.006084  0  0  0.121707  0  1.007534  0  0.072638  0  0.106693  0.121551  0  1.005149  0
H  H39  1  0.93835035  0.06081387  0.33039783  1  0  0.103625  0  0.940385  0  0  0.121705  0  1.00604  0  0  0.121744  0  1.007491  0  0.072511  0  0.106669  0.121585  0  1.00511  0
H  H40  1  0.26662818  0.41052848  0.83042720  1  0  0.10736  0  0.93302  0  0  0.128558  0  0.992787  0  0  0.128451  0  0.993978  0  0.086853  0  0.113229  0.128511  0  0.992084  0
H  H41  1  0.26662863  0.91054205  0.66957918  1  0  0.107342  0  0.932999  0  0  0.128475  0  0.992834  0  0  0.128376  0  0.994014  0  0.086962  0  0.113203  0.128427  0  0.992131  0
H  H42  1  0.73336608  0.58945298  0.16957280  1  0  0.107335  0  0.932962  0  0  0.128495  0  0.992785  0  0  0.128399  0  0.993963  0  0.087025  0  0.113205  0.128449  0  0.992077  0
H  H43  1  0.73337113  0.08946031  0.33041954  1  0  0.107332  0  0.933013  0  0  0.128479  0  0.992842  0  0  0.12838  0  0.994022  0  0.086921  0  0.113183  0.128431  0  0.992138  0
H  H44  1  0.96494485  0.26120577  0.00262197  1  0  0.120772  0  0.949122  0  0  0.136963  0  1.014271  0  0  0.137429  0  1.015277  0  0.110839  0  0.113987  0.136513  0  1.013662  0
H  H45  1  0.96495682  0.76121083  0.49737931  1  0  0.120822  0  0.9491  0  0  0.137041  0  1.014219  0  0  0.137509  0  1.015222  0  0.110977  0  0.114015  0.136589  0  1.013613  0
H  H46  1  0.03503456  0.73879040  0.99737739  1  0  0.120823  0  0.949111  0  0  0.137045  0  1.014223  0  0  0.137513  0  1.015226  0  0.110585  0  0.114009  0.136594  0  1.013617  0
H  H47  1  0.03504894  0.23879386  0.50261239  1  0  0.120888  0  0.949052  0  0  0.13711  0  1.014167  0  0  0.137578  0  1.015171  0  0.110952  0  0.114053  0.136659  0  1.01356  0
H  H48  1  0.89107396  0.36544917  0.93966220  1  0  0.101132  0  0.92371  0  0  0.123478  0  0.981863  0  0  0.123777  0  0.982258  0  0.061975  0  0.108775  0.12316  0  0.981687  0
H  H49  1  0.89108473  0.86545345  0.56033844  1  0  0.101222  0  0.923693  0  0  0.123532  0  0.981872  0  0  0.123832  0  0.982266  0  0.062388  0  0.108784  0.123214  0  0.981697  0
H  H50  1  0.10891373  0.63454700  0.06033269  1  0  0.101225  0  0.923568  0  0  0.123516  0  0.981766  0  0  0.123816  0  0.982159  0  0.062129  0  0.108803  0.123198  0  0.981592  0
H  H51  1  0.10892098  0.13454969  0.43965453  1  0  0.101108  0  0.923803  0  0  0.123471  0  0.98195  0  0  0.123768  0  0.982348  0  0.06228  0  0.108775  0.123153  0  0.981774  0
H  H52  1  0.00345218  0.39145254  0.03496424  1  0  0.093002  0  0.933089  0  0  0.115697  0  0.993423  0  0  0.115637  0  0.994173  0  0.05849  0  0.103661  0.115641  0  0.99297  0
H  H53  1  0.00346655  0.89145836  0.46503959  1  0  0.093036  0  0.933173  0  0  0.115716  0  0.993519  0  0  0.115657  0  0.994268  0  0.058717  0  0.103714  0.115661  0  0.993065  0
H  H54  1  0.99653436  0.60854441  0.96503129  1  0  0.092961  0  0.933147  0  0  0.11568  0  0.993459  0  0  0.11562  0  0.994209  0  0.058488  0  0.103689  0.115626  0  0.993003  0
H  H55  1  0.99654398  0.10854710  0.53495530  1  0  0.093014  0  0.933142  0  0  0.115671  0  0.993538  0  0  0.115613  0  0.994283  0  0.058641  0  0.103667  0.115615  0  0.993085  0
C  C56  1  0.34038459  0.90851214  0.12279757  1  0  0.659645  0  3.892497  0  0  0.610383  0  4.178798  0  0  0.64617  0  4.171211  0  1.563024  0  0.212209  0.586131  0  4.183112  0
C  C57  1  0.34037055  0.40851560  0.37720307  1  0  0.659635  0  3.892397  0  0  0.610446  0  4.178631  0  0  0.646233  0  4.171048  0  1.563452  0  0.212281  0.586193  0  4.182944  0
C  C58  1  0.65963502  0.09148249  0.87720754  1  0  0.659484  0  3.892584  0  0  0.610257  0  4.178869  0  0  0.646042  0  4.171288  0  1.563407  0  0.212184  0.586006  0  4.18318  0
C  C59  1  0.65963276  0.59148676  0.62279566  1  0  0.659577  0  3.892322  0  0  0.610387  0  4.178607  0  0  0.646174  0  4.171025  0  1.563502  0  0.21228  0.586134  0  4.18292  0
C  C60  1  0.07913771  0.87446420  0.19297637  1  0  -0.109234  0  3.694858  0  0  -0.142419  0  3.943773  0  0  -0.141939  0  3.961825  0  -0.013751  0  -0.081932  -0.142545  0  3.931499  0
C  C61  1  0.07912945  0.37446379  0.30702363  1  0  -0.109095  0  3.694625  0  0  -0.14235  0  3.943555  0  0  -0.141868  0  3.961601  0  -0.013819  0  -0.081941  -0.142479  0  3.931284  0
C  C62  1  0.92087167  0.12554203  0.80703001  1  0  -0.109164  0  3.694812  0  0  -0.142391  0  3.943714  0  0  -0.141912  0  3.961764  0  -0.013877  0  -0.082035  -0.142517  0  3.93144  0
C  C63  1  0.92086797  0.62553934  0.69297637  1  0  -0.109205  0  3.694668  0  0  -0.142332  0  3.943602  0  0  -0.141847  0  3.96165  0  -0.013828  0  -0.082008  -0.142464  0  3.931332  0
C  C64  1  0.23585073  0.84771297  0.18264815  1  0  -0.0637  0  3.778266  0  0  -0.039869  0  4.010863  0  0  -0.047571  0  4.033947  0  -0.10462  0  -0.022445  -0.034844  0  3.995253  0
C  C65  1  0.23584715  0.34771102  0.31735185  1  0  -0.063744  0  3.778199  0  0  -0.039964  0  4.010861  0  0  -0.047667  0  4.033944  0  -0.104523  0  -0.022434  -0.034937  0  3.99525  0
C  C66  1  0.76415871  0.15229481  0.81735951  1  0  -0.063684  0  3.778216  0  0  -0.039905  0  4.010866  0  0  -0.047605  0  4.033947  0  -0.10442  0  -0.022395  -0.034883  0  3.995259  0
C  C67  1  0.76415380  0.65229135  0.68264751  1  0  -0.063571  0  3.778229  0  0  -0.039892  0  4.010986  0  0  -0.047597  0  4.034074  0  -0.104481  0  -0.022376  -0.034865  0  3.995375  0
C  C68  1  0.29572712  0.76056283  0.22619349  1  0  -0.083927  0  3.773992  0  0  -0.107944  0  4.024681  0  0  -0.108928  0  4.045542  0  -0.029944  0  -0.093745  -0.107182  0  4.010572  0
C  C69  1  0.29571773  0.26056397  0.27380907  1  0  -0.083937  0  3.774083  0  0  -0.107966  0  4.024788  0  0  -0.108951  0  4.045658  0  -0.029771  0  -0.093765  -0.107204  0  4.010678  0
C  C70  1  0.70428703  0.23944418  0.77381545  1  0  -0.083942  0  3.773897  0  0  -0.107945  0  4.024642  0  0  -0.108927  0  4.0455  0  -0.029673  0  -0.093791  -0.107184  0  4.010535  0
C  C71  1  0.70427735  0.73943994  0.72619029  1  0  -0.083975  0  3.77394  0  0  -0.107954  0  4.024711  0  0  -0.108935  0  4.045567  0  -0.029894  0  -0.093792  -0.107194  0  4.010602  0
C  C72  1  0.19992816  0.70221552  0.27956322  1  0  -0.108355  0  3.723717  0  0  -0.127831  0  3.973567  0  0  -0.13024  0  3.993408  0  -0.058292  0  -0.088954  -0.126141  0  3.960153  0
C  C73  1  0.19992695  0.20221356  0.22043806  1  0  -0.10829  0  3.723623  0  0  -0.127743  0  3.973437  0  0  -0.130187  0  3.993259  0  -0.057763  0  -0.088931  -0.126051  0  3.960022  0
C  C74  1  0.80007648  0.29779072  0.72044125  1  0  -0.10826  0  3.723468  0  0  -0.127756  0  3.973308  0  0  -0.130176  0  3.993145  0  -0.057803  0  -0.088919  -0.126068  0  3.959891  0
C  C75  1  0.80007408  0.79779112  0.77956194  1  0  -0.108351  0  3.723665  0  0  -0.127855  0  3.973511  0  0  -0.130263  0  3.993355  0  -0.057738  0  -0.08893  -0.126164  0  3.960094  0
C  C76  1  0.03802437  0.72715051  0.29004853  1  0  0.054215  0  3.793472  0  0  0.070116  0  4.023728  0  0  0.069779  0  4.047345  0  0.000667  0  -0.00714  0.070295  0  4.007724  0
C  C77  1  0.03801978  0.22715320  0.20995211  1  0  0.054173  0  3.793442  0  0  0.070092  0  4.023627  0  0  0.069758  0  4.047247  0  0.00073  0  -0.007168  0.070267  0  4.00763  0
C  C78  1  0.96198599  0.27285031  0.70995402  1  0  0.054095  0  3.793501  0  0  0.06991  0  4.023767  0  0  0.06957  0  4.047389  0  0.000718  0  -0.007228  0.0701  0  4.007745  0
C  C79  1  0.96197778  0.77285381  0.79004853  1  0  0.054168  0  3.793424  0  0  0.070015  0  4.023691  0  0  0.06968  0  4.047305  0  0.000742  0  -0.007261  0.070196  0  4.007677  0
C  C80  1  0.93409171  0.66511187  0.34023755  1  0  -0.109896  0  3.699026  0  0  -0.144073  0  3.954118  0  0  -0.142544  0  3.970256  0  -0.06434  0  -0.078455  -0.144884  0  3.943173  0
C  C81  1  0.93409174  0.16511146  0.15976054  1  0  -0.109896  0  3.698991  0  0  -0.144047  0  3.954088  0  0  -0.142515  0  3.970234  0  -0.064519  0  -0.078458  -0.144854  0  3.943141  0
C  C82  1  0.06590670  0.33488585  0.65976373  1  0  -0.109746  0  3.698834  0  0  -0.143849  0  3.953929  0  0  -0.14232  0  3.970077  0  -0.064358  0  -0.07835  -0.14466  0  3.942976  0
C  C83  1  0.06590814  0.83489400  0.84023883  1  0  -0.109815  0  3.698839  0  0  -0.143914  0  3.953949  0  0  -0.14238  0  3.970093  0  -0.064477  0  -0.078391  -0.144723  0  3.942998  0
C  C84  1  0.77568084  0.68869358  0.34777842  1  0  -0.0684  0  3.778638  0  0  -0.045772  0  4.014534  0  0  -0.053469  0  4.036958  0  -0.031384  0  -0.023198  -0.040812  0  3.999409  0
C  C85  1  0.77567881  0.18870169  0.15221839  1  0  -0.068463  0  3.778642  0  0  -0.045938  0  4.014677  0  0  -0.053653  0  4.03714  0  -0.031508  0  -0.023214  -0.040979  0  3.999555  0
C  C86  1  0.22432451  0.31129949  0.65221903  1  0  -0.068467  0  3.778501  0  0  -0.045936  0  4.014524  0  0  -0.053645  0  4.036967  0  -0.031493  0  -0.023284  -0.040977  0  3.999402  0
C  C87  1  0.22431650  0.81130842  0.84778097  1  0  -0.068363  0  3.778654  0  0  -0.045818  0  4.014606  0  0  -0.053537  0  4.037064  0  -0.030974  0  -0.023128  -0.040856  0  3.99948  0
C  C88  1  0.71626937  0.77797273  0.30687037  1  0  -0.091968  0  3.769467  0  0  -0.116839  0  4.021964  0  0  -0.117364  0  4.042307  0  -0.06833  0  -0.094044  -0.116293  0  4.008184  0
C  C89  1  0.71626724  0.27797774  0.19312644  1  0  -0.091967  0  3.769613  0  0  -0.116786  0  4.022135  0  0  -0.117302  0  4.042478  0  -0.068216  0  -0.094065  -0.116249  0  4.008354  0
C  C90  1  0.28373357  0.22201957  0.69312580  1  0  -0.091949  0  3.769643  0  0  -0.116771  0  4.022162  0  0  -0.117291  0  4.042505  0  -0.06819  0  -0.09401  -0.116236  0  4.008382  0
C  C91  1  0.28373160  0.72203159  0.80687612  1  0  -0.092023  0  3.769423  0  0  -0.116848  0  4.021988  0  0  -0.117366  0  4.042336  0  -0.068819  0  -0.094056  -0.116316  0  4.008204  0
C  C92  1  0.81388631  0.83908157  0.25633653  1  0  -0.122983  0  3.751053  0  0  -0.139974  0  4.004531  0  0  -0.143469  0  4.025953  0  -0.041753  0  -0.092041  -0.137571  0  3.989946  0
C  C93  1  0.81388519  0.33908194  0.24366156  1  0  -0.123052  0  3.751174  0  0  -0.140057  0  4.004615  0  0  -0.143554  0  4.02603  0  -0.041617  0  -0.092047  -0.137652  0  3.990032  0
C  C94  1  0.18612042  0.16091692  0.74366156  1  0  -0.123055  0  3.751121  0  0  -0.140092  0  4.004525  0  0  -0.143591  0  4.025941  0  -0.04189  0  -0.092065  -0.137698  0  3.989954  0
C  C95  1  0.18611458  0.66092043  0.75634036  1  0  -0.123089  0  3.751051  0  0  -0.14015  0  4.004483  0  0  -0.14365  0  4.025902  0  -0.041873  0  -0.092092  -0.137751  0  3.98991  0
C  C96  1  0.97647138  0.81519406  0.24614240  1  0  0.047458  0  3.804508  0  0  0.062813  0  4.03525  0  0  0.062499  0  4.059704  0  -0.057547  0  -0.011757  0.063022  0  4.018645  0
C  C97  1  0.97646797  0.31519675  0.25385760  1  0  0.047346  0  3.804688  0  0  0.062765  0  4.035344  0  0  0.06245  0  4.059794  0  -0.057951  0  -0.011781  0.062976  0  4.01874  0
C  C98  1  0.02353064  0.18480521  0.75386079  1  0  0.047383  0  3.804668  0  0  0.062935  0  4.035167  0  0  0.062623  0  4.059619  0  -0.057609  0  -0.011712  0.063139  0  4.018565  0
C  C99  1  0.02353196  0.68481026  0.74614559  1  0  0.047365  0  3.804616  0  0  0.062842  0  4.035196  0  0  0.062526  0  4.059651  0  -0.057589  0  -0.011658  0.063053  0  4.01859  0
C  C100  1  0.66783792  0.61909269  0.39900766  1  0  0.657522  0  3.902556  0  0  0.609987  0  4.188001  0  0  0.645299  0  4.181142  0  1.575167  0  0.210014  0.586068  0  4.191831  0
C  C101  1  0.66784384  0.11909151  0.10098723  1  0  0.657721  0  3.902578  0  0  0.610194  0  4.188057  0  0  0.645495  0  4.181217  0  1.575182  0  0.210065  0.586276  0  4.191887  0
C  C102  1  0.33216416  0.38090812  0.60099042  1  0  0.657786  0  3.902535  0  0  0.610257  0  4.188002  0  0  0.64557  0  4.181139  0  1.575188  0  0.210103  0.58634  0  4.191832  0
C  C103  1  0.33216536  0.88091008  0.89901022  1  0  0.657758  0  3.902585  0  0  0.610271  0  4.187996  0  0  0.64559  0  4.18113  0  1.574667  0  0.210153  0.58635  0  4.191829  0
C  C104  1  0.23733406  0.26431258  0.93614879  1  0  0.403764  0  3.769794  0  0  0.326529  0  4.051306  0  0  0.355035  0  4.05259  0  1.357147  0  0.186495  0.307451  0  4.049966  0
C  C105  1  0.23734291  0.76432925  0.56386462  1  0  0.403866  0  3.769713  0  0  0.326468  0  4.051331  0  0  0.354976  0  4.052617  0  1.357048  0  0.18645  0.307385  0  4.04999  0
C  C106  1  0.76264332  0.73566036  0.06386015  1  0  0.403967  0  3.769438  0  0  0.326657  0  4.051028  0  0  0.35517  0  4.05231  0  1.357458  0  0.18652  0.307611  0  4.049697  0
C  C107  1  0.76266041  0.23567311  0.43613538  1  0  0.404136  0  3.769507  0  0  0.326759  0  4.051131  0  0  0.355265  0  4.052416  0  1.357582  0  0.186563  0.307669  0  4.049787  0
C  C108  1  0.16513442  0.42723387  0.87139527  1  0  -0.176921  0  3.685493  0  0  -0.281119  0  3.93977  0  0  -0.278058  0  3.952194  0  0.258427  0  -0.128021  -0.282892  0  3.931263  0
C  C109  1  0.16513586  0.92724202  0.62860664  1  0  -0.176896  0  3.685578  0  0  -0.281013  0  3.939776  0  0  -0.277968  0  3.952213  0  0.258275  0  -0.128008  -0.282784  0  3.931272  0
C  C110  1  0.83486111  0.57274991  0.12860217  1  0  -0.17687  0  3.685472  0  0  -0.281044  0  3.939713  0  0  -0.278005  0  3.952149  0  0.258151  0  -0.128044  -0.282813  0  3.931206  0
C  C111  1  0.83486498  0.07275724  0.37139017  1  0  -0.177008  0  3.685535  0  0  -0.281169  0  3.939727  0  0  -0.278125  0  3.952169  0  0.258403  0  -0.12804  -0.28294  0  3.93122  0
C  C112  1  0.98973142  0.33978567  0.97944317  1  0  -0.165816  0  3.646344  0  0  -0.267536  0  3.89255  0  0  -0.26373  0  3.903232  0  0.24416  0  -0.128877  -0.269833  0  3.885287  0
C  C113  1  0.98974222  0.83979073  0.52055939  1  0  -0.165865  0  3.646386  0  0  -0.267575  0  3.892583  0  0  -0.263766  0  3.903255  0  0.243606  0  -0.128916  -0.269873  0  3.885326  0
C  C114  1  0.01025266  0.66020895  0.02055492  1  0  -0.165792  0  3.646235  0  0  -0.267498  0  3.892429  0  0  -0.263689  0  3.903102  0  0.244509  0  -0.128916  -0.269796  0  3.885172  0
C  C115  1  0.01026465  0.16021164  0.47943423  1  0  -0.165824  0  3.646385  0  0  -0.267597  0  3.892607  0  0  -0.263787  0  3.903279  0  0.243845  0  -0.128959  -0.269895  0  3.885347  0
N  N116  1  0.13417901  0.34038102  0.92861367  1  0  -0.087486  0  3.509281  0  0  0.018014  0  3.742387  0  0  -0.002273  0  3.767782  0  -1.187701  0  -0.277122  0.031554  0  3.724804  0
N  N117  1  0.13419082  0.84038143  0.57139080  1  0  -0.087541  0  3.509709  0  0  0.017986  0  3.7428  0  0  -0.002299  0  3.768194  0  -1.187861  0  -0.277096  0.031522  0  3.725224  0
N  N118  1  0.86580617  0.65961128  0.07138570  1  0  -0.087545  0  3.509525  0  0  0.017946  0  3.742692  0  0  -0.00234  0  3.768085  0  -1.187865  0  -0.277014  0.031486  0  3.725097  0
N  N119  1  0.86581359  0.15961861  0.42860473  1  0  -0.087644  0  3.509363  0  0  0.017951  0  3.742402  0  0  -0.002339  0  3.767798  0  -1.18793  0  -0.27705  0.031492  0  3.724821  0
O  O120  1  0.28797719  0.99418823  0.09554023  1  0  -0.630291  0  2.076616  0  0  -0.564125  0  2.336027  0  0  -0.59315  0  2.321574  0  -1.174619  0  -0.310383  -0.543989  0  2.345277  0
O  O121  1  0.28796992  0.49418240  0.40446616  1  0  -0.630169  0  2.076908  0  0  -0.564033  0  2.336303  0  0  -0.59305  0  2.321841  0  -1.175318  0  -0.310342  -0.543902  0  2.345555  0
O  O122  1  0.71203236  0.00582265  0.90446552  1  0  -0.630016  0  2.077229  0  0  -0.563848  0  2.336611  0  0  -0.59286  0  2.322148  0  -1.175247  0  -0.31026  -0.543719  0  2.345862  0
O  O123  1  0.71203450  0.50581764  0.59553448  1  0  -0.630173  0  2.076756  0  0  -0.564017  0  2.336137  0  0  -0.593035  0  2.321675  0  -1.175193  0  -0.31037  -0.543886  0  2.345389  0
O  O124  1  0.47225055  0.86915716  0.10276437  1  0  -0.646802  0  2.075475  0  0  -0.582998  0  2.334003  0  0  -0.612553  0  2.320756  0  -1.168592  0  -0.31616  -0.562407  0  2.342305  0
O  O125  1  0.47225422  0.36915907  0.39723308  1  0  -0.646917  0  2.075057  0  0  -0.583133  0  2.333522  0  0  -0.612689  0  2.320276  0  -1.168509  0  -0.316265  -0.562546  0  2.341834  0
O  O126  1  0.52774312  0.13084056  0.89723436  1  0  -0.646912  0  2.074935  0  0  -0.583104  0  2.333407  0  0  -0.612662  0  2.320165  0  -1.168434  0  -0.316228  -0.562513  0  2.341715  0
O  O127  1  0.52774912  0.63084407  0.60276373  1  0  -0.646887  0  2.075068  0  0  -0.5831  0  2.333577  0  0  -0.612659  0  2.320333  0  -1.168545  0  -0.31621  -0.562513  0  2.341888  0
O  O128  1  0.71797101  0.52879394  0.41486143  1  0  -0.640112  0  2.078482  0  0  -0.577139  0  2.338839  0  0  -0.6064  0  2.325044  0  -1.175839  0  -0.316634  -0.556823  0  2.347586  0
O  O129  1  0.71796783  0.02880282  0.08513921  1  0  -0.640123  0  2.078825  0  0  -0.577132  0  2.339172  0  0  -0.606382  0  2.325381  0  -1.175705  0  -0.316607  -0.556822  0  2.347925  0
O  O130  1  0.28203789  0.47119913  0.58514304  1  0  -0.640127  0  2.078754  0  0  -0.577136  0  2.339119  0  0  -0.606393  0  2.325326  0  -1.175639  0  -0.316586  -0.556819  0  2.347854  0
O  O131  1  0.28202393  0.97120728  0.91486590  1  0  -0.64023  0  2.078451  0  0  -0.577256  0  2.338801  0  0  -0.606517  0  2.325001  0  -1.17546  0  -0.316676  -0.556944  0  2.347561  0
O  O132  1  0.53586855  0.65548254  0.42238570  1  0  -0.63256  0  2.05331  0  0  -0.569368  0  2.305521  0  0  -0.598095  0  2.291843  0  -1.162449  0  -0.317022  -0.54939  0  2.314139  0
O  O133  1  0.53587123  0.15548988  0.07760792  1  0  -0.632698  0  2.053059  0  0  -0.569503  0  2.305272  0  0  -0.598228  0  2.291597  0  -1.162408  0  -0.317078  -0.549518  0  2.313886  0
O  O134  1  0.46413328  0.34451131  0.57761175  1  0  -0.632733  0  2.053186  0  0  -0.569546  0  2.305417  0  0  -0.598277  0  2.291733  0  -1.162483  0  -0.317077  -0.549565  0  2.314034  0
O  O135  1  0.46413011  0.84452333  0.92238186  1  0  -0.632633  0  2.053555  0  0  -0.569465  0  2.305767  0  0  -0.598191  0  2.292082  0  -1.162345  0  -0.317063  -0.549487  0  2.314392  0
O  O136  1  0.21741092  0.18912749  0.98637292  1  0  -0.503726  0  2.089957  0  0  -0.430151  0  2.348037  0  0  -0.457065  0  2.337152  0  -1.162375  0  -0.288277  -0.411648  0  2.354953  0
O  O137  1  0.21742388  0.68912713  0.51362644  1  0  -0.503852  0  2.089361  0  0  -0.430187  0  2.34744  0  0  -0.457113  0  2.336557  0  -1.162504  0  -0.288243  -0.411664  0  2.354322  0
O  O138  1  0.78256239  0.81086403  0.01362069  1  0  -0.504003  0  2.089392  0  0  -0.430359  0  2.347432  0  0  -0.457293  0  2.33655  0  -1.162429  0  -0.288301  -0.411846  0  2.354336  0
O  O139  1  0.78257802  0.31086904  0.48636845  1  0  -0.503947  0  2.089469  0  0  -0.430317  0  2.347575  0  0  -0.457237  0  2.336686  0  -1.162579  0  -0.288349  -0.411811  0  2.354497  0
