# generated using pymatgen
data_MnH4(CO)4
_symmetry_space_group_name_H-M   'P 1'
_cell_length_a   4.84398237
_cell_length_b   6.27910079
_cell_length_c   15.34945986
_cell_angle_alpha   98.72016789
_cell_angle_beta   99.06339916
_cell_angle_gamma   89.98122497
_symmetry_Int_Tables_number   1
_chemical_formula_structural   MnH4(CO)4
_chemical_formula_sum   'Mn4 H16 C16 O16'
_cell_volume   455.57588432
_cell_formula_units_Z   4
loop_
 _symmetry_equiv_pos_site_id
 _symmetry_equiv_pos_as_xyz
  1  'x, y, z'
loop_
 _atom_site_type_symbol
 _atom_site_label
 _atom_site_symmetry_multiplicity
 _atom_site_fract_x
 _atom_site_fract_y
 _atom_site_fract_z
 _atom_site_occupancy
 _atom_site_hle17_ddec_charge
 _atom_site_hle17_ddec_spin_density
 _atom_site_hle17_ddec_sum_bond_order
 _atom_site_hle17_magmom
 _atom_site_hse06_10hf_ddec_charge
 _atom_site_hse06_10hf_ddec_spin_density
 _atom_site_hse06_10hf_ddec_sum_bond_order
 _atom_site_hse06_10hf_magmom
 _atom_site_hse06_ddec_charge
 _atom_site_hse06_ddec_spin_density
 _atom_site_hse06_ddec_sum_bond_order
 _atom_site_hse06_magmom
 _atom_site_pbe_cm5_charge
 _atom_site_pbe_ddec_charge
 _atom_site_pbe_ddec_spin_density
 _atom_site_pbe_ddec_sum_bond_order
 _atom_site_pbe_magmom
Mn  Mn0  1  0.31994621  0.25000811  0.99987978  1  1.290551  4.790996  1.648679  4.687  1.133243  4.717558  2.141469  4.55  1.191492  4.759706  2.067642  4.611  0.625432  1.087034  4.674102  2.195798  4.489
Mn  Mn1  1  0.68006036  0.74995096  0.00011457  1  1.29054  4.790989  1.6486  4.687  1.133337  4.717545  2.141252  4.55  1.191559  4.759691  2.067473  4.611  0.625464  1.087149  4.674092  2.195576  4.489
Mn  Mn2  1  0.99999655  0.00001345  0.50000064  1  1.29014  4.798764  1.623921  4.69  1.134284  4.725387  2.109238  4.555  1.190921  4.766822  2.038077  4.615  0.621245  1.089154  4.682151  2.162064  4.494
Mn  Mn3  1  0.50000833  0.50001103  0.49999588  1  1.291305  4.798999  1.621687  4.69  1.135306  4.725667  2.107349  4.555  1.191981  4.76703  2.036217  4.616  0.621994  1.090239  4.682498  2.159983  4.494
H  H4  1  0.70995897  0.36988495  0.73973909  1  0.112955  0.000222  0.960345  0.001  0.130451  0.000717  1.019933  0.001  0.131784  0.000389  1.020739  0.001  0.109062  0.129349  0.001097  1.019587  0.002
H  H5  1  0.96936313  0.12996544  0.26002863  1  0.112396  0.000212  0.960714  0.001  0.129951  0.000718  1.019899  0.001  0.131317  0.000389  1.02065  0.001  0.108718  0.128833  0.001098  1.019588  0.002
H  H6  1  0.29003592  0.63010610  0.26026978  1  0.113  0.000228  0.960287  0.001  0.130528  0.000716  1.019835  0.001  0.13186  0.000388  1.020644  0.001  0.109103  0.129428  0.001096  1.019486  0.002
H  H7  1  0.03063211  0.87003851  0.73998108  1  0.112338  0.00021  0.960725  0.001  0.129828  0.000716  1.019941  0.001  0.131189  0.000388  1.020698  0.001  0.10869  0.128721  0.001095  1.019634  0.002
H  H8  1  0.91886158  0.15034682  0.71251917  1  0.107526  -4.3e-05  0.968372  0.001  0.118921  0.000289  1.035893  0.001  0.121748  4.7e-05  1.033931  0.001  0.10431  0.116828  0.000567  1.037424  0.001
H  H9  1  0.20538259  0.34908972  0.28734566  1  0.107864  -4.8e-05  0.969164  0.001  0.118547  0.000281  1.036879  0.001  0.121299  4e-05  1.034999  0.001  0.10418  0.116504  0.000557  1.038381  0.001
H  H10  1  0.08112513  0.84965078  0.28748255  1  0.107502  -4.6e-05  0.968279  0.001  0.118885  0.000289  1.035844  0.001  0.121707  4.7e-05  1.03389  0.001  0.104351  0.116794  0.000565  1.037371  0.001
H  H11  1  0.79465626  0.65090326  0.71265249  1  0.107737  -4.9e-05  0.969123  0.001  0.118414  0.00028  1.036814  0.001  0.121168  3.9e-05  1.034924  0.001  0.104107  0.116363  0.000555  1.038363  0.001
H  H12  1  0.37406595  0.14197343  0.79475923  1  0.109944  9.6e-05  0.967754  0.001  0.121113  0.000528  1.034793  0.001  0.123944  0.000246  1.032794  0.001  0.105132  0.119032  0.000833  1.036357  0.001
H  H13  1  0.57876846  0.35819355  0.20503499  1  0.109128  9.9e-05  0.968117  0.001  0.12031  0.000528  1.035176  0.001  0.123134  0.000246  1.033161  0.001  0.104702  0.118221  0.000834  1.036783  0.001
H  H14  1  0.62592677  0.85801452  0.20524151  1  0.109915  9.3e-05  0.967769  0.001  0.121063  0.000527  1.034792  0.001  0.123883  0.000246  1.032818  0.001  0.105094  0.11899  0.000832  1.036348  0.001
H  H15  1  0.42124146  0.64181212  0.79497101  1  0.109096  0.000108  0.968079  0.001  0.120313  0.000529  1.035118  0.001  0.123135  0.000247  1.0331  0.001  0.104719  0.118223  0.000835  1.036727  0.001
H  H16  1  0.54803088  0.91048312  0.75903050  1  0.112011  0.000191  0.955897  0.001  0.128283  0.000651  1.01657  0.001  0.129781  0.000353  1.016966  0.001  0.108857  0.127079  0.000991  1.016509  0.002
H  H17  1  0.78835376  0.58947923  0.24083975  1  0.111226  0.000193  0.957134  0.001  0.128103  0.000654  1.017414  0.001  0.129546  0.000356  1.017877  0.001  0.109194  0.126918  0.000995  1.017352  0.002
H  H18  1  0.45193662  0.08950005  0.24096216  1  0.111964  0.000195  0.95599  0.001  0.128251  0.000651  1.016601  0.001  0.129747  0.000353  1.017001  0.001  0.108829  0.127049  0.000991  1.016543  0.002
H  H19  1  0.21167094  0.41053151  0.75915493  1  0.11129  0.000201  0.957043  0.001  0.128113  0.000655  1.017372  0.001  0.129551  0.000357  1.017837  0.001  0.109234  0.126941  0.000997  1.017284  0.002
C  C20  1  0.70264230  0.19503430  0.71762756  1  -0.257479  0.00026  3.680456  0.001  -0.299316  0.001223  3.924981  0.001  -0.305379  0.000465  3.933188  0.001  -0.166703  -0.294855  0.002095  3.919554  0.002
C  C21  1  0.98393689  0.30483899  0.28217193  1  -0.256929  0.000273  3.682873  0.001  -0.297697  0.001202  3.926636  0.001  -0.303736  0.000455  3.934902  0.001  -0.166203  -0.293274  0.002069  3.921206  0.002
C  C22  1  0.29733379  0.80495702  0.28236150  1  -0.257259  0.000252  3.67998  0.001  -0.299271  0.001223  3.924714  0.001  -0.305329  0.000468  3.932923  0.001  -0.166795  -0.294807  0.002095  3.91927  0.002
C  C23  1  0.01607930  0.69516673  0.71783243  1  -0.256892  0.000284  3.682286  0.001  -0.29751  0.001202  3.926049  0.001  -0.303558  0.000452  3.934339  0.001  -0.166226  -0.293153  0.00207  3.920679  0.002
C  C24  1  0.75907216  0.09673989  0.87540446  1  0.760372  0.016365  3.747772  0.016  0.703521  0.026205  4.049155  0.024  0.74095  0.019647  4.039765  0.019  0.243012  0.676675  0.033131  4.055098  0.029
C  C25  1  0.88350731  0.40325727  0.12441354  1  0.758472  0.016484  3.746894  0.016  0.702508  0.026348  4.047421  0.024  0.739883  0.019761  4.038069  0.019  0.242977  0.675678  0.033311  4.053344  0.029
C  C26  1  0.24091385  0.90323197  0.12459295  1  0.760581  0.016409  3.747329  0.016  0.703732  0.026207  4.048646  0.024  0.741161  0.019651  4.039248  0.019  0.24315  0.676902  0.033136  4.054579  0.029
C  C27  1  0.11648321  0.59672611  0.87557050  1  0.75888  0.016516  3.746503  0.016  0.702793  0.026347  4.047174  0.024  0.740168  0.019759  4.037817  0.019  0.243042  0.675958  0.03331  4.053111  0.029
C  C28  1  0.58141139  0.08323755  0.78448176  1  -0.259867  0.000722  3.680719  0.001  -0.300518  0.001944  3.92648  0.002  -0.306191  0.001038  3.934274  0.001  -0.16675  -0.296355  0.002957  3.921319  0.002
C  C29  1  0.79632156  0.41683253  0.21532784  1  -0.255758  0.000707  3.681459  0.001  -0.297734  0.001948  3.927363  0.002  -0.303314  0.001037  3.935171  0.001  -0.165919  -0.293627  0.002962  3.922212  0.002
C  C30  1  0.41858124  0.91674721  0.21551681  1  -0.259892  0.000705  3.681048  0.001  -0.30043  0.001942  3.92662  0.002  -0.306103  0.001036  3.934414  0.001  -0.166716  -0.296266  0.002955  3.921445  0.002
C  C31  1  0.20369046  0.58317317  0.78467632  1  -0.255932  0.000667  3.681589  0.001  -0.297913  0.001947  3.927566  0.002  -0.303486  0.001037  3.935358  0.001  -0.165947  -0.2938  0.002961  3.922436  0.002
C  C32  1  0.53729700  0.16148074  0.62462060  1  0.760565  0.016576  3.747537  0.016  0.703479  0.027212  4.050321  0.025  0.741112  0.020387  4.040528  0.019  0.242961  0.67641  0.034594  4.056553  0.031
C  C33  1  0.91157551  0.33852701  0.37518599  1  0.75419  0.016526  3.752365  0.016  0.697668  0.027121  4.053807  0.025  0.735146  0.020324  4.044319  0.019  0.239907  0.670701  0.03447  4.059846  0.03
C  C34  1  0.46270705  0.83853949  0.37538149  1  0.76046  0.016581  3.747636  0.016  0.703351  0.027208  4.050459  0.025  0.740974  0.020384  4.040678  0.019  0.242931  0.676295  0.034588  4.056679  0.031
C  C35  1  0.08841916  0.66153202  0.62480968  1  0.754656  0.016484  3.75345  0.016  0.697807  0.027066  4.055186  0.025  0.735268  0.020286  4.045703  0.019  0.239759  0.670882  0.034394  4.061209  0.03
O  O36  1  0.28634453  0.09303987  0.61404024  1  -0.646382  0.035608  2.066904  0.023  -0.569067  0.042253  2.335833  0.026  -0.602245  0.036854  2.323652  0.021  -0.295807  -0.544562  0.047861  2.34377  0.031
O  O37  1  0.67098234  0.40696130  0.38563266  1  -0.644253  0.035572  2.068  0.023  -0.56756  0.042171  2.337008  0.026  -0.600741  0.036798  2.324935  0.021  -0.294725  -0.54308  0.047756  2.344921  0.031
O  O38  1  0.71364093  0.90698844  0.38595754  1  -0.646514  0.03562  2.06733  0.023  -0.569107  0.042256  2.336206  0.026  -0.602274  0.036856  2.32402  0.021  -0.295805  -0.544569  0.047862  2.344059  0.031
O  O39  1  0.32898758  0.59311045  0.61436911  1  -0.644849  0.035573  2.068321  0.023  -0.567656  0.04215  2.337158  0.026  -0.600832  0.036778  2.325083  0.021  -0.2947  -0.543128  0.047729  2.344956  0.031
O  O40  1  0.01631769  0.14549971  0.88545281  1  -0.641674  0.037266  2.051769  0.025  -0.567453  0.046964  2.318155  0.032  -0.598971  0.040743  2.304505  0.026  -0.290105  -0.544365  0.053335  2.327317  0.038
O  O41  1  0.13067470  0.35424986  0.11429160  1  -0.641492  0.037355  2.052284  0.025  -0.567948  0.0471  2.318233  0.032  -0.599462  0.040868  2.304676  0.026  -0.289892  -0.544867  0.053484  2.327369  0.038
O  O42  1  0.98367856  0.85446418  0.11454069  1  -0.641792  0.037253  2.051723  0.025  -0.567642  0.046963  2.318204  0.032  -0.599155  0.040742  2.304549  0.026  -0.290218  -0.544624  0.053337  2.327452  0.038
O  O43  1  0.86933773  0.64569456  0.88571187  1  -0.641477  0.037343  2.052379  0.025  -0.567969  0.0471  2.318465  0.032  -0.599481  0.040868  2.304913  0.026  -0.289839  -0.544888  0.053484  2.327597  0.038
O  O44  1  0.65739187  0.21246939  0.56099835  1  -0.722481  0.047771  2.034522  0.023  -0.651738  0.065254  2.3312  0.035  -0.682959  0.05811  2.310408  0.029  -0.305224  -0.627692  0.072345  2.345083  0.04
O  O45  1  0.09542843  0.28779475  0.43885526  1  -0.719463  0.047497  2.032547  0.023  -0.649003  0.064962  2.329048  0.035  -0.679796  0.057809  2.307848  0.029  -0.304002  -0.625127  0.072041  2.343022  0.04
O  O46  1  0.34260836  0.78756382  0.43899853  1  -0.722447  0.04776  2.034667  0.023  -0.651682  0.065249  2.331379  0.035  -0.682889  0.058103  2.310578  0.029  -0.305216  -0.627647  0.072337  2.345266  0.04
O  O47  1  0.90463876  0.71224147  0.56116860  1  -0.719195  0.047463  2.033727  0.023  -0.648839  0.06494  2.330551  0.035  -0.679621  0.05779  2.30935  0.029  -0.303735  -0.624973  0.072016  2.344506  0.04
O  O48  1  0.63581224  0.05027587  0.93912345  1  -0.72599  0.050055  2.112695  0.025  -0.651695  0.065303  2.41728  0.034  -0.685164  0.058492  2.397132  0.028  -0.312027  -0.625874  0.072077  2.43032  0.04
O  O49  1  0.69658275  0.44998707  0.06075978  1  -0.726176  0.050204  2.113769  0.025  -0.651239  0.065392  2.416856  0.034  -0.684684  0.058561  2.396758  0.028  -0.312734  -0.625387  0.072177  2.429819  0.04
O  O50  1  0.36416942  0.94968964  0.06086682  1  -0.726069  0.050031  2.112439  0.025  -0.651756  0.065305  2.417019  0.034  -0.685227  0.058491  2.396866  0.028  -0.312017  -0.625923  0.07208  2.430045  0.04
O  O51  1  0.30340957  0.54998635  0.93924195  1  -0.726343  0.050201  2.113005  0.025  -0.651361  0.065401  2.416156  0.034  -0.68481  0.058564  2.396053  0.028  -0.312847  -0.625507  0.072191  2.429127  0.04
