# generated using pymatgen
data_NdH4C3O8
_symmetry_space_group_name_H-M   'P 1'
_cell_length_a   6.07792446
_cell_length_b   7.77784549
_cell_length_c   8.27745761
_cell_angle_alpha   96.46933703
_cell_angle_beta   93.29832731
_cell_angle_gamma   110.09600913
_symmetry_Int_Tables_number   1
_chemical_formula_structural   NdH4C3O8
_chemical_formula_sum   'Nd2 H8 C6 O16'
_cell_volume   363.19090183
_cell_formula_units_Z   2
loop_
 _symmetry_equiv_pos_site_id
 _symmetry_equiv_pos_as_xyz
  1  'x, y, z'
loop_
 _atom_site_type_symbol
 _atom_site_label
 _atom_site_symmetry_multiplicity
 _atom_site_fract_x
 _atom_site_fract_y
 _atom_site_fract_z
 _atom_site_occupancy
 _atom_site_hle17_bader_spin_density
 _atom_site_hle17_ddec_charge
 _atom_site_hle17_ddec_spin_density
 _atom_site_hle17_ddec_sum_bond_order
 _atom_site_hle17_magmom
 _atom_site_hse06_10hf_bader_spin_density
 _atom_site_hse06_10hf_ddec_charge
 _atom_site_hse06_10hf_ddec_spin_density
 _atom_site_hse06_10hf_ddec_sum_bond_order
 _atom_site_hse06_10hf_magmom
 _atom_site_hse06_bader_spin_density
 _atom_site_hse06_ddec_charge
 _atom_site_hse06_ddec_spin_density
 _atom_site_hse06_ddec_sum_bond_order
 _atom_site_hse06_magmom
 _atom_site_pbe_bader_spin_density
 _atom_site_pbe_cm5_charge
 _atom_site_pbe_ddec_charge
 _atom_site_pbe_ddec_spin_density
 _atom_site_pbe_ddec_sum_bond_order
 _atom_site_pbe_magmom
Nd  Nd0  1  0.50106047  0.81484447  0.78251649  1  0  2.268174  0  1.588833  0  0  2.093008  0  2.06021  0  0  2.199896  0  1.896412  0  0  1.478114  2.062844  0  2.089806  0
Nd  Nd1  1  0.49893447  0.18515319  0.21747969  1  0  2.26812  0  1.588876  0  0  2.093045  0  2.060145  0  0  2.199859  0  1.896462  0  0  1.478136  2.062758  0  2.089944  0
H  H2  1  0.07121033  0.87206076  0.62761410  1  0  0.451919  0  0.838204  0  0  0.420625  0  0.900991  0  0  0.432296  0  0.883891  0  0  0.310769  0.412451  0  0.913091  0
H  H3  1  0.92878369  0.12793532  0.37238787  1  0  0.451923  0  0.838173  0  0  0.420645  0  0.900937  0  0  0.432313  0  0.883841  0  0  0.310794  0.412473  0  0.913035  0
H  H4  1  0.19340816  0.82183793  0.46807606  1  0  0.461143  0  0.817618  0  0  0.435482  0  0.869827  0  0  0.446446  0  0.853826  0  0  0.315422  0.427932  0  0.88093  0
H  H5  1  0.80657153  0.17814364  0.53191951  1  0  0.461151  0  0.817624  0  0  0.435552  0  0.869743  0  0  0.446475  0  0.853801  0  0  0.31546  0.428002  0  0.880847  0
H  H6  1  0.50812185  0.17069300  0.64914267  1  0  0.434392  0  0.85703  0  0  0.405731  0  0.919276  0  0  0.415626  0  0.905039  0  0  0.313409  0.3987  0  0.929603  0
H  H7  1  0.49186760  0.82929992  0.35086222  1  0  0.434371  0  0.857023  0  0  0.405702  0  0.919307  0  0  0.415596  0  0.905072  0  0  0.313374  0.398671  0  0.929632  0
H  H8  1  0.68705906  0.23368239  0.81074419  1  0  0.449799  0  0.838121  0  0  0.420602  0  0.897252  0  0  0.431436  0  0.88163  0  0  0.31341  0.412913  0  0.908454  0
H  H9  1  0.31292394  0.76630771  0.18924414  1  0  0.449646  0  0.838273  0  0  0.42049  0  0.897341  0  0  0.431319  0  0.881731  0  0  0.313327  0.412835  0  0.908504  0
C  C10  1  0.38663973  0.50577907  0.03537851  1  0  0.579677  0  3.900166  0  0  0.53463  0  4.198181  0  0  0.564988  0  4.19315  0  0  0.224413  0.513771  0  4.204919  0
C  C11  1  0.61337266  0.49422914  0.96463232  1  0  0.57936  0  3.900546  0  0  0.534352  0  4.198492  0  0  0.564713  0  4.193457  0  0  0.224376  0.513489  0  4.205228  0
C  C12  1  0.05961512  0.98348489  0.92251663  1  0  0.60155  0  3.866388  0  0  0.554451  0  4.158979  0  0  0.584943  0  4.15645  0  0  0.243553  0.533384  0  4.1658  0
C  C13  1  0.94039517  0.01652475  0.07748331  1  0  0.601357  0  3.866652  0  0  0.554289  0  4.159246  0  0  0.584759  0  4.156744  0  0  0.243446  0.533229  0  4.166057  0
C  C14  1  0.58946355  0.57357053  0.45686416  1  0  0.56696  0  3.911256  0  0  0.522883  0  4.207199  0  0  0.552552  0  4.204105  0  0  0.222578  0.502435  0  4.213048  0
C  C15  1  0.41054310  0.42642155  0.54312864  1  0  0.566957  0  3.911006  0  0  0.522766  0  4.207095  0  0  0.552435  0  4.204  0  0  0.222631  0.502319  0  4.212945  0
O  O16  1  0.32702481  0.64195422  0.00466414  1  0  -0.677339  0  2.05956  0  0  -0.62179  0  2.296216  0  0  -0.652101  0  2.282307  0  0  -0.366653  -0.605806  0  2.303997  0
O  O17  1  0.67297333  0.35805962  0.99533898  1  0  -0.67722  0  2.059982  0  0  -0.621675  0  2.296629  0  0  -0.651969  0  2.282714  0  0  -0.36667  -0.605665  0  2.304407  0
O  O18  1  0.27108734  0.98876750  0.94594450  1  0  -0.746772  0  2.126435  0  0  -0.690433  0  2.385523  0  0  -0.728595  0  2.374348  0  0  -0.38715  -0.67388  0  2.39164  0
O  O19  1  0.72891500  0.01123337  0.05405624  1  0  -0.746734  0  2.126371  0  0  -0.690407  0  2.385463  0  0  -0.728556  0  2.374283  0  0  -0.387123  -0.673853  0  2.391575  0
O  O20  1  0.62453125  0.74289298  0.51019457  1  0  -0.684076  0  2.043949  0  0  -0.625  0  2.280804  0  0  -0.655321  0  2.26733  0  0  -0.373559  -0.608677  0  2.287943  0
O  O21  1  0.37547917  0.25710725  0.48980672  1  0  -0.683958  0  2.04412  0  0  -0.624871  0  2.281016  0  0  -0.655182  0  2.267547  0  0  -0.37349  -0.608532  0  2.288158  0
O  O22  1  0.28130510  0.38352452  0.11927571  1  0  -0.640757  0  2.035032  0  0  -0.59558  0  2.27224  0  0  -0.625207  0  2.261861  0  0  -0.351804  -0.579421  0  2.277256  0
O  O23  1  0.71871414  0.61649549  0.88071643  1  0  -0.640649  0  2.034802  0  0  -0.5955  0  2.272024  0  0  -0.625144  0  2.261642  0  0  -0.351766  -0.579354  0  2.277037  0
O  O24  1  0.93984315  0.95464336  0.78658916  1  0  -0.616119  0  2.088752  0  0  -0.558603  0  2.319314  0  0  -0.588298  0  2.308426  0  0  -0.330189  -0.542452  0  2.325564  0
O  O25  1  0.06016094  0.04535648  0.21340554  1  0  -0.615977  0  2.088994  0  0  -0.558544  0  2.319594  0  0  -0.588219  0  2.308716  0  0  -0.330146  -0.542379  0  2.325842  0
O  O26  1  0.68279416  0.51706570  0.34105280  1  0  -0.626261  0  2.02523  0  0  -0.579775  0  2.257237  0  0  -0.60901  0  2.24578  0  0  -0.352717  -0.564396  0  2.263099  0
O  O27  1  0.31720614  0.48292956  0.65895076  1  0  -0.626331  0  2.024796  0  0  -0.579805  0  2.256857  0  0  -0.609055  0  2.2454  0  0  -0.35279  -0.564443  0  2.262716  0
O  O28  1  0.18656196  0.81819123  0.58648782  1  0  -0.928734  0  1.823361  0  0  -0.877192  0  2.012441  0  0  -0.903685  0  1.971729  0  0  -0.652991  -0.864532  0  2.036351  0
O  O29  1  0.81343289  0.18179812  0.41351828  1  0  -0.928762  0  1.823375  0  0  -0.877292  0  2.012343  0  0  -0.903739  0  1.97172  0  0  -0.653035  -0.864613  0  2.036263  0
O  O30  1  0.63452834  0.14200006  0.70899827  1  0  -0.893451  0  1.883133  0  0  -0.838943  0  2.064892  0  0  -0.865833  0  2.028987  0  0  -0.606605  -0.825144  0  2.086946  0
O  O31  1  0.36546635  0.85801054  0.29101510  1  0  -0.893359  0  1.88322  0  0  -0.838843  0  2.064918  0  0  -0.865739  0  2.029045  0  0  -0.606525  -0.825057  0  2.086898  0
