# generated using pymatgen
data_ZnH17C18(NO2)2
_symmetry_space_group_name_H-M   'P 1'
_cell_length_a   11.22639149
_cell_length_b   13.96202708
_cell_length_c   15.37979869
_cell_angle_alpha   92.10192330
_cell_angle_beta   93.47657889
_cell_angle_gamma   90.29334542
_symmetry_Int_Tables_number   1
_chemical_formula_structural   ZnH17C18(NO2)2
_chemical_formula_sum   'Zn2 H34 C36 N4 O8'
_cell_volume   2404.55795948
_cell_formula_units_Z   2
loop_
 _symmetry_equiv_pos_site_id
 _symmetry_equiv_pos_as_xyz
  1  'x, y, z'
loop_
 _atom_site_type_symbol
 _atom_site_label
 _atom_site_symmetry_multiplicity
 _atom_site_fract_x
 _atom_site_fract_y
 _atom_site_fract_z
 _atom_site_occupancy
 _atom_site_pbe_bader_charge
 _atom_site_pbe_bader_spin_density
 _atom_site_pbe_cm5_charge
 _atom_site_pbe_ddec_charge
 _atom_site_pbe_ddec_spin_density
 _atom_site_pbe_ddec_sum_bond_order
 _atom_site_pbe_magmom
Zn  Zn0  1  0.49710912  0.40143987  0.49781622  1  1.26251  0  0.661265  0.805159  0  2.437766  0
Zn  Zn1  1  0.49930864  0.60109830  0.50027019  1  1.2741  0  0.663759  0.809721  0  2.434926  0
H  H2  1  0.89022539  0.64751709  0.50439322  1  0.084789  0  0.103128  0.098403  0  0.994199  0
H  H3  1  0.11101322  0.64668666  0.51905192  1  0.076445  0  0.102739  0.097833  0  0.993121  0
H  H4  1  0.59256788  0.25488806  0.61795187  1  0.164635  0  0.133469  0.112734  0  0.967835  0
H  H5  1  0.40185556  0.24339036  0.37938362  1  0.130397  0  0.132145  0.108229  0  0.973124  0
H  H6  1  0.90187215  0.42868283  0.52101014  1  0.091348  0  0.107137  0.12232  0  0.993221  0
H  H7  1  0.09174440  0.42907379  0.48112035  1  0.098353  0  0.107259  0.122802  0  0.990918  0
H  H8  1  0.65320055  0.40370239  0.06479021  1  0.047177  0  0.092384  0.095926  0  1.027818  0
H  H9  1  0.31244020  0.50911648  0.93022748  1  0.038968  0  0.092725  0.095017  0  1.026725  0
H  H10  1  0.35085026  0.59180023  0.05324958  1  0.032065  0  0.094107  0.097872  0  1.030294  0
H  H11  1  0.69607734  0.49408085  0.94835589  1  0.0634  0  0.09458  0.099136  0  1.027151  0
H  H12  1  0.32158294  0.92956881  0.43594491  1  0.09219  0  0.114692  0.119573  0  0.990687  0
H  H13  1  0.67746269  0.93661800  0.56075008  1  0.092652  0  0.115086  0.120022  0  0.990475  0
H  H14  1  0.33010699  0.75007794  0.43870951  1  0.127173  0  0.130106  0.106555  0  0.978479  0
H  H15  1  0.66950638  0.75685583  0.55838207  1  0.138407  0  0.129832  0.106591  0  0.980108  0
H  H16  1  0.59842894  0.07554972  0.62351272  1  0.061222  0  0.115569  0.121705  0  0.988018  0
H  H17  1  0.39916652  0.06377797  0.37351685  1  0.094038  0  0.115835  0.121501  0  0.988281  0
H  H18  1  0.71136704  0.23527597  0.27235277  1  0.018803  0  0.080059  0.104281  0  1.007372  0
H  H19  1  0.55785782  0.26734049  0.27062317  1  0.045575  0  0.078663  0.107032  0  1.043032  0
H  H20  1  0.62746168  0.24487682  0.17097598  1  0.002403  0  0.079411  0.103421  0  1.013053  0
H  H21  1  0.75937007  0.38989776  0.20460992  1  0.019067  0  0.087172  0.078837  0  0.98088  0
H  H22  1  0.69094062  0.41052489  0.30388453  1  0.055894  0  0.092324  0.098058  0  0.989272  0
H  H23  1  0.13700649  0.42317558  0.69668289  1  0.010926  0  0.079522  0.104962  0  1.014761  0
H  H24  1  0.28298211  0.37538860  0.69095619  1  0.03695  0  0.084112  0.122713  0  1.011948  0
H  H25  1  0.21204640  0.37688038  0.79142314  1  0.018271  0  0.07926  0.103291  0  1.012936  0
H  H26  1  0.21559233  0.55830292  0.79453013  1  0.015718  0  0.087154  0.079207  0  0.979743  0
H  H27  1  0.28906051  0.55585004  0.69635592  1  0.033352  0  0.091674  0.095701  0  0.992521  0
H  H28  1  0.27513809  0.64128311  0.17378636  1  0.402346  0  0.297476  0.235393  0  0.95393  0
H  H29  1  0.16955679  0.51223056  0.23893672  1  0.016559  0  0.083178  0.077786  0  0.999116  0
H  H30  1  0.19105392  0.61347085  0.31338285  1  0.047136  0  0.093694  0.10061  0  0.995256  0
H  H31  1  0.28501381  0.51335393  0.32318885  1  0.068704  0  0.102012  0.11615  0  1.032595  0
H  H32  1  0.78880174  0.47189999  0.82136630  1  0.393319  0  0.294255  0.233876  0  0.955606  0
H  H33  1  0.78190260  0.64269037  0.78803737  1  0.02275  0  0.077357  0.069465  0  1.007401  0
H  H34  1  0.69681283  0.60712101  0.69040990  1  0.096056  0  0.097409  0.117989  0  1.032472  0
H  H35  1  0.84632131  0.56823666  0.70584733  1  0.037539  0  0.091979  0.099296  0  1.003929  0
C  C36  1  0.49299707  0.49305391  0.32817020  1  1.531224  0  0.215088  0.608921  0  4.17959  0
C  C37  1  0.50420965  0.50370022  0.67014781  1  1.6179  0  0.223553  0.628728  0  4.151158  0
C  C38  1  0.50234744  0.49805251  0.04718608  1  -0.047315  0  -0.014324  0.096518  0  4.056906  0
C  C39  1  0.50393602  0.49959639  0.95116694  1  -0.006669  0  -0.014658  0.08981  0  4.050016  0
C  C40  1  0.40120431  0.89451063  0.46310323  1  -0.092682  0  -0.076273  -0.175637  0  3.944489  0
C  C41  1  0.59779586  0.89853790  0.53394113  1  -0.023613  0  -0.077195  -0.176241  0  3.948057  0
C  C42  1  0.40457609  0.79512027  0.46464457  1  0.520365  0  0.066134  0.112861  0  3.906762  0
C  C43  1  0.59464167  0.79901981  0.53278145  1  0.458754  0  0.064719  0.109171  0  3.910669  0
C  C44  1  0.49934073  0.94854465  0.49855773  1  0.006169  0  0.01608  0.106017  0  3.991665  0
C  C45  1  0.55493822  0.10946871  0.56746992  1  -0.040135  0  -0.075225  -0.175265  0  3.940883  0
C  C46  1  0.44208256  0.10289516  0.42959802  1  0.004292  0  -0.075626  -0.174549  0  3.944979  0
C  C47  1  0.55200040  0.20886407  0.56530308  1  0.499865  0  0.067329  0.112867  0  3.903756  0
C  C48  1  0.44349658  0.20241397  0.43188019  1  0.44373  0  0.065608  0.109246  0  3.919525  0
C  C49  1  0.49889968  0.05421354  0.49856262  1  0.040615  0  0.015046  0.105989  0  3.990987  0
C  C50  1  0.26350513  0.50361991  0.49527677  1  1.587993  0  0.204975  0.618189  0  4.210449  0
C  C51  1  0.73263392  0.50476706  0.50879998  1  1.550583  0  0.206661  0.626937  0  4.193406  0
C  C52  1  0.93490691  0.57827213  0.50882595  1  0.018635  0  -0.07861  -0.037128  0  4.011802  0
C  C53  1  0.06408934  0.57800563  0.50831506  1  -0.04308  0  -0.078077  -0.036359  0  4.004981  0
C  C54  1  0.86468307  0.50025640  0.51413592  1  -0.070609  0  -0.087471  -0.218338  0  3.886936  0
C  C55  1  0.13156777  0.50000792  0.49395538  1  -0.138996  0  -0.08719  -0.216539  0  3.884376  0
C  C56  1  0.58515261  0.44493559  0.09711664  1  -0.067103  0  -0.1131  -0.23264  0  3.99158  0
C  C57  1  0.39748776  0.50787705  0.89935034  1  0.001599  0  -0.108565  -0.220788  0  3.984121  0
C  C58  1  0.58126829  0.44135792  0.18771475  1  0.032948  0  -0.006757  0.122833  0  3.949424  0
C  C59  1  0.39647492  0.51194113  0.80859284  1  -0.014525  0  -0.00883  0.113376  0  3.965296  0
C  C60  1  0.49246193  0.49258775  0.23048881  1  -0.023144  0  -0.027291  -0.185036  0  3.883338  0
C  C61  1  0.50530736  0.50652346  0.76810736  1  -0.10169  0  -0.020283  -0.166689  0  3.888155  0
C  C62  1  0.40823431  0.54737500  0.18131160  1  0.422775  0  0.089995  0.219399  0  4.063512  0
C  C63  1  0.61393721  0.49954434  0.81862590  1  0.406233  0  0.08371  0.206914  0  4.067731  0
C  C64  1  0.41534392  0.54890173  0.09069175  1  -0.069056  0  -0.11405  -0.265515  0  3.993654  0
C  C65  1  0.61148904  0.49587078  0.90941788  1  -0.099707  0  -0.111543  -0.257436  0  3.992553  0
C  C66  1  0.67471925  0.38256621  0.23649202  1  0.001088  0  -0.162601  -0.141067  0  3.962108  0
C  C67  1  0.64093729  0.27600588  0.23757382  1  -0.069457  0  -0.247697  -0.343984  0  3.973212  0
C  C68  1  0.27835311  0.51662531  0.75613570  1  -0.001449  0  -0.163193  -0.143854  0  3.96742  0
C  C69  1  0.22436134  0.41701363  0.73239070  1  -0.047643  0  -0.247453  -0.347962  0  3.960608  0
C  C70  1  0.23706081  0.55794827  0.27602976  1  0.256333  0  -0.146394  -0.210357  0  3.983467  0
C  C71  1  0.76430888  0.58331410  0.73912594  1  0.216399  0  -0.153302  -0.216107  0  3.978327  0
N  N72  1  0.49955320  0.74834875  0.49905959  1  -1.202974  0  -0.312214  -0.182742  0  3.496235  0
N  N73  1  0.49739108  0.25427999  0.49852740  1  -1.233528  0  -0.314164  -0.188168  0  3.506305  0
N  N74  1  0.32003663  0.60255212  0.21979535  1  -1.127161  0  -0.463471  -0.319274  0  3.505623  0
N  N75  1  0.72389894  0.49533658  0.77825605  1  -1.1009  0  -0.470244  -0.336963  0  3.462363  0
O  O76  1  0.48464948  0.41231402  0.36381662  1  -1.161065  0  -0.314245  -0.552461  0  2.332062  0
O  O77  1  0.50602713  0.42139288  0.63212131  1  -1.158126  0  -0.310428  -0.545248  0  2.30689  0
O  O78  1  0.50271270  0.57406578  0.36871636  1  -1.154002  0  -0.316332  -0.540784  0  2.322577  0
O  O79  1  0.49895370  0.58366729  0.63287012  1  -1.168616  0  -0.318059  -0.556938  0  2.317509  0
O  O80  1  0.31506520  0.42230116  0.49558348  1  -1.151739  0  -0.3225  -0.552172  0  2.287743  0
O  O81  1  0.67875323  0.42384158  0.50022027  1  -1.162172  0  -0.322281  -0.551541  0  2.282053  0
O  O82  1  0.31515062  0.58530817  0.49546257  1  -1.173374  0  -0.321508  -0.56688  0  2.325815  0
O  O83  1  0.68317365  0.58676013  0.51215609  1  -1.178211  0  -0.320274  -0.56228  0  2.322537  0
