# generated using pymatgen
data_ZnH9C13(NO2)2
_symmetry_space_group_name_H-M   'P 1'
_cell_length_a   7.74554090
_cell_length_b   11.14043366
_cell_length_c   16.11921480
_cell_angle_alpha   107.47899942
_cell_angle_beta   90.00102902
_cell_angle_gamma   89.99983707
_symmetry_Int_Tables_number   1
_chemical_formula_structural   ZnH9C13(NO2)2
_chemical_formula_sum   'Zn4 H36 C52 N8 O16'
_cell_volume   1326.68368962
_cell_formula_units_Z   4
loop_
 _symmetry_equiv_pos_site_id
 _symmetry_equiv_pos_as_xyz
  1  'x, y, z'
loop_
 _atom_site_type_symbol
 _atom_site_label
 _atom_site_symmetry_multiplicity
 _atom_site_fract_x
 _atom_site_fract_y
 _atom_site_fract_z
 _atom_site_occupancy
 _atom_site_pbe_bader_charge
 _atom_site_pbe_bader_spin_density
 _atom_site_pbe_cm5_charge
 _atom_site_pbe_ddec_charge
 _atom_site_pbe_ddec_spin_density
 _atom_site_pbe_ddec_sum_bond_order
 _atom_site_pbe_magmom
Zn  Zn0  1  0.50004804  0.31584593  0.19142873  1  1.242195  0  0.691179  0.79663  0  2.291729  0
Zn  Zn1  1  0.00005340  0.68417280  0.30857336  1  1.24224  0  0.691164  0.796635  0  2.291685  0
Zn  Zn2  1  0.49995543  0.68416147  0.80857219  1  1.242161  0  0.691198  0.796667  0  2.291795  0
Zn  Zn3  1  0.99994104  0.31583082  0.69142732  1  1.242154  0  0.691128  0.796601  0  2.291713  0
H  H4  1  0.01614531  0.51490373  0.64280364  1  0.496221  0  0.298202  0.309984  0  0.957854  0
H  H5  1  0.51617381  0.48509417  0.85719356  1  0.496221  0  0.298225  0.310088  0  0.95773  0
H  H6  1  0.98384655  0.48510281  0.35719522  1  0.496319  0  0.298238  0.310047  0  0.957846  0
H  H7  1  0.48382708  0.51490874  0.14280138  1  0.496121  0  0.298201  0.310049  0  0.957767  0
H  H8  1  0.16187573  0.53087212  0.72112066  1  0.492043  0  0.293312  0.302843  0  0.977594  0
H  H9  1  0.66189365  0.46911870  0.77887248  1  0.491726  0  0.293313  0.302877  0  0.977543  0
H  H10  1  0.83811741  0.46913257  0.27887716  1  0.491703  0  0.293349  0.302839  0  0.977553  0
H  H11  1  0.33810853  0.53088607  0.22112350  1  0.49179  0  0.293325  0.302925  0  0.977516  0
H  H12  1  0.10038465  0.43310582  0.48958500  1  0.091241  0  0.107502  0.119688  0  1.019864  0
H  H13  1  0.60040515  0.56690890  0.01040527  1  0.091267  0  0.107524  0.119711  0  1.019915  0
H  H14  1  0.89960720  0.56690174  0.51041223  1  0.09106  0  0.107525  0.119759  0  1.019835  0
H  H15  1  0.39959703  0.43309490  0.98959111  1  0.091186  0  0.10752  0.119699  0  1.019851  0
H  H16  1  0.62351332  0.30324877  0.43696458  1  0.135752  0  0.104633  0.119495  0  1.011885  0
H  H17  1  0.12353923  0.69674666  0.06303394  1  0.13562  0  0.104658  0.119526  0  1.01207  0
H  H18  1  0.37647595  0.69674549  0.56303275  1  0.135713  0  0.104621  0.119496  0  1.011985  0
H  H19  1  0.87646037  0.30325037  0.93696526  1  0.135613  0  0.104653  0.119532  0  1.012  0
H  H20  1  0.42618894  0.40394883  0.69874265  1  0.131697  0  0.10785  0.121037  0  1.041272  0
H  H21  1  0.92622784  0.59603122  0.80125035  1  0.128822  0  0.107832  0.121005  0  1.041297  0
H  H22  1  0.57379904  0.59605019  0.30125451  1  0.132128  0  0.107851  0.121018  0  1.041242  0
H  H23  1  0.07377434  0.40396955  0.19875031  1  0.128858  0  0.107821  0.120986  0  1.041249  0
H  H24  1  0.22435757  0.16197956  0.23172430  1  0.159016  0  0.120719  0.094861  0  1.009394  0
H  H25  1  0.72435682  0.83802440  0.26828013  1  0.159154  0  0.120672  0.094805  0  1.009349  0
H  H26  1  0.77565107  0.83801920  0.76827901  1  0.159204  0  0.120619  0.094633  0  1.009162  0
H  H27  1  0.27564536  0.16198010  0.73172200  1  0.159135  0  0.120678  0.094877  0  1.009285  0
H  H28  1  0.22799574  0.04096463  0.91334425  1  0.041831  0  0.114426  0.118891  0  0.992051  0
H  H29  1  0.72798262  0.95901710  0.58666541  1  0.041667  0  0.114377  0.118836  0  0.991985  0
H  H30  1  0.77202968  0.95901999  0.08665649  1  0.041751  0  0.114391  0.118835  0  0.992196  0
H  H31  1  0.27201827  0.04098446  0.41333916  1  0.041728  0  0.114389  0.118879  0  0.991992  0
H  H32  1  0.97603402  0.04144242  0.15362820  1  0.082798  0  0.115337  0.12102  0  0.992622  0
H  H33  1  0.47602417  0.95855644  0.34637602  1  0.083128  0  0.11531  0.121007  0  0.992587  0
H  H34  1  0.02398753  0.95854314  0.84637275  1  0.08302  0  0.115301  0.121052  0  0.992476  0
H  H35  1  0.52397284  0.04144524  0.65362547  1  0.082859  0  0.115315  0.120996  0  0.992635  0
H  H36  1  0.46716530  0.16082787  0.00319061  1  0.17951  0  0.122436  0.110019  0  1.024406  0
H  H37  1  0.96716656  0.83917361  0.49681847  1  0.17955  0  0.122408  0.110016  0  1.024443  0
H  H38  1  0.53285883  0.83917180  0.99681353  1  0.179527  0  0.122429  0.110095  0  1.024526  0
H  H39  1  0.03283820  0.16083092  0.50318304  1  0.179434  0  0.122402  0.109978  0  1.024455  0
C  C40  1  0.35895741  0.36583176  0.45359195  1  0.0091  0  -0.023327  -0.035024  0  4.009003  0
C  C41  1  0.85897123  0.63416541  0.04640095  1  0.009107  0  -0.023293  -0.035242  0  4.009042  0
C  C42  1  0.64103573  0.63416245  0.54640661  1  0.009066  0  -0.023295  -0.034953  0  4.008955  0
C  C43  1  0.14102450  0.36583071  0.95359742  1  0.008782  0  -0.023301  -0.035055  0  4.008902  0
C  C44  1  0.33435185  0.35267032  0.35878347  1  1.565344  0  0.200958  0.566108  0  4.226565  0
C  C45  1  0.83436267  0.64735317  0.14121454  1  1.565547  0  0.20107  0.566463  0  4.225944  0
C  C46  1  0.66564258  0.64733442  0.64121313  1  1.565418  0  0.200993  0.566179  0  4.226486  0
C  C47  1  0.16563306  0.35264862  0.85878449  1  1.565517  0  0.201132  0.566451  0  4.22595  0
C  C48  1  0.25105794  0.42795174  0.60151083  1  0.321499  0  0.083817  0.269861  0  4.000913  0
C  C49  1  0.75107471  0.57202890  0.89848079  1  0.320856  0  0.084042  0.269888  0  4.00063  0
C  C50  1  0.74893391  0.57204725  0.39848695  1  0.32141  0  0.083827  0.269847  0  4.000839  0
C  C51  1  0.24892489  0.42796541  0.10151531  1  0.320863  0  0.083929  0.269791  0  4.000792  0
C  C52  1  0.22481544  0.41161362  0.51311272  1  -0.05502  0  -0.079871  -0.171962  0  3.897847  0
C  C53  1  0.72483799  0.58839054  0.98688274  1  -0.054721  0  -0.080065  -0.171942  0  3.897986  0
C  C54  1  0.77517771  0.58839015  0.48688428  1  -0.054648  0  -0.079955  -0.172096  0  3.897924  0
C  C55  1  0.27515515  0.41160840  0.01311627  1  -0.054692  0  -0.080044  -0.172001  0  3.89822  0
C  C56  1  0.51828581  0.33619228  0.48271800  1  -0.045697  0  -0.084467  -0.121335  0  3.956729  0
C  C57  1  0.01831662  0.66379803  0.01728342  1  -0.04556  0  -0.084415  -0.121225  0  3.956569  0
C  C58  1  0.48170346  0.66379992  0.51728320  1  -0.045684  0  -0.084447  -0.121385  0  3.956673  0
C  C59  1  0.98168169  0.33619790  0.98271926  1  -0.04527  0  -0.084431  -0.121319  0  3.956772  0
C  C60  1  0.71956640  0.32460273  0.60007584  1  1.53736  0  0.198858  0.560313  0  4.207172  0
C  C61  1  0.21959712  0.67538227  0.89992331  1  1.537343  0  0.198827  0.56028  0  4.207175  0
C  C62  1  0.28042287  0.67539430  0.39992335  1  1.537213  0  0.198977  0.560521  0  4.207033  0
C  C63  1  0.78040248  0.32461369  0.10007875  1  1.537271  0  0.198807  0.560099  0  4.207298  0
C  C64  1  0.54458642  0.35189210  0.57120780  1  0.005843  0  -0.02311  -0.029908  0  4.016729  0
C  C65  1  0.04461574  0.64808224  0.92878681  1  0.005414  0  -0.023223  -0.03019  0  4.016701  0
C  C66  1  0.45540156  0.64810119  0.42878993  1  0.005815  0  -0.02319  -0.030046  0  4.016659  0
C  C67  1  0.95538773  0.35191480  0.07121239  1  0.00533  0  -0.023283  -0.030212  0  4.016947  0
C  C68  1  0.41034890  0.39639333  0.63026746  1  -0.094617  0  -0.088753  -0.188304  0  3.911472  0
C  C69  1  0.91038513  0.60358938  0.86972911  1  -0.090945  0  -0.08878  -0.188165  0  3.911482  0
C  C70  1  0.58963908  0.60360080  0.36973295  1  -0.094957  0  -0.088683  -0.188165  0  3.91155  0
C  C71  1  0.08961446  0.39640590  0.13026659  1  -0.090952  0  -0.088695  -0.188065  0  3.911435  0
C  C72  1  0.22140494  0.12971795  0.16094170  1  0.52644  0  0.051586  0.099249  0  3.946836  0
C  C73  1  0.72139895  0.87028413  0.33906227  1  0.526489  0  0.051471  0.099029  0  3.94655  0
C  C74  1  0.77861918  0.87028918  0.83906598  1  0.526917  0  0.051729  0.099659  0  3.946835  0
C  C75  1  0.27859936  0.12971567  0.66093879  1  0.526444  0  0.051475  0.098953  0  3.94668  0
C  C76  1  0.22038875  0.06355300  0.98373092  1  -0.048968  0  -0.07  -0.148  0  3.920103  0
C  C77  1  0.72038086  0.93644881  0.51627513  1  -0.049102  0  -0.069993  -0.148006  0  3.919913  0
C  C78  1  0.77962893  0.93644748  0.01627650  1  -0.048924  0  -0.069906  -0.147831  0  3.919495  0
C  C79  1  0.27962003  0.06355100  0.48372593  1  -0.049093  0  -0.069973  -0.14805  0  3.919863  0
C  C80  1  0.08164254  0.06326776  0.11613592  1  -0.04113  0  -0.070347  -0.148697  0  3.910629  0
C  C81  1  0.58164439  0.93673661  0.38387357  1  -0.041535  0  -0.070366  -0.14866  0  3.910734  0
C  C82  1  0.91835447  0.93672619  0.88386879  1  -0.042142  0  -0.070433  -0.149  0  3.911421  0
C  C83  1  0.41835133  0.06326215  0.61612974  1  -0.041325  0  -0.070335  -0.14859  0  3.910816  0
C  C84  1  0.07590601  0.03130570  0.02500458  1  0.010629  0  0.022393  0.11081  0  3.952565  0
C  C85  1  0.57589948  0.96869126  0.47500008  1  -0.022159  0  0.022462  0.110877  0  3.952736  0
C  C86  1  0.92411037  0.96869418  0.97499464  1  -0.022553  0  0.022392  0.110926  0  3.952514  0
C  C87  1  0.42410012  0.03130279  0.52500217  1  0.010606  0  0.022358  0.110834  0  3.952655  0
C  C88  1  0.35605166  0.12972900  0.03268287  1  0.486341  0  0.050417  0.089847  0  3.944621  0
C  C89  1  0.85605557  0.87027499  0.46732829  1  0.486335  0  0.050393  0.089778  0  3.944311  0
C  C90  1  0.64394020  0.87026788  0.96732001  1  0.486464  0  0.050363  0.089654  0  3.94432  0
C  C91  1  0.14394919  0.12972575  0.53267299  1  0.48657  0  0.050421  0.089876  0  3.944322  0
N  N92  1  0.11517051  0.46914504  0.66382332  1  -1.22047  0  -0.600302  -0.593252  0  3.385205  0
N  N93  1  0.61519675  0.53084856  0.83616881  1  -1.220134  0  -0.60038  -0.593341  0  3.385249  0
N  N94  1  0.88482393  0.53085771  0.33617531  1  -1.220176  0  -0.600381  -0.593277  0  3.385244  0
N  N95  1  0.38480543  0.46915521  0.16382819  1  -1.220065  0  -0.600338  -0.593354  0  3.385204  0
N  N96  1  0.35595767  0.16453328  0.12036743  1  -1.260799  0  -0.331455  -0.245796  0  3.577878  0
N  N97  1  0.85597139  0.83547755  0.37963907  1  -1.260777  0  -0.331224  -0.245425  0  3.577202  0
N  N98  1  0.64404967  0.83547418  0.87963226  1  -1.260535  0  -0.331382  -0.245759  0  3.577506  0
N  N99  1  0.14402950  0.16452419  0.62036119  1  -1.260781  0  -0.331237  -0.245461  0  3.577261  0
O  O100  1  0.74310015  0.33595998  0.68245433  1  -1.172441  0  -0.332518  -0.554332  0  2.274597  0
O  O101  1  0.24312012  0.66401486  0.81753963  1  -1.172108  0  -0.332547  -0.55421  0  2.274557  0
O  O102  1  0.25689428  0.66404090  0.31754388  1  -1.172482  0  -0.332541  -0.554414  0  2.27454  0
O  O103  1  0.75688722  0.33598866  0.18246351  1  -1.172047  0  -0.332503  -0.55412  0  2.274597  0
O  O104  1  0.46685180  0.30688131  0.31012804  1  -1.180855  0  -0.342133  -0.567102  0  2.340217  0
O  O105  1  0.96685390  0.69314609  0.18987447  1  -1.181148  0  -0.342184  -0.56723  0  2.340175  0
O  O106  1  0.53314909  0.69313080  0.68987394  1  -1.180908  0  -0.342207  -0.567206  0  2.340178  0
O  O107  1  0.03314699  0.30685193  0.81012371  1  -1.181074  0  -0.342173  -0.567234  0  2.340384  0
O  O108  1  0.83978947  0.29354485  0.54574629  1  -1.181247  0  -0.315866  -0.546312  0  2.181162  0
O  O109  1  0.33982724  0.70642100  0.95424089  1  -1.181683  0  -0.315791  -0.546281  0  2.18154  0
O  O110  1  0.16019722  0.70645028  0.45425309  1  -1.181225  0  -0.315951  -0.546415  0  2.181144  0
O  O111  1  0.66017881  0.29357029  0.04575949  1  -1.181721  0  -0.315777  -0.546146  0  2.181612  0
O  O112  1  0.19475355  0.38433032  0.33171001  1  -1.197237  0  -0.321401  -0.560664  0  2.175431  0
O  O113  1  0.69476162  0.61568636  0.16828401  1  -1.196864  0  -0.321509  -0.56088  0  2.174973  0
O  O114  1  0.80523443  0.61566958  0.66828860  1  -1.197098  0  -0.321409  -0.560664  0  2.1753  0
O  O115  1  0.30523153  0.38432865  0.83171677  1  -1.196923  0  -0.321541  -0.560931  0  2.174933  0
