# generated using pymatgen
data_HgH8C11N3Cl3O
_symmetry_space_group_name_H-M   'P 1'
_cell_length_a   3.96821596
_cell_length_b   11.81521406
_cell_length_c   15.32356695
_cell_angle_alpha   107.57786834
_cell_angle_beta   95.66833080
_cell_angle_gamma   100.75019472
_symmetry_Int_Tables_number   1
_chemical_formula_structural   HgH8C11N3Cl3O
_chemical_formula_sum   'Hg2 H16 C22 N6 Cl6 O2'
_cell_volume   663.59279300
_cell_formula_units_Z   2
loop_
 _symmetry_equiv_pos_site_id
 _symmetry_equiv_pos_as_xyz
  1  'x, y, z'
loop_
 _atom_site_type_symbol
 _atom_site_label
 _atom_site_symmetry_multiplicity
 _atom_site_fract_x
 _atom_site_fract_y
 _atom_site_fract_z
 _atom_site_occupancy
 _atom_site_hle17_bader_spin_density
 _atom_site_hle17_ddec_charge
 _atom_site_hle17_ddec_spin_density
 _atom_site_hle17_ddec_sum_bond_order
 _atom_site_hle17_magmom
 _atom_site_hse06_10hf_bader_spin_density
 _atom_site_hse06_10hf_ddec_charge
 _atom_site_hse06_10hf_ddec_spin_density
 _atom_site_hse06_10hf_ddec_sum_bond_order
 _atom_site_hse06_10hf_magmom
 _atom_site_hse06_bader_spin_density
 _atom_site_hse06_ddec_charge
 _atom_site_hse06_ddec_spin_density
 _atom_site_hse06_ddec_sum_bond_order
 _atom_site_hse06_magmom
 _atom_site_pbe_bader_spin_density
 _atom_site_pbe_cm5_charge
 _atom_site_pbe_ddec_charge
 _atom_site_pbe_ddec_spin_density
 _atom_site_pbe_ddec_sum_bond_order
 _atom_site_pbe_magmom
Hg  Hg0  1  0.10845860  0.83272621  0.48021004  1  0  0.731016  0  2.151261  0  0  0.589496  0  2.649746  0  0  0.63755  0  2.615786  0  0  0.468455  0.556203  0  2.672975  0
Hg  Hg1  1  0.89156332  0.16727723  0.51978842  1  0  0.731008  0  2.15122  0  0  0.589486  0  2.64971  0  0  0.637542  0  2.615743  0  0  0.468456  0.556198  0  2.672923  0
H  H2  1  0.10885290  0.33618299  0.34879837  1  0  0.091707  0  0.962832  0  0  0.095573  0  1.032689  0  0  0.098718  0  1.030815  0  0  0.100751  0.093286  0  1.034265  0
H  H3  1  0.89114029  0.66381487  0.65119730  1  0  0.091616  0  0.962895  0  0  0.095504  0  1.032732  0  0  0.098662  0  1.030819  0  0  0.100726  0.093219  0  1.034306  0
H  H4  1  0.24694110  0.55571621  0.45865697  1  0  0.079884  0  0.958598  0  0  0.085407  0  1.028204  0  0  0.087922  0  1.02698  0  0  0.10436  0.083565  0  1.02915  0
H  H5  1  0.75307158  0.44428449  0.54133926  1  0  0.079819  0  0.958592  0  0  0.085341  0  1.028204  0  0  0.087865  0  1.02695  0  0  0.104334  0.083499  0  1.02915  0
H  H6  1  0.67511645  0.65389898  0.26244659  1  0  0.104015  0  0.944118  0  0  0.10597  0  1.018507  0  0  0.109958  0  1.014792  0  0  0.118926  0.103029  0  1.021323  0
H  H7  1  0.32489755  0.34610806  0.73755253  1  0  0.104097  0  0.944007  0  0  0.10601  0  1.01842  0  0  0.109984  0  1.014749  0  0  0.118933  0.103073  0  1.021219  0
H  H8  1  0.38522512  0.07901137  0.00129583  1  0  0.110826  0  0.968015  0  0  0.118756  0  1.036484  0  0  0.122097  0  1.034702  0  0  0.097801  0.116319  0  1.037958  0
H  H9  1  0.61474714  0.92098164  0.99870722  1  0  0.110745  0  0.96804  0  0  0.118711  0  1.03648  0  0  0.122058  0  1.034688  0  0  0.097786  0.116279  0  1.037942  0
H  H10  1  0.74652685  0.03693799  0.74409381  1  0  0.108261  0  0.966935  0  0  0.115401  0  1.035095  0  0  0.1181  0  1.034155  0  0  0.085165  0.113559  0  1.035752  0
H  H11  1  0.25348709  0.96305260  0.25590521  1  0  0.108391  0  0.966881  0  0  0.115498  0  1.035088  0  0  0.118197  0  1.034148  0  0  0.085217  0.113656  0  1.035745  0
H  H12  1  0.72464587  0.25651561  0.80545580  1  0  0.085093  0  0.961628  0  0  0.094283  0  1.02731  0  0  0.096235  0  1.026623  0  0  0.092699  0.092902  0  1.02783  0
H  H13  1  0.27536111  0.74347591  0.19454065  1  0  0.085067  0  0.961581  0  0  0.094257  0  1.027276  0  0  0.096211  0  1.026585  0  0  0.09271  0.092876  0  1.027796  0
H  H14  1  0.03673283  0.38758101  0.96104966  1  0  0.131363  0  0.964731  0  0  0.136491  0  1.029552  0  0  0.140818  0  1.026057  0  0  0.107738  0.133283  0  1.032399  0
H  H15  1  0.96325858  0.61241406  0.03894788  1  0  0.131394  0  0.96475  0  0  0.136479  0  1.029612  0  0  0.140805  0  1.026114  0  0  0.107732  0.133277  0  1.032453  0
H  H16  1  0.55335822  0.26206756  0.11249199  1  0  0.284616  0  0.922049  0  0  0.259136  0  1.003447  0  0  0.267099  0  0.996781  0  0  0.305899  0.253405  0  1.00838  0
H  H17  1  0.44664513  0.73794296  0.88751226  1  0  0.28457  0  0.92207  0  0  0.259061  0  1.003535  0  0  0.267023  0  0.996876  0  0  0.305844  0.25333  0  1.00847  0
C  C18  1  0.01004169  0.40727944  0.32987330  1  0  0.077864  0  3.702895  0  0  0.054531  0  3.963894  0  0  0.055033  0  3.981015  0  0  0.046371  0.053993  0  3.952535  0
C  C19  1  0.98995935  0.59272299  0.67012435  1  0  0.077859  0  3.703076  0  0  0.054527  0  3.964061  0  0  0.055032  0  3.981191  0  0  0.04635  0.053986  0  3.952706  0
C  C20  1  0.08640547  0.52727051  0.39024379  1  0  0.060569  0  3.702584  0  0  0.033389  0  3.954949  0  0  0.036452  0  3.974445  0  0  0.039955  0.031419  0  3.941588  0
C  C21  1  0.91360235  0.47273470  0.60975406  1  0  0.060723  0  3.702706  0  0  0.033561  0  3.955059  0  0  0.036629  0  3.974551  0  0  0.040033  0.031588  0  3.941701  0
C  C22  1  0.77048713  0.58297947  0.28234064  1  0  0.081398  0  3.638828  0  0  0.044694  0  3.891175  0  0  0.049397  0  3.907684  0  0  0.061731  0.04118  0  3.880906  0
C  C23  1  0.22952691  0.41702760  0.71765718  1  0  0.081326  0  3.638776  0  0  0.04473  0  3.891096  0  0  0.049428  0  3.907597  0  0  0.061776  0.04122  0  3.880823  0
C  C24  1  0.69116746  0.46198007  0.22264772  1  0  0.074833  0  3.733613  0  0  0.080425  0  3.983273  0  0  0.079129  0  4.000207  0  0  0.129018  0.080765  0  3.97216  0
C  C25  1  0.30883666  0.53802327  0.77735088  1  0  0.074862  0  3.733706  0  0  0.080357  0  3.983444  0  0  0.07907  0  4.000381  0  0  0.128959  0.0807  0  3.972326  0
C  C26  1  0.45446845  0.42684459  0.13093134  1  0  0.507815  0  3.848346  0  0  0.459688  0  4.136837  0  0  0.488734  0  4.135689  0  0  0.23983  0.440282  0  4.136885  0
C  C27  1  0.54550650  0.57316494  0.86906928  1  0  0.507549  0  3.848229  0  0  0.4595  0  4.136633  0  0  0.488519  0  4.135531  0  0  0.239756  0.440094  0  4.136684  0
C  C28  1  0.23012473  0.24132904  0.99129953  1  0  0.268266  0  3.783428  0  0  0.267081  0  4.026978  0  0  0.274974  0  4.048511  0  0  0.097509  0.261774  0  4.012115  0
C  C29  1  0.76985377  0.75866584  0.00870283  1  0  0.268346  0  3.783258  0  0  0.267156  0  4.026799  0  0  0.275052  0  4.04832  0  0  0.097509  0.261848  0  4.011946  0
C  C30  1  0.23830472  0.11746670  0.95825876  1  0  -0.236491  0  3.734861  0  0  -0.262894  0  3.980904  0  0  -0.269267  0  4.002568  0  0  -0.105962  -0.25843  0  3.966338  0
C  C31  1  0.76169268  0.88253009  0.04174459  1  0  -0.236352  0  3.73469  0  0  -0.262772  0  3.980626  0  0  -0.269145  0  4.002285  0  0  -0.105948  -0.258308  0  3.966046  0
C  C32  1  0.06723576  0.04638318  0.86957936  1  0  0.148874  0  3.823492  0  0  0.164876  0  4.081465  0  0  0.168539  0  4.104314  0  0  0.007036  0.162347  0  4.065911  0
C  C33  1  0.93276302  0.95361177  0.13042488  1  0  0.148746  0  3.823352  0  0  0.164811  0  4.08125  0  0  0.168476  0  4.104095  0  0  0.007029  0.162281  0  4.065694  0
C  C34  1  0.88161915  0.09459995  0.81299770  1  0  -0.150232  0  3.764996  0  0  -0.176401  0  4.016703  0  0  -0.1821  0  4.041115  0  0  -0.109684  -0.172328  0  3.999718  0
C  C35  1  0.11838371  0.90539327  0.18700297  1  0  -0.150376  0  3.765038  0  0  -0.176591  0  4.016769  0  0  -0.182287  0  4.041177  0  0  -0.109731  -0.172521  0  3.999788  0
C  C36  1  0.87306237  0.21744807  0.84769402  1  0  -0.031474  0  3.771153  0  0  -0.041733  0  4.024414  0  0  -0.042799  0  4.048539  0  0  -0.089829  -0.04068  0  4.007587  0
C  C37  1  0.12694073  0.78254530  0.15230082  1  0  -0.031395  0  3.771233  0  0  -0.041659  0  4.024496  0  0  -0.042729  0  4.04862  0  0  -0.089844  -0.040605  0  4.007672  0
C  C38  1  0.04598684  0.29217384  0.93579129  1  0  -0.147541  0  3.664237  0  0  -0.173907  0  3.916505  0  0  -0.178244  0  3.935504  0  0  -0.092771  -0.170848  0  3.903678  0
C  C39  1  0.95399970  0.70781751  0.06420782  1  0  -0.147698  0  3.66433  0  0  -0.174005  0  3.91654  0  0  -0.178362  0  3.93559  0  0  -0.092811  -0.170939  0  3.903687  0
N  N40  1  0.81397235  0.37523119  0.24637054  1  0  -0.261797  0  3.09442  0  0  -0.232295  0  3.361275  0  0  -0.237154  0  3.374792  0  0  -0.28986  -0.228761  0  3.352581  0
N  N41  1  0.18601596  0.62477116  0.75362739  1  0  -0.261763  0  3.094423  0  0  -0.232248  0  3.361323  0  0  -0.237109  0  3.37484  0  0  -0.289817  -0.228715  0  3.35263  0
N  N42  1  0.96732642  0.61425594  0.36570534  1  0  -0.263156  0  3.242749  0  0  -0.19632  0  3.506215  0  0  -0.212906  0  3.527544  0  0  -0.299259  -0.184617  0  3.491352  0
N  N43  1  0.03268509  0.38575111  0.63429241  1  0  -0.263209  0  3.242861  0  0  -0.196422  0  3.506338  0  0  -0.213008  0  3.527662  0  0  -0.29933  -0.18472  0  3.491478  0
N  N44  1  0.42006020  0.30812542  0.07976701  1  0  -0.419547  0  3.391168  0  0  -0.36718  0  3.633363  0  0  -0.389449  0  3.642671  0  0  -0.387805  -0.351873  0  3.626671  0
N  N45  1  0.57992656  0.69187867  0.92023456  1  0  -0.419277  0  3.391381  0  0  -0.366905  0  3.633514  0  0  -0.389166  0  3.642832  0  0  -0.387573  -0.351598  0  3.626818  0
Cl  Cl46  1  0.71613487  0.89879120  0.38606978  1  0  -0.397231  0  1.170845  0  0  -0.331009  0  1.483837  0  0  -0.352673  0  1.466357  0  0  -0.213288  -0.316065  0  1.495865  0
Cl  Cl47  1  0.28387528  0.10121390  0.61393333  1  0  -0.397241  0  1.170823  0  0  -0.331027  0  1.483801  0  0  -0.352687  0  1.466324  0  0  -0.213294  -0.316085  0  1.495828  0
Cl  Cl48  1  0.51941585  0.79053843  0.58523832  1  0  -0.424397  0  1.117649  0  0  -0.368365  0  1.418817  0  0  -0.387354  0  1.400484  0  0  -0.235645  -0.355539  0  1.431798  0
Cl  Cl49  1  0.48060203  0.20946676  0.41476241  1  0  -0.424389  0  1.117638  0  0  -0.368344  0  1.418796  0  0  -0.38733  0  1.400471  0  0  -0.235646  -0.355517  0  1.431768  0
Cl  Cl50  1  0.09455581  0.89479699  0.82792314  1  0  -0.103649  0  1.409729  0  0  -0.090576  0  1.668  0  0  -0.094264  0  1.66352  0  0  -0.003236  -0.087564  0  1.671344  0
Cl  Cl51  1  0.90543165  0.10519607  0.17208099  1  0  -0.10357  0  1.409691  0  0  -0.090503  0  1.66791  0  0  -0.094192  0  1.663434  0  0  -0.003216  -0.087491  0  1.67125  0
O  O52  1  0.30974062  0.50186313  0.11056371  1  0  -0.510868  0  1.923091  0  0  -0.46448  0  2.137077  0  0  -0.484509  0  2.133287  0  0  -0.275876  -0.450579  0  2.139477  0
O  O53  1  0.69025589  0.49814458  0.88944163  1  0  -0.510867  0  1.922516  0  0  -0.464548  0  2.136521  0  0  -0.484571  0  2.132752  0  0  -0.275967  -0.450654  0  2.138928  0
