# generated using pymatgen
data_ZnH8C12(N2Cl)2
_symmetry_space_group_name_H-M   'P 1'
_cell_length_a   5.82493927
_cell_length_b   25.25191631
_cell_length_c   26.22778455
_cell_angle_alpha   89.25417357
_cell_angle_beta   83.63828781
_cell_angle_gamma   83.41308708
_symmetry_Int_Tables_number   1
_chemical_formula_structural   ZnH8C12(N2Cl)2
_chemical_formula_sum   'Zn6 H48 C72 N24 Cl12'
_cell_volume   3808.80266607
_cell_formula_units_Z   6
loop_
 _symmetry_equiv_pos_site_id
 _symmetry_equiv_pos_as_xyz
  1  'x, y, z'
loop_
 _atom_site_type_symbol
 _atom_site_label
 _atom_site_symmetry_multiplicity
 _atom_site_fract_x
 _atom_site_fract_y
 _atom_site_fract_z
 _atom_site_occupancy
 _atom_site_pbe_bader_charge
 _atom_site_pbe_bader_spin_density
 _atom_site_pbe_cm5_charge
 _atom_site_pbe_ddec_charge
 _atom_site_pbe_ddec_spin_density
 _atom_site_pbe_ddec_sum_bond_order
 _atom_site_pbe_magmom
Zn  Zn0  1  0.57902088  0.25069827  0.27609187  1  1.118983  0  0.542117  0.614014  0  2.71391  0
Zn  Zn1  1  0.10581132  0.74917921  0.72370280  1  1.120391  0  0.542445  0.614309  0  2.713994  0
Zn  Zn2  1  0.60507530  0.75071905  0.22387854  1  1.118572  0  0.542302  0.613736  0  2.71526  0
Zn  Zn3  1  0.58011713  0.24916020  0.77620884  1  1.119092  0  0.541937  0.613721  0  2.715052  0
Zn  Zn4  1  0.14353643  0.49995997  0.50015829  1  1.116339  0  0.538529  0.612076  0  2.712923  0
Zn  Zn5  1  0.39376023  0.00006123  0.00002410  1  1.112868  0  0.538672  0.61152  0  2.713634  0
H  H6  1  0.96375141  0.27182453  0.34143078  1  0.127274  0  0.116363  0.101851  0  0.995876  0
H  H7  1  0.19019170  0.34731208  0.35505529  1  0.127227  0  0.114757  0.129243  0  0.996531  0
H  H8  1  0.85299911  0.43212533  0.23454821  1  0.109477  0  0.114073  0.121559  0  0.996066  0
H  H9  1  0.64404952  0.35129992  0.22424446  1  0.137171  0  0.109927  0.093438  0  1.018949  0
H  H10  1  0.60966108  0.40515779  0.39558011  1  0.134847  0  0.116047  0.12959  0  0.992327  0
H  H11  1  0.92459351  0.41152755  0.45309973  1  0.136129  0  0.120561  0.098183  0  0.98028  0
H  H12  1  0.91554254  0.57389685  0.42828074  1  0.120913  0  0.113598  0.094489  0  1.002233  0
H  H13  1  0.59815914  0.57449510  0.37004574  1  0.114144  0  0.114705  0.124243  0  0.999591  0
H  H14  1  0.24290058  0.63595193  0.31319410  1  0.127993  0  0.117017  0.126158  0  0.998268  0
H  H15  1  0.03151771  0.72028781  0.28358237  1  0.183337  0  0.10681  0.097331  0  1.041177  0
H  H16  1  0.59087018  0.63775597  0.20865265  1  0.117084  0  0.114943  0.092506  0  1.004455  0
H  H17  1  0.78162151  0.54907888  0.23745369  1  0.121646  0  0.113567  0.122383  0  0.999097  0
H  H18  1  0.57668419  0.72815300  0.65815256  1  0.168854  0  0.11647  0.102134  0  0.99517  0
H  H19  1  0.89220405  0.65272260  0.64460762  1  0.138037  0  0.114789  0.128641  0  0.996687  0
H  H20  1  0.51948640  0.56790346  0.76515443  1  0.097895  0  0.113919  0.121128  0  0.995735  0
H  H21  1  0.22014629  0.64879344  0.77560111  1  0.148928  0  0.109679  0.093368  0  1.018844  0
H  H22  1  0.41058458  0.59491209  0.60442255  1  0.168715  0  0.115962  0.129271  0  0.992064  0
H  H23  1  0.79035643  0.58852786  0.54729660  1  0.093103  0  0.120309  0.09783  0  0.980187  0
H  H24  1  0.91698477  0.42611153  0.57201790  1  0.130011  0  0.113541  0.094157  0  1.001852  0
H  H25  1  0.54181597  0.42560919  0.63021130  1  0.113059  0  0.114649  0.12409  0  0.99918  0
H  H26  1  0.19174798  0.36428840  0.68683514  1  0.117416  0  0.117285  0.126752  0  0.99757  0
H  H27  1  0.03596198  0.27982309  0.71655890  1  0.163743  0  0.106714  0.097387  0  1.041726  0
H  H28  1  0.43766844  0.36206496  0.79145949  1  0.159942  0  0.11435  0.091827  0  1.003764  0
H  H29  1  0.56742783  0.45082456  0.76244850  1  0.125193  0  0.113708  0.122844  0  0.998979  0
H  H30  1  0.05486169  0.77189061  0.15844373  1  0.128005  0  0.116608  0.10241  0  0.995844  0
H  H31  1  0.29476106  0.84743231  0.14482557  1  0.127827  0  0.114574  0.128026  0  0.997265  0
H  H32  1  0.83678206  0.93221768  0.26517984  1  0.102474  0  0.113563  0.121081  0  0.996234  0
H  H33  1  0.61869903  0.85119726  0.27577528  1  0.1491  0  0.109766  0.093924  0  1.017839  0
H  H34  1  0.75516566  0.90517380  0.10456309  1  0.129657  0  0.116253  0.129467  0  0.991932  0
H  H35  1  0.12798239  0.91150465  0.04720595  1  0.13918  0  0.120402  0.098262  0  0.980606  0
H  H36  1  0.09359911  0.07392288  0.07171458  1  0.126389  0  0.113547  0.094317  0  1.00253  0
H  H37  1  0.71793563  0.07454348  0.12989540  1  0.11352  0  0.114733  0.123684  0  0.999598  0
H  H38  1  0.30480316  0.13588199  0.18639772  1  0.116024  0  0.117079  0.12674  0  0.997479  0
H  H39  1  0.06431249  0.22024627  0.21617656  1  0.189508  0  0.106992  0.09735  0  1.041338  0
H  H40  1  0.54994137  0.13766573  0.29152560  1  0.155064  0  0.114904  0.092473  0  1.003343  0
H  H41  1  0.76868826  0.04901020  0.26248711  1  0.118359  0  0.113804  0.122953  0  0.999258  0
H  H42  1  0.98540930  0.22801570  0.84169835  1  0.126311  0  0.116619  0.102126  0  0.995208  0
H  H43  1  0.28700955  0.15253951  0.85534923  1  0.143739  0  0.114589  0.128169  0  0.997223  0
H  H44  1  0.03559840  0.06790620  0.73458490  1  0.113102  0  0.113906  0.12139  0  0.995621  0
H  H45  1  0.74616186  0.14872408  0.72424246  1  0.128055  0  0.109868  0.093709  0  1.018361  0
H  H46  1  0.76485387  0.09487071  0.89562867  1  0.138046  0  0.115865  0.129334  0  0.993007  0
H  H47  1  0.08675981  0.08854068  0.95299107  1  0.12498  0  0.120604  0.098422  0  0.980275  0
H  H48  1  0.23952047  0.92619030  0.92819300  1  0.12493  0  0.113496  0.094386  0  1.003242  0
H  H49  1  0.92284373  0.92559538  0.86990749  1  0.116379  0  0.114407  0.12379  0  1.000239  0
H  H50  1  0.62785046  0.86397607  0.81350660  1  0.126517  0  0.116794  0.126257  0  0.997685  0
H  H51  1  0.50124972  0.77963587  0.78368768  1  0.19015  0  0.107225  0.097121  0  1.040826  0
H  H52  1  0.97866544  0.86211710  0.70866284  1  0.12555  0  0.114789  0.092371  0  1.004655  0
H  H53  1  0.08048424  0.95080216  0.73755686  1  0.120941  0  0.113605  0.122074  0  0.999148  0
C  C54  1  0.94316722  0.30802177  0.31852501  1  0.506684  0  0.058661  0.106801  0  3.89558  0
C  C55  1  0.06968969  0.35031853  0.32598371  1  0.038036  0  -0.066377  -0.136298  0  3.910736  0
C  C56  1  0.03500213  0.39633325  0.29624131  1  -0.049599  0  0.013133  0.041034  0  3.956329  0
C  C57  1  0.88190896  0.39705757  0.25853443  1  0.003848  0  -0.072493  -0.135287  0  3.930379  0
C  C58  1  0.76579772  0.35301451  0.25281587  1  0.459635  0  0.04968  0.099458  0  3.918245  0
C  C59  1  0.14425291  0.44497986  0.30537115  1  1.11238  0  0.265902  0.382247  0  3.995904  0
C  C60  1  0.39768940  0.48882702  0.34373234  1  1.075307  0  0.266993  0.3837  0  3.987212  0
C  C61  1  0.14082139  0.53462693  0.29560888  1  1.12497  0  0.263282  0.375121  0  4.030776  0
C  C62  1  0.58503504  0.48940373  0.37732974  1  -0.042342  0  0.010854  0.034674  0  3.952717  0
C  C63  1  0.67578333  0.44296615  0.40121622  1  0.001768  0  -0.068332  -0.130987  0  3.926571  0
C  C64  1  0.84849166  0.44635488  0.43326129  1  0.487303  0  0.052982  0.099903  0  3.910719  0
C  C65  1  0.84290773  0.53761089  0.41925886  1  0.482277  0  0.045089  0.090109  0  3.920368  0
C  C66  1  0.66996831  0.53761154  0.38699834  1  0.014795  0  -0.071232  -0.128858  0  3.93756  0
C  C67  1  0.02832757  0.58584688  0.27722803  1  -0.049597  0  0.013976  0.043862  0  3.953323  0
C  C68  1  0.09890897  0.63459856  0.29028235  1  0.001327  0  -0.066327  -0.134118  0  3.902147  0
C  C69  1  0.97965991  0.68167685  0.27416223  1  0.429496  0  0.057755  0.103407  0  3.888207  0
C  C70  1  0.73375527  0.63491767  0.23254970  1  0.503588  0  0.053002  0.096043  0  3.922849  0
C  C71  1  0.84133801  0.58634999  0.24778667  1  -0.030251  0  -0.071258  -0.138295  0  3.926412  0
C  C72  1  0.56945474  0.69197283  0.68109197  1  0.437104  0  0.058814  0.106664  0  3.895438  0
C  C73  1  0.74564415  0.64969906  0.67366024  1  0.040872  0  -0.066139  -0.134208  0  3.910272  0
C  C74  1  0.72715826  0.60371186  0.70345110  1  -0.019562  0  0.012916  0.039928  0  3.959215  0
C  C75  1  0.53728741  0.60298386  0.74117662  1  0.017663  0  -0.072537  -0.13397  0  3.931112  0
C  C76  1  0.37179296  0.64704023  0.74693909  1  0.430913  0  0.049636  0.098725  0  3.918539  0
C  C77  1  0.89408268  0.55509060  0.69443195  1  1.059471  0  0.266597  0.382485  0  3.996659  0
C  C78  1  0.22990110  0.51128178  0.65628462  1  1.079656  0  0.266477  0.383096  0  3.990981  0
C  C79  1  0.97040154  0.46547844  0.70436355  1  1.125342  0  0.262771  0.374894  0  4.030457  0
C  C80  1  0.45148046  0.51068370  0.62276017  1  -0.010945  0  0.011642  0.034763  0  3.954927  0
C  C81  1  0.52005753  0.55710285  0.59887739  1  -0.041677  0  -0.068659  -0.131061  0  3.928169  0
C  C82  1  0.72862586  0.55369307  0.56702110  1  0.515524  0  0.053063  0.10036  0  3.910041  0
C  C83  1  0.79937780  0.46241800  0.58102599  1  0.470099  0  0.045425  0.091177  0  3.9204  0
C  C84  1  0.59403561  0.46245894  0.61320439  1  0.01296  0  -0.071898  -0.129201  0  3.938558  0
C  C85  1  0.89089329  0.41422664  0.72275261  1  -0.094616  0  0.015017  0.044058  0  3.95406  0
C  C86  1  0.02359220  0.36553200  0.70975632  1  0.014604  0  -0.067033  -0.135052  0  3.902862  0
C  C87  1  0.93581602  0.31839155  0.72593470  1  0.480742  0  0.057897  0.10391  0  3.889088  0
C  C88  1  0.60138951  0.36498670  0.76752358  1  0.384178  0  0.053783  0.096797  0  3.922476  0
C  C89  1  0.67507833  0.41360736  0.75218975  1  0.043257  0  -0.071377  -0.138344  0  3.925713  0
C  C90  1  0.01139789  0.80806456  0.18136404  1  0.528161  0  0.058651  0.106523  0  3.896891  0
C  C91  1  0.14525486  0.85037881  0.17389144  1  0.049944  0  -0.066563  -0.134698  0  3.912811  0
C  C92  1  0.08066350  0.89638678  0.20359389  1  -0.078458  0  0.014017  0.040871  0  3.958417  0
C  C93  1  0.88992711  0.89710898  0.24128861  1  -0.014595  0  -0.072321  -0.134472  0  3.930408  0
C  C94  1  0.76858984  0.85298956  0.24712127  1  0.497216  0  0.049446  0.098282  0  3.917438  0
C  C95  1  0.19909669  0.94501359  0.19446563  1  1.083746  0  0.266653  0.382983  0  3.996086  0
C  C96  1  0.49120723  0.98885313  0.15625239  1  1.091301  0  0.266264  0.383249  0  3.989207  0
C  C97  1  0.18581596  0.03463948  0.20421001  1  1.078245  0  0.263223  0.375814  0  4.0297  0
C  C98  1  0.71220756  0.98943901  0.12270183  1  0.07398  0  0.011252  0.034625  0  3.953973  0
C  C99  1  0.82691655  0.94298835  0.09890077  1  -0.04879  0  -0.069021  -0.130748  0  3.92845  0
C  C100  1  0.03185036  0.94634953  0.06693706  1  0.489563  0  0.053292  0.099112  0  3.912326  0
C  C101  1  0.01196893  0.03763841  0.08076060  1  0.500051  0  0.044492  0.089674  0  3.92168  0
C  C102  1  0.80672296  0.03765579  0.11298312  1  -0.073652  0  -0.071201  -0.127647  0  3.937921  0
C  C103  1  0.05470855  0.08581725  0.22254817  1  -0.040374  0  0.013946  0.043327  0  3.956859  0
C  C104  1  0.13817882  0.13456275  0.20940998  1  -0.032826  0  -0.066357  -0.135305  0  3.904382  0
C  C105  1  0.00315642  0.18163273  0.22562598  1  0.480096  0  0.058688  0.105486  0  3.888058  0
C  C106  1  0.71622928  0.13485261  0.26747060  1  0.46491  0  0.052831  0.095958  0  3.922475  0
C  C107  1  0.83868438  0.08628861  0.25213005  1  -0.020294  0  -0.071417  -0.138817  0  3.928525  0
C  C108  1  0.00106953  0.19184771  0.81876177  1  0.513923  0  0.059237  0.107581  0  3.893746  0
C  C109  1  0.16973012  0.14956158  0.82622825  1  0.025366  0  -0.066476  -0.134693  0  3.910156  0
C  C110  1  0.18119473  0.10359949  0.79641677  1  -0.038442  0  0.013108  0.040681  0  3.957503  0
C  C111  1  0.02926084  0.10293425  0.75861985  1  0.002239  0  -0.072383  -0.134088  0  3.931576  0
C  C112  1  0.86928590  0.14696927  0.75288742  1  0.47014  0  0.049481  0.09808  0  3.918264  0
C  C113  1  0.33894559  0.05496097  0.80552309  1  1.071258  0  0.265608  0.38011  0  3.999377  0
C  C114  1  0.63644011  0.01117851  0.84379383  1  1.082877  0  0.265625  0.383389  0  3.986453  0
C  C115  1  0.42513635  0.96533135  0.79572767  1  1.08382  0  0.263082  0.374402  0  4.030767  0
C  C116  1  0.82447624  0.01064183  0.87734415  1  -0.017887  0  0.011705  0.034924  0  3.952132  0
C  C117  1  0.86882038  0.05708002  0.90123363  1  0.037259  0  -0.068664  -0.131043  0  3.927978  0
C  C118  1  0.04521257  0.05371026  0.93319630  1  0.445583  0  0.052423  0.098497  0  3.91066  0
C  C119  1  0.13065941  0.96246496  0.91917498  1  0.445303  0  0.04534  0.090469  0  3.922116  0
C  C120  1  0.95771895  0.96245839  0.88693110  1  0.039812  0  -0.07173  -0.129402  0  3.939749  0
C  C121  1  0.36365312  0.91408302  0.77742037  1  -0.04148  0  0.013921  0.043731  0  3.955631  0
C  C122  1  0.48272663  0.86533149  0.79052048  1  -0.049319  0  -0.066007  -0.134839  0  3.902197  0
C  C123  1  0.41079536  0.81824648  0.77430672  1  0.494041  0  0.058738  0.105701  0  3.88705  0
C  C124  1  0.11847133  0.86497421  0.73261957  1  0.421032  0  0.053139  0.095446  0  3.922948  0
C  C125  1  0.17736949  0.91354774  0.74792052  1  0.038534  0  -0.070664  -0.13667  0  3.92713  0
N  N126  1  0.05258360  0.49009911  0.28397265  1  -1.17598  0  -0.299971  -0.400639  0  3.228592  0
N  N127  1  0.31661653  0.44215971  0.33570516  1  -1.194669  0  -0.293351  -0.385596  0  3.182349  0
N  N128  1  0.31586762  0.53603729  0.32448045  1  -1.178212  0  -0.296313  -0.395145  0  3.220647  0
N  N129  1  0.93063203  0.49271961  0.44193452  1  -1.256759  0  -0.325776  -0.207511  0  3.561235  0
N  N130  1  0.79238840  0.30963743  0.28302419  1  -1.259782  0  -0.32205  -0.196667  0  3.555555  0
N  N131  1  0.80049554  0.68172359  0.24585078  1  -1.254755  0  -0.31747  -0.191228  0  3.548965  0
N  N132  1  0.82590980  0.50998016  0.71585293  1  -1.192766  0  -0.299819  -0.400608  0  3.229873  0
N  N133  1  0.09416235  0.55792856  0.66419039  1  -1.153697  0  -0.293148  -0.385225  0  3.18236  0
N  N134  1  0.17594238  0.46409726  0.67560406  1  -1.16555  0  -0.296996  -0.395422  0  3.221228  0
N  N135  1  0.86546262  0.50730837  0.55840458  1  -1.264815  0  -0.325769  -0.207671  0  3.559693  0
N  N136  1  0.38510681  0.69036966  0.71666046  1  -1.254618  0  -0.322316  -0.197311  0  3.557389  0
N  N137  1  0.72854191  0.31823309  0.75427217  1  -1.237337  0  -0.317406  -0.191634  0  3.548955  0
N  N138  1  0.08583888  0.99012478  0.21578376  1  -1.17513  0  -0.300898  -0.401961  0  3.230833  0
N  N139  1  0.40204696  0.94218882  0.16424493  1  -1.170288  0  -0.293484  -0.385769  0  3.182996  0
N  N140  1  0.39003643  0.03605671  0.17547006  1  -1.161099  0  -0.295761  -0.394851  0  3.218867  0
N  N141  1  0.12258851  0.99272183  0.05820922  1  -1.261728  0  -0.325193  -0.206871  0  3.560799  0
N  N142  1  0.82540624  0.80963054  0.21691380  1  -1.291943  0  -0.321635  -0.196165  0  3.555962  0
N  N143  1  0.79615662  0.18166479  0.25410653  1  -1.256985  0  -0.317897  -0.192111  0  3.54751  0
N  N144  1  0.29229111  0.00983508  0.78413279  1  -1.196626  0  -0.299684  -0.399543  0  3.230442  0
N  N145  1  0.50858259  0.05780671  0.83583307  1  -1.179202  0  -0.292688  -0.384404  0  3.183994  0
N  N146  1  0.60188171  0.96396721  0.82452011  1  -1.151286  0  -0.296137  -0.395222  0  3.218443  0
N  N147  1  0.17366007  0.00735670  0.94183429  1  -1.261003  0  -0.325404  -0.205806  0  3.562123  0
N  N148  1  0.85224538  0.19027503  0.78318158  1  -1.267017  0  -0.322024  -0.197002  0  3.554035  0
N  N149  1  0.23199960  0.81817605  0.74590110  1  -1.242127  0  -0.318624  -0.192629  0  3.548422  0
Cl  Cl150  1  0.38524987  0.27789667  0.20972923  1  -0.666479  0  -0.352605  -0.51452  0  1.130717  0
Cl  Cl151  1  0.41160269  0.22834294  0.35222885  1  -0.661566  0  -0.367693  -0.518702  0  1.076767  0
Cl  Cl152  1  0.26565727  0.57953378  0.48887684  1  -0.652445  0  -0.344001  -0.493649  0  1.139475  0
Cl  Cl153  1  0.87316749  0.72188083  0.79007859  1  -0.667191  0  -0.352942  -0.514768  0  1.130924  0
Cl  Cl154  1  0.99151811  0.77166220  0.64764552  1  -0.661351  0  -0.367446  -0.518484  0  1.076901  0
Cl  Cl155  1  0.33312507  0.42034401  0.51143716  1  -0.654554  0  -0.344068  -0.493576  0  1.138396  0
Cl  Cl156  1  0.34539358  0.77789540  0.29028912  1  -0.66631  0  -0.352614  -0.514494  0  1.131463  0
Cl  Cl157  1  0.51291336  0.72829875  0.14783207  1  -0.661534  0  -0.367599  -0.518697  0  1.077068  0
Cl  Cl158  1  0.50388798  0.07973823  0.01113112  1  -0.653209  0  -0.343775  -0.493317  0  1.139288  0
Cl  Cl159  1  0.41376923  0.22206174  0.70976403  1  -0.666613  0  -0.352798  -0.514648  0  1.130351  0
Cl  Cl160  1  0.38982972  0.27148889  0.85228118  1  -0.66188  0  -0.367316  -0.518343  0  1.077596  0
Cl  Cl161  1  0.59487490  0.92047386  0.98880710  1  -0.653178  0  -0.344108  -0.493459  0  1.138947  0
