# generated using pymatgen
data_AlH9C24(NO2)6
_symmetry_space_group_name_H-M   'P 1'
_cell_length_a   4.02623475
_cell_length_b   15.84134075
_cell_length_c   15.66225151
_cell_angle_alpha   60.16797621
_cell_angle_beta   83.73852274
_cell_angle_gamma   85.41741256
_symmetry_Int_Tables_number   1
_chemical_formula_structural   AlH9C24(NO2)6
_chemical_formula_sum   'Al1 H9 C24 N6 O12'
_cell_volume   861.02917115
_cell_formula_units_Z   1
loop_
 _symmetry_equiv_pos_site_id
 _symmetry_equiv_pos_as_xyz
  1  'x, y, z'
loop_
 _atom_site_type_symbol
 _atom_site_label
 _atom_site_symmetry_multiplicity
 _atom_site_fract_x
 _atom_site_fract_y
 _atom_site_fract_z
 _atom_site_occupancy
 _atom_site_pbe_bader_charge
 _atom_site_pbe_bader_spin_density
 _atom_site_pbe_cm5_charge
 _atom_site_pbe_ddec_charge
 _atom_site_pbe_ddec_spin_density
 _atom_site_pbe_ddec_sum_bond_order
 _atom_site_pbe_magmom
Al  Al0  1  0.01256472  0.50162019  0.49785238  1  2.510281  0  0.4306  1.611706  0  2.55885  0
H  H1  1  0.37740876  0.96285164  0.13414579  1  0.152305  0  0.120932  0.132041  0  1.007888  0
H  H2  1  0.50744630  0.41229867  0.95958118  1  0.1258  0  0.119899  0.130847  0  1.004244  0
H  H3  1  0.56785241  0.12573421  0.41570390  1  0.14314  0  0.121357  0.133399  0  1.001833  0
H  H4  1  0.67581909  0.48513075  0.24563959  1  0.152268  0  0.126069  0.139795  0  0.953566  0
H  H5  1  0.70656262  0.39991112  0.14704897  1  0.083762  0  0.116748  0.120081  0  0.98776  0
H  H6  1  0.53109227  0.24818460  0.75798378  1  0.100205  0  0.123074  0.136451  0  0.964399  0
H  H7  1  0.58343304  0.14938517  0.94001018  1  0.10009  0  0.118386  0.122741  0  0.983974  0
H  H8  1  0.69183520  0.75719307  0.47927190  1  0.114096  0  0.125347  0.139771  0  0.95424  0
H  H9  1  0.71949584  0.93780256  0.39742274  1  0.119333  0  0.116891  0.120577  0  0.985338  0
C  C10  1  0.50448116  0.64885448  0.40835446  1  1.683308  0  0.279406  0.659321  0  4.108291  0
C  C11  1  0.56378068  0.41149542  0.43878452  1  1.631197  0  0.280107  0.658139  0  4.101165  0
C  C12  1  0.47440700  0.44087612  0.64733341  1  1.658585  0  0.281431  0.659393  0  4.098437  0
C  C13  1  0.51893177  0.75817432  0.35335116  1  0.012319  0  0.015644  -0.039319  0  3.89858  0
C  C14  1  0.48543829  0.38475601  0.75722042  1  0.0079  0  0.015405  -0.042383  0  3.903791  0
C  C15  1  0.60114377  0.35411217  0.38548523  1  -0.033215  0  0.015976  -0.040287  0  3.900378  0
C  C16  1  0.42856703  0.81816272  0.25665737  1  0.159079  0  0.080212  0.038413  0  3.924715  0
C  C17  1  0.44799154  0.91880923  0.20948707  1  0.033777  0  -0.064057  -0.130245  0  3.935934  0
C  C18  1  0.48116084  0.42904552  0.81562663  1  0.20017  0  0.08314  0.047302  0  3.922298  0
C  C19  1  0.51581342  0.37557170  0.91630101  1  -0.00359  0  -0.066836  -0.137449  0  3.932505  0
C  C20  1  0.57876776  0.25281801  0.43142445  1  0.262815  0  0.081622  0.042607  0  3.924612  0
C  C21  1  0.59685191  0.20415244  0.37771752  1  0.039813  0  -0.065641  -0.134662  0  3.928067  0
C  C22  1  0.65448449  0.40633472  0.28225742  1  -0.044523  0  -0.066683  -0.081617  0  3.923233  0
C  C23  1  0.67216356  0.35888938  0.22734094  1  0.049309  0  -0.063318  -0.076194  0  3.930518  0
C  C24  1  0.52403576  0.28323986  0.80299746  1  0.061629  0  -0.064853  -0.076175  0  3.912978  0
C  C25  1  0.55524580  0.22837892  0.90413966  1  -0.04926  0  -0.062562  -0.0766  0  3.921922  0
C  C26  1  0.62312340  0.80269262  0.40371447  1  0.005892  0  -0.069168  -0.086234  0  3.92209  0
C  C27  1  0.63997782  0.90344181  0.35795454  1  -0.023177  0  -0.061479  -0.072516  0  3.924475  0
C  C28  1  0.55622079  0.96223891  0.26001042  1  -0.004596  0  -0.003807  0.003871  0  3.975788  0
C  C29  1  0.57678230  0.06921710  0.21000718  1  1.081984  0  0.258817  0.385047  0  4.019315  0
C  C30  1  0.55068592  0.27400620  0.96156975  1  0.092212  0  -0.00263  0.008592  0  3.975002  0
C  C31  1  0.57401570  0.21593298  0.06930618  1  1.05617  0  0.2583  0.383469  0  4.02449  0
C  C32  1  0.63722416  0.25756550  0.27454403  1  -0.015656  0  -0.003757  0.007248  0  3.974741  0
C  C33  1  0.62384782  0.20790054  0.21638518  1  1.091092  0  0.256839  0.381565  0  4.02175  0
N  N34  1  0.55105631  0.11892388  0.11192720  1  -1.193235  0  -0.306583  -0.406161  0  3.204897  0
N  N35  1  0.61113757  0.26392297  0.11822826  1  -1.1865  0  -0.307526  -0.410426  0  3.20932  0
N  N36  1  0.61488329  0.11008344  0.26559053  1  -1.215486  0  -0.307258  -0.408829  0  3.20238  0
N  N37  1  0.30051171  0.77527261  0.20237289  1  0.418325  0  0.060098  0.511154  0  4.208598  0
N  N38  1  0.51393571  0.19443722  0.53970174  1  0.393014  0  0.060194  0.512722  0  4.2125  0
N  N39  1  0.41896102  0.53517460  0.77150669  1  0.400549  0  0.061119  0.516331  0  4.207034  0
O  O40  1  0.25072186  0.41838033  0.61177883  1  -1.243112  0  -0.221089  -0.572032  0  2.382448  0
O  O41  1  0.24877833  0.61403855  0.46843984  1  -1.247049  0  -0.225107  -0.576652  0  2.377676  0
O  O42  1  0.31968668  0.47274776  0.41461502  1  -1.253226  0  -0.2232  -0.577339  0  2.393388  0
O  O43  1  0.70381701  0.50145126  0.59835137  1  -1.258234  0  -0.234737  -0.599804  0  2.405477  0
O  O44  1  0.78186788  0.40047049  0.49631155  1  -1.239924  0  -0.230313  -0.587464  0  2.398699  0
O  O45  1  0.75761358  0.60107639  0.39761645  1  -1.246793  0  -0.230464  -0.592232  0  2.424601  0
O  O46  1  0.32205346  0.68548525  0.23996005  1  -0.463792  0  -0.106162  -0.296199  0  1.965063  0
O  O47  1  0.17533258  0.83133315  0.12373303  1  -0.44895  0  -0.133103  -0.327239  0  1.884824  0
O  O48  1  0.36204632  0.23592848  0.58246857  1  -0.446475  0  -0.114095  -0.307565  0  1.944363  0
O  O49  1  0.61193398  0.10823704  0.57983151  1  -0.434356  0  -0.128112  -0.318824  0  1.867782  0
O  O50  1  0.25239788  0.57502608  0.69842338  1  -0.448015  0  -0.117219  -0.308716  0  1.935069  0
O  O51  1  0.53091340  0.57620040  0.81140010  1  -0.441252  0  -0.127858  -0.319423  0  1.877336  0
