# generated using pymatgen
data_AlH12C10ClO5
_symmetry_space_group_name_H-M   'P 1'
_cell_length_a   6.61954519
_cell_length_b   14.45617695
_cell_length_c   15.23845924
_cell_angle_alpha   89.91740415
_cell_angle_beta   90.83087032
_cell_angle_gamma   89.05212607
_symmetry_Int_Tables_number   1
_chemical_formula_structural   AlH12C10ClO5
_chemical_formula_sum   'Al4 H48 C40 Cl4 O20'
_cell_volume   1457.86379671
_cell_formula_units_Z   4
loop_
 _symmetry_equiv_pos_site_id
 _symmetry_equiv_pos_as_xyz
  1  'x, y, z'
loop_
 _atom_site_type_symbol
 _atom_site_label
 _atom_site_symmetry_multiplicity
 _atom_site_fract_x
 _atom_site_fract_y
 _atom_site_fract_z
 _atom_site_occupancy
 _atom_site_pbe_bader_charge
 _atom_site_pbe_bader_spin_density
 _atom_site_pbe_cm5_charge
 _atom_site_pbe_ddec_charge
 _atom_site_pbe_ddec_spin_density
 _atom_site_pbe_ddec_sum_bond_order
 _atom_site_pbe_magmom
Al  Al0  1  0.99120852  0.74848001  0.50112501  1  2.502181  0  0.394962  1.640033  0  2.58827  0
Al  Al1  1  0.50469402  0.24974105  0.99874508  1  2.501709  0  0.392414  1.646057  0  2.578697  0
Al  Al2  1  0.49146022  0.75115224  0.49883164  1  2.492615  0  0.394889  1.635318  0  2.588521  0
Al  Al3  1  0.00421291  0.25215640  0.99893986  1  2.501057  0  0.395173  1.637565  0  2.573878  0
H  H4  1  0.26564988  0.66344618  0.20344647  1  0.098986  0  0.106399  0.079496  0  0.953172  0
H  H5  1  0.58055231  0.41972938  0.79593739  1  0.094755  0  0.10468  0.078661  0  0.979855  0
H  H6  1  0.82288758  0.84399437  0.79825534  1  0.053294  0  0.107344  0.083553  0  0.95145  0
H  H7  1  0.71151045  0.16254803  0.29246669  1  0.089004  0  0.105363  0.077985  0  0.95678  0
H  H8  1  0.29360097  0.54902455  0.09762682  1  0.040435  0  0.096285  0.104425  0  0.982328  0
H  H9  1  0.56432624  0.51208605  0.67047966  1  0.03731  0  0.096764  0.105916  0  0.97098  0
H  H10  1  0.77508913  0.95238862  0.90926082  1  0.040784  0  0.096489  0.101526  0  0.975813  0
H  H11  1  0.69329826  0.04967206  0.40001594  1  0.027103  0  0.094753  0.098985  0  0.975131  0
H  H12  1  0.03732618  0.52145183  0.11529897  1  0.071731  0  0.096958  0.108149  0  0.995523  0
H  H13  1  0.55451704  0.60815159  0.74080979  1  0.085206  0  0.095494  0.107913  0  1.010288  0
H  H14  1  0.53021473  0.98283020  0.86970193  1  0.076583  0  0.097464  0.109499  0  0.996124  0
H  H15  1  0.94903003  0.01779074  0.38111090  1  0.069567  0  0.095712  0.105633  0  1.002007  0
H  H16  1  0.95017671  0.51048403  0.34639609  1  0.047051  0  0.088508  0.089375  0  1.012146  0
H  H17  1  0.13682655  0.54362580  0.90429303  1  0.027654  0  0.087035  0.089287  0  1.000234  0
H  H18  1  0.44094931  0.98695035  0.67212670  1  0.049108  0  0.089716  0.092692  0  1.007226  0
H  H19  1  0.04889775  0.00778373  0.15710547  1  0.047375  0  0.088042  0.089586  0  1.012093  0
H  H20  1  0.95037577  0.40316384  0.23181688  1  0.053189  0  0.094788  0.102067  0  0.990391  0
H  H21  1  0.21512438  0.65783343  0.80226829  1  0.020144  0  0.083443  0.08625  0  1.00406  0
H  H22  1  0.47460053  0.11543030  0.76472981  1  0.056967  0  0.0979  0.103401  0  0.983985  0
H  H23  1  0.03807887  0.89747906  0.26952169  1  0.054374  0  0.095608  0.103093  0  0.985981  0
H  H24  1  0.51641147  0.50239116  0.36054150  1  0.015133  0  0.092077  0.090142  0  0.982058  0
H  H25  1  0.05536800  0.35977288  0.73522110  1  0.041151  0  0.09837  0.100438  0  0.974309  0
H  H26  1  0.99756243  0.00921543  0.63551031  1  0.016245  0  0.092175  0.091535  0  0.972732  0
H  H27  1  0.48394195  0.00313652  0.13200256  1  0.014909  0  0.094173  0.093934  0  0.973015  0
H  H28  1  0.55577641  0.58239000  0.27626140  1  0.051273  0  0.082695  0.079314  0  1.04077  0
H  H29  1  0.31151565  0.34798642  0.70493591  1  0.00996  0  0.093043  0.089495  0  0.978357  0
H  H30  1  0.07296266  0.91937980  0.70741260  1  0.063025  0  0.089061  0.085764  0  1.028915  0
H  H31  1  0.43348355  0.08501869  0.21408358  1  0.030114  0  0.083461  0.080249  0  1.041839  0
H  H32  1  0.57101338  0.46032632  0.17665563  1  0.058579  0  0.093708  0.097337  0  0.992751  0
H  H33  1  0.23151021  0.45621982  0.59441079  1  0.002673  0  0.09061  0.085036  0  0.985584  0
H  H34  1  0.07862198  0.02011702  0.82707865  1  0.014904  0  0.093109  0.095339  0  0.978262  0
H  H35  1  0.41408536  0.96580399  0.31608655  1  0.057812  0  0.091609  0.092283  0  0.994416  0
H  H36  1  0.51343597  0.38076963  0.25966042  1  0.012929  0  0.090761  0.090756  0  0.972605  0
H  H37  1  0.00244214  0.49025361  0.64408897  1  0.020001  0  0.096608  0.100721  0  0.979682  0
H  H38  1  0.04083047  0.11178878  0.75276857  1  0.022038  0  0.092808  0.092786  0  0.9864  0
H  H39  1  0.47730354  0.88386471  0.23562133  1  0.014716  0  0.092308  0.093063  0  0.974722  0
H  H40  1  0.15972022  0.45370382  0.39692959  1  0.000454  0  0.089206  0.086438  0  0.97918  0
H  H41  1  0.95687895  0.49291601  0.83439727  1  0.043744  0  0.085839  0.087455  0  1.022141  0
H  H42  1  0.61626489  0.03948647  0.60255245  1  0.020757  0  0.090538  0.087572  0  0.981795  0
H  H43  1  0.84784371  0.95345778  0.10135994  1  0.003584  0  0.090731  0.089464  0  0.977975  0
H  H44  1  0.14324143  0.34114589  0.28767184  1  0.019112  0  0.079515  0.076305  0  1.030238  0
H  H45  1  0.98822960  0.62651565  0.74734326  1  0.038491  0  0.095771  0.104007  0  0.983804  0
H  H46  1  0.68251125  0.15601688  0.70482163  1  0.042835  0  0.089784  0.084843  0  0.979837  0
H  H47  1  0.84769004  0.84019007  0.21015506  1  0.051578  0  0.080078  0.077269  0  1.034001  0
H  H48  1  0.74240379  0.63954726  0.45799648  1  0.610951  0  0.35114  0.425786  0  0.864904  0
H  H49  1  0.74522397  0.37331757  0.98043559  1  0.60523  0  0.33958  0.4185  0  0.884514  0
H  H50  1  0.23775088  0.86435394  0.53440396  1  0.621242  0  0.352747  0.428325  0  0.857756  0
H  H51  1  0.25401022  0.13912927  0.04134104  1  0.608726  0  0.348344  0.42377  0  0.868217  0
C  C52  1  0.73309800  0.86350837  0.38204352  1  1.552844  0  0.269026  0.631745  0  4.043323  0
C  C53  1  0.76736681  0.13663535  0.88397997  1  1.565193  0  0.270545  0.629663  0  4.037814  0
C  C54  1  0.25497996  0.63707928  0.61825281  1  1.577826  0  0.268705  0.62992  0  4.045616  0
C  C55  1  0.24686887  0.36390490  0.11504252  1  1.557902  0  0.270638  0.634565  0  4.03353  0
C  C56  1  0.74394352  0.86244991  0.61818039  1  1.588286  0  0.272009  0.637106  0  4.032078  0
C  C57  1  0.75342936  0.13864764  0.11666929  1  1.563647  0  0.272025  0.636128  0  4.031484  0
C  C58  1  0.23899779  0.63739757  0.38123127  1  1.5598  0  0.273776  0.640989  0  4.024304  0
C  C59  1  0.25832924  0.36337351  0.88326019  1  1.588291  0  0.271864  0.636726  0  4.046775  0
C  C60  1  0.17142807  0.60418853  0.21934894  1  0.057228  0  -0.030904  0.094772  0  3.705637  0
C  C61  1  0.47369679  0.47776879  0.80285533  1  0.07437  0  -0.038696  0.084803  0  3.728272  0
C  C62  1  0.70259336  0.89426892  0.78127804  1  0.126591  0  -0.033787  0.089224  0  3.717433  0
C  C63  1  0.81180051  0.10351883  0.27799121  1  0.078393  0  -0.032499  0.09353  0  3.71252  0
C  C64  1  0.18510172  0.52866572  0.14783910  1  -0.017738  0  -0.157761  -0.231495  0  3.841323  0
C  C65  1  0.47730344  0.54401132  0.72377096  1  -0.049842  0  -0.164367  -0.239884  0  3.881651  0
C  C66  1  0.68764459  0.97229564  0.85007503  1  -0.044725  0  -0.15855  -0.232974  0  3.862223  0
C  C67  1  0.80060999  0.02779422  0.34926826  1  -0.038605  0  -0.158  -0.230318  0  3.856364  0
C  C68  1  0.10299131  0.48329457  0.33450673  1  -0.03312  0  -0.163098  -0.170838  0  3.875818  0
C  C69  1  0.11076039  0.51981851  0.83681231  1  -0.024158  0  -0.167386  -0.181562  0  3.889503  0
C  C70  1  0.59408623  0.01482964  0.66998890  1  -0.036431  0  -0.16204  -0.174084  0  3.875326  0
C  C71  1  0.89530363  0.98205357  0.16513447  1  -0.022554  0  -0.163683  -0.169448  0  3.872767  0
C  C72  1  0.45795295  0.52582117  0.29627766  1  -0.029423  0  -0.163875  -0.179328  0  3.886759  0
C  C73  1  0.19520999  0.39830964  0.72572698  1  -0.014414  0  -0.151534  -0.16521  0  3.852107  0
C  C74  1  0.96274442  0.97622467  0.69850842  1  -0.04881  0  -0.163419  -0.18388  0  3.887351  0
C  C75  1  0.53484106  0.02729464  0.19692205  1  -0.000968  0  -0.163555  -0.180615  0  3.885924  0
C  C76  1  0.24052237  0.56380688  0.30936815  1  0.036541  0  -0.014923  -0.027741  0  3.800421  0
C  C77  1  0.26004813  0.44054445  0.81537290  1  0.034455  0  -0.018157  -0.030713  0  3.816454  0
C  C78  1  0.74779769  0.93610527  0.69004561  1  0.030835  0  -0.015377  -0.025708  0  3.791388  0
C  C79  1  0.75254656  0.06342043  0.18732001  1  0.042456  0  -0.015916  -0.028639  0  3.804199  0
C  C80  1  0.25130123  0.43485826  0.18875276  1  0.030056  0  -0.014875  0.02769  0  3.808466  0
C  C81  1  0.26043917  0.56600567  0.69194727  1  0.047201  0  -0.015401  0.026568  0  3.801625  0
C  C82  1  0.76598938  0.06381610  0.81185091  1  0.031638  0  -0.014478  0.026793  0  3.805564  0
C  C83  1  0.73464086  0.93506375  0.30849883  1  0.067559  0  -0.015238  0.02872  0  3.804847  0
C  C84  1  0.10169596  0.40963252  0.26120462  1  0.012039  0  -0.165033  -0.181527  0  3.864564  0
C  C85  1  0.13572452  0.60005921  0.77091763  1  -0.002994  0  -0.160509  -0.180136  0  3.846267  0
C  C86  1  0.62029992  0.09456161  0.73671039  1  -0.059869  0  -0.157147  -0.174931  0  3.850449  0
C  C87  1  0.88923824  0.90737869  0.23790359  1  -0.054067  0  -0.163346  -0.18157  0  3.850099  0
C  C88  1  0.46323659  0.44622810  0.22886480  1  -0.004076  0  -0.163828  -0.179744  0  3.87594  0
C  C89  1  0.16359929  0.47615748  0.65722601  1  0.011537  0  -0.156942  -0.176827  0  3.86719  0
C  C90  1  0.97705894  0.04615584  0.77458412  1  0.016834  0  -0.165287  -0.184669  0  3.895406  0
C  C91  1  0.52556707  0.94913233  0.26557075  1  -0.014125  0  -0.165512  -0.181183  0  3.890437  0
Cl  Cl92  1  0.91641045  0.65242162  0.21953469  1  -0.279333  0  -0.036287  -0.139703  0  1.432287  0
Cl  Cl93  1  0.56215477  0.53429781  0.90319230  1  -0.294548  0  -0.045942  -0.153006  0  1.364414  0
Cl  Cl94  1  0.47449482  0.82656963  0.78315292  1  -0.278075  0  -0.047982  -0.150148  0  1.3989  0
Cl  Cl95  1  0.06237114  0.15294503  0.27916202  1  -0.286905  0  -0.04025  -0.143829  0  1.416867  0
O  O96  1  0.57429359  0.84235791  0.58377339  1  -1.257389  0  -0.232933  -0.594992  0  2.386396  0
O  O97  1  0.91793771  0.15493657  0.07800155  1  -1.25867  0  -0.23289  -0.594649  0  2.378646  0
O  O98  1  0.06871586  0.66471678  0.40950765  1  -1.264991  0  -0.234153  -0.597429  0  2.400807  0
O  O99  1  0.42293035  0.31878306  0.89714645  1  -1.26576  0  -0.235864  -0.595775  0  2.374068  0
O  O100  1  0.90364573  0.84098965  0.41619891  1  -1.269372  0  -0.241145  -0.598652  0  2.35857  0
O  O101  1  0.60174749  0.15132193  0.92359730  1  -1.265368  0  -0.238896  -0.592647  0  2.34386  0
O  O102  1  0.42278731  0.66621948  0.59069476  1  -1.268316  0  -0.235834  -0.586446  0  2.368812  0
O  O103  1  0.07625650  0.32882027  0.09663020  1  -1.259714  0  -0.237646  -0.593258  0  2.363899  0
O  O104  1  0.91262685  0.82688596  0.59634707  1  -1.263805  0  -0.230864  -0.581338  0  2.372417  0
O  O105  1  0.58536815  0.17956159  0.10026597  1  -1.263921  0  -0.234923  -0.588299  0  2.365789  0
O  O106  1  0.40880682  0.66532229  0.40972149  1  -1.262276  0  -0.230982  -0.584229  0  2.373066  0
O  O107  1  0.09147909  0.34699034  0.91990919  1  -1.264108  0  -0.229883  -0.578415  0  2.350859  0
O  O108  1  0.08082468  0.65936990  0.58783759  1  -1.258476  0  -0.238834  -0.59305  0  2.358367  0
O  O109  1  0.41093056  0.34770745  0.07501944  1  -1.26364  0  -0.236847  -0.598501  0  2.376283  0
O  O110  1  0.56234411  0.83408934  0.40563314  1  -1.254744  0  -0.235241  -0.585348  0  2.365713  0
O  O111  1  0.93363713  0.17626760  0.90021644  1  -1.256335  0  -0.232496  -0.577589  0  2.35572  0
O  O112  1  0.74233611  0.69249006  0.49703586  1  -1.415637  0  -0.449633  -0.984799  0  2.206166  0
O  O113  1  0.75107360  0.30833042  0.99653398  1  -1.412636  0  -0.451203  -0.996424  0  2.228358  0
O  O114  1  0.23835573  0.80679002  0.50190388  1  -1.426616  0  -0.448808  -0.985415  0  2.211021  0
O  O115  1  0.25590714  0.19234042  0.00253161  1  -1.415318  0  -0.449961  -0.986369  0  2.194226  0
