# generated using pymatgen
data_ZnH12C4S2(NCl)2
_symmetry_space_group_name_H-M   'P 1'
_cell_length_a   5.05629036
_cell_length_b   10.20812310
_cell_length_c   20.11476069
_cell_angle_alpha   90.00006011
_cell_angle_beta   89.99999404
_cell_angle_gamma   92.50265075
_symmetry_Int_Tables_number   1
_chemical_formula_structural   ZnH12C4S2(NCl)2
_chemical_formula_sum   'Zn4 H48 C16 S8 N8 Cl8'
_cell_volume   1037.23782894
_cell_formula_units_Z   4
loop_
 _symmetry_equiv_pos_site_id
 _symmetry_equiv_pos_as_xyz
  1  'x, y, z'
loop_
 _atom_site_type_symbol
 _atom_site_label
 _atom_site_symmetry_multiplicity
 _atom_site_fract_x
 _atom_site_fract_y
 _atom_site_fract_z
 _atom_site_occupancy
 _atom_site_pbe_bader_spin_density
 _atom_site_pbe_cm5_charge
 _atom_site_pbe_ddec_charge
 _atom_site_pbe_ddec_spin_density
 _atom_site_pbe_ddec_sum_bond_order
 _atom_site_pbe_magmom
Zn  Zn0  1  0.73287766  0.65277695  0.89925968  1  0  0.550536  0.696664  0  2.535487  0
Zn  Zn1  1  0.26712260  0.84722353  0.39926026  1  0  0.55054  0.696703  0  2.535442  0
Zn  Zn2  1  0.26712363  0.34722447  0.10074054  1  0  0.550536  0.696655  0  2.535493  0
Zn  Zn3  1  0.73287859  0.15277691  0.60073996  1  0  0.550534  0.696665  0  2.535461  0
H  H4  1  0.88430806  0.62686609  0.02050400  1  0  0.266354  0.267948  0  1.004461  0
H  H5  1  0.11569031  0.87313362  0.52050456  1  0  0.266343  0.267937  0  1.004467  0
H  H6  1  0.11569105  0.37313338  0.97949572  1  0  0.266328  0.267858  0  1.004528  0
H  H7  1  0.88431088  0.12686682  0.47949516  1  0  0.266301  0.267844  0  1.004506  0
H  H8  1  0.14670868  0.64133029  0.97149719  1  0  0.276732  0.270114  0  0.977765  0
H  H9  1  0.85329344  0.85866935  0.47149675  1  0  0.276756  0.270176  0  0.977711  0
H  H10  1  0.85329063  0.35867114  0.02850303  1  0  0.276737  0.270146  0  0.977735  0
H  H11  1  0.14670973  0.14133108  0.52850297  1  0  0.276763  0.270184  0  0.977705  0
H  H12  1  0.91147281  0.80922619  0.30767675  1  0  0.280598  0.267623  0  0.97991  0
H  H13  1  0.08852737  0.69077311  0.80767571  1  0  0.280579  0.267582  0  0.979912  0
H  H14  1  0.08852621  0.19077229  0.69232397  1  0  0.28057  0.267563  0  0.979917  0
H  H15  1  0.91147382  0.30922732  0.19232401  1  0  0.280576  0.267586  0  0.979878  0
H  H16  1  0.87964454  0.95196106  0.34267596  1  0  0.263698  0.26433  0  1.013759  0
H  H17  1  0.12035365  0.54803832  0.84267535  1  0  0.263708  0.264317  0  1.013775  0
H  H18  1  0.12035655  0.04803839  0.65732426  1  0  0.2637  0.264314  0  1.01376  0
H  H19  1  0.87964556  0.45196212  0.15732487  1  0  0.263691  0.264283  0  1.013818  0
H  H20  1  0.81744447  0.85597392  0.01767679  1  0  0.097451  0.075011  0  1.003229  0
H  H21  1  0.18255597  0.64402675  0.51767672  1  0  0.097451  0.075012  0  1.003234  0
H  H22  1  0.18255287  0.14402751  0.98232293  1  0  0.097462  0.075025  0  1.003223  0
H  H23  1  0.81744522  0.35597369  0.48232250  1  0  0.097457  0.075014  0  1.003218  0
H  H24  1  0.08571507  0.87577173  0.96096170  1  0  0.096678  0.087152  0  0.99788  0
H  H25  1  0.91428487  0.62422593  0.46096015  1  0  0.09667  0.087131  0  0.997877  0
H  H26  1  0.91427999  0.12422677  0.03903951  1  0  0.096671  0.087125  0  0.99783  0
H  H27  1  0.08571612  0.37577255  0.53903808  1  0  0.096672  0.087146  0  0.997879  0
H  H28  1  0.24894715  0.93782931  0.07282090  1  0  0.090675  0.112742  0  1.022483  0
H  H29  1  0.75105525  0.56217147  0.57282028  1  0  0.090685  0.112734  0  1.022469  0
H  H30  1  0.75105413  0.06217210  0.92717982  1  0  0.090667  0.112714  0  1.022454  0
H  H31  1  0.24894791  0.43782897  0.42717944  1  0  0.090677  0.112735  0  1.022491  0
H  H32  1  0.39476206  0.79096675  0.04802315  1  0  0.091239  0.11379  0  1.009778  0
H  H33  1  0.60523827  0.70903300  0.54802261  1  0  0.091242  0.113775  0  1.009771  0
H  H34  1  0.60523715  0.20903369  0.95197657  1  0  0.091254  0.113802  0  1.009775  0
H  H35  1  0.39476292  0.29096743  0.45197761  1  0  0.091264  0.113808  0  1.009764  0
H  H36  1  0.06866341  0.05001067  0.17224914  1  0  0.083667  0.107644  0  1.034031  0
H  H37  1  0.93133069  0.44998892  0.67224872  1  0  0.08365  0.107603  0  1.034053  0
H  H38  1  0.93133581  0.94998978  0.82775108  1  0  0.083667  0.107627  0  1.034043  0
H  H39  1  0.06867040  0.55001053  0.32775100  1  0  0.083645  0.1076  0  1.034058  0
H  H40  1  0.79960100  0.04984511  0.22918692  1  0  0.09314  0.119434  0  0.987527  0
H  H41  1  0.20039476  0.45015165  0.72918553  1  0  0.093144  0.119438  0  0.987501  0
H  H42  1  0.20039791  0.95015239  0.77081380  1  0  0.093127  0.119428  0  0.987502  0
H  H43  1  0.79960643  0.54984879  0.27081420  1  0  0.093142  0.119451  0  0.987461  0
H  H44  1  0.29902021  0.88981907  0.24579784  1  0  0.089265  0.06557  0  1.02985  0
H  H45  1  0.70098186  0.61017912  0.74579774  1  0  0.089258  0.065562  0  1.029837  0
H  H46  1  0.70098078  0.11017940  0.75420238  1  0  0.08926  0.065563  0  1.029836  0
H  H47  1  0.29902131  0.38982131  0.25420198  1  0  0.089284  0.065615  0  1.029819  0
H  H48  1  0.25908915  0.04486757  0.28332926  1  0  0.093175  0.077473  0  1.019505  0
H  H49  1  0.74090877  0.45513126  0.78332934  1  0  0.093166  0.077439  0  1.019508  0
H  H50  1  0.74090996  0.95513189  0.71667096  1  0  0.093168  0.077432  0  1.019526  0
H  H51  1  0.25909242  0.54486918  0.21667038  1  0  0.093166  0.077455  0  1.019517  0
C  C52  1  0.01017209  0.81856039  0.00372236  1  0  -0.084056  0.012731  0  3.929347  0
C  C53  1  0.98982825  0.68143927  0.50372180  1  0  -0.08405  0.012697  0  3.92925  0
C  C54  1  0.98982712  0.18144005  0.99627836  1  0  -0.084061  0.012735  0  3.929211  0
C  C55  1  0.01017294  0.31856116  0.49627743  1  0  -0.084045  0.01275  0  3.929291  0
C  C56  1  0.20570201  0.83410453  0.06081079  1  0  -0.161434  -0.220738  0  3.918119  0
C  C57  1  0.79429832  0.66589526  0.56081022  1  0  -0.16144  -0.220664  0  3.918085  0
C  C58  1  0.79429720  0.16589592  0.93918993  1  0  -0.161446  -0.220734  0  3.918079  0
C  C59  1  0.20570287  0.33410518  0.43918901  1  0  -0.161429  -0.220717  0  3.918153  0
C  C60  1  0.96220725  0.99162985  0.21041687  1  0  -0.165768  -0.215083  0  3.905924  0
C  C61  1  0.03778900  0.50836927  0.71041674  1  0  -0.16575  -0.215067  0  3.905839  0
C  C62  1  0.03779186  0.00836961  0.78958335  1  0  -0.165764  -0.215076  0  3.905842  0
C  C63  1  0.96221219  0.49163117  0.28958348  1  0  -0.165733  -0.215016  0  3.90582  0
C  C64  1  0.15156069  0.95595450  0.26537353  1  0  -0.087046  0.015885  0  3.928275  0
C  C65  1  0.84843762  0.54404571  0.76537290  1  0  -0.087033  0.01596  0  3.928103  0
C  C66  1  0.84844040  0.04404496  0.73462718  1  0  -0.087049  0.01596  0  3.92817  0
C  C67  1  0.15156169  0.45595572  0.23462682  1  0  -0.08708  0.015818  0  3.928269  0
S  S68  1  0.10511862  0.74737375  0.13662922  1  0  -0.012255  -0.013659  0  2.879531  0
S  S69  1  0.89487961  0.75262522  0.63662919  1  0  -0.012264  -0.013707  0  2.879522  0
S  S70  1  0.89488049  0.25262572  0.86337100  1  0  -0.012259  -0.013669  0  2.879519  0
S  S71  1  0.10512158  0.24737522  0.36337053  1  0  -0.012275  -0.013678  0  2.879549  0
S  S72  1  0.79475375  0.84954887  0.17075293  1  0  -0.016056  -0.033802  0  2.787951  0
S  S73  1  0.20524448  0.65045017  0.67075287  1  0  -0.016047  -0.03377  0  2.787887  0
S  S74  1  0.20524734  0.15045059  0.82924729  1  0  -0.016045  -0.033787  0  2.787908  0
S  S75  1  0.79475671  0.34955027  0.32924735  1  0  -0.016033  -0.033784  0  2.787896  0
N  N76  1  0.96711048  0.68062900  0.98180255  1  0  -0.630665  -0.534734  0  3.398813  0
N  N77  1  0.03288975  0.81937165  0.48180262  1  0  -0.630682  -0.534801  0  3.398679  0
N  N78  1  0.03288883  0.31937243  0.01819767  1  0  -0.630663  -0.534716  0  3.398714  0
N  N79  1  0.96711154  0.18062977  0.51819710  1  0  -0.630668  -0.534765  0  3.398736  0
N  N80  1  0.01857765  0.89157924  0.32300284  1  0  -0.633079  -0.542865  0  3.427702  0
N  N81  1  0.98142054  0.60842010  0.82300224  1  0  -0.633066  -0.542829  0  3.427749  0
N  N82  1  0.98142136  0.10841924  0.67699738  1  0  -0.633053  -0.542802  0  3.427728  0
N  N83  1  0.01858074  0.39158132  0.17699798  1  0  -0.633049  -0.542775  0  3.427743  0
Cl  Cl84  1  0.49531891  0.82800303  0.87672752  1  0  -0.299432  -0.483913  0  1.209209  0
Cl  Cl85  1  0.50468343  0.67199838  0.37672601  1  0  -0.299434  -0.48391  0  1.209187  0
Cl  Cl86  1  0.50468040  0.17199840  0.12327369  1  0  -0.299424  -0.483891  0  1.209208  0
Cl  Cl87  1  0.49531776  0.32800206  0.62327222  1  0  -0.299435  -0.483912  0  1.209234  0
Cl  Cl88  1  0.44942685  0.47409174  0.91170672  1  0  -0.283416  -0.5093  0  1.361181  0
Cl  Cl89  1  0.55057333  0.02591029  0.41170512  1  0  -0.283418  -0.509313  0  1.361186  0
Cl  Cl90  1  0.55056871  0.52591166  0.08829400  1  0  -0.283403  -0.509296  0  1.36121  0
Cl  Cl91  1  0.44942786  0.97409015  0.58829361  1  0  -0.283413  -0.509306  0  1.361171  0
