# generated using pymatgen
data_PrH11C16N2(ClO)6
_symmetry_space_group_name_H-M   'P 1'
_cell_length_a   8.86143618
_cell_length_b   12.20169710
_cell_length_c   12.28406186
_cell_angle_alpha   109.20444984
_cell_angle_beta   105.08523366
_cell_angle_gamma   102.46892712
_symmetry_Int_Tables_number   1
_chemical_formula_structural   PrH11C16N2(ClO)6
_chemical_formula_sum   'Pr2 H22 C32 N4 Cl12 O12'
_cell_volume   1142.93952446
_cell_formula_units_Z   2
loop_
 _symmetry_equiv_pos_site_id
 _symmetry_equiv_pos_as_xyz
  1  'x, y, z'
loop_
 _atom_site_type_symbol
 _atom_site_label
 _atom_site_symmetry_multiplicity
 _atom_site_fract_x
 _atom_site_fract_y
 _atom_site_fract_z
 _atom_site_occupancy
 _atom_site_hle17_bader_spin_density
 _atom_site_hle17_ddec_charge
 _atom_site_hle17_ddec_spin_density
 _atom_site_hle17_ddec_sum_bond_order
 _atom_site_hle17_magmom
 _atom_site_hse06_10hf_bader_spin_density
 _atom_site_hse06_10hf_ddec_charge
 _atom_site_hse06_10hf_ddec_spin_density
 _atom_site_hse06_10hf_ddec_sum_bond_order
 _atom_site_hse06_10hf_magmom
 _atom_site_hse06_bader_spin_density
 _atom_site_hse06_ddec_charge
 _atom_site_hse06_ddec_spin_density
 _atom_site_hse06_ddec_sum_bond_order
 _atom_site_hse06_magmom
 _atom_site_pbe_bader_spin_density
 _atom_site_pbe_cm5_charge
 _atom_site_pbe_ddec_charge
 _atom_site_pbe_ddec_spin_density
 _atom_site_pbe_ddec_sum_bond_order
 _atom_site_pbe_magmom
Pr  Pr0  1  0.65107061  0.88215530  0.99173260  1  0  2.275266  0  1.66366  0  0  2.09151  0  2.144373  0  0  2.187333  0  2.000115  0  0  1.507704  2.058417  0  2.17865  0
Pr  Pr1  1  0.34892930  0.11784479  0.00826427  1  0  2.275371  0  1.663898  0  0  2.091669  0  2.144573  0  0  2.187464  0  2.000355  0  0  1.50776  2.058634  0  2.178849  0
H  H2  1  0.50536130  0.66807412  0.69781987  1  0  0.078438  0  0.970188  0  0  0.079935  0  1.04636  0  0  0.083447  0  1.04276  0  0  0.111735  0.077199  0  1.049421  0
H  H3  1  0.49463722  0.33193058  0.30218558  1  0  0.078475  0  0.970163  0  0  0.079946  0  1.046372  0  0  0.083461  0  1.042767  0  0  0.111748  0.077211  0  1.049439  0
H  H4  1  0.45287273  0.44908462  0.56005223  1  0  0.09572  0  0.96949  0  0  0.102985  0  1.035074  0  0  0.105852  0  1.034758  0  0  0.097362  0.100922  0  1.035384  0
H  H5  1  0.54712776  0.55092192  0.43995255  1  0  0.095819  0  0.969474  0  0  0.103067  0  1.03506  0  0  0.105945  0  1.034735  0  0  0.097397  0.101007  0  1.035369  0
H  H6  1  0.52930547  0.30790166  0.65967690  1  0  0.087148  0  0.948401  0  0  0.095337  0  1.013307  0  0  0.097986  0  1.01109  0  0  0.095758  0.093373  0  1.014941  0
H  H7  1  0.47069376  0.69210211  0.34032349  1  0  0.087102  0  0.948416  0  0  0.095273  0  1.013352  0  0  0.097921  0  1.011137  0  0  0.095731  0.093307  0  1.014982  0
H  H8  1  0.64231922  0.38824705  0.88746162  1  0  0.112611  0  0.983735  0  0  0.117351  0  1.053764  0  0  0.121502  0  1.051172  0  0  0.10008  0.114202  0  1.055962  0
H  H9  1  0.35767955  0.61175305  0.11253748  1  0  0.112564  0  0.983778  0  0  0.117303  0  1.053814  0  0  0.121454  0  1.051222  0  0  0.100048  0.114154  0  1.056003  0
H  H10  1  0.70677770  0.45551880  0.06994142  1  0  0.116519  0  0.992094  0  0  0.122996  0  1.05813  0  0  0.127065  0  1.05561  0  0  0.102081  0.120119  0  1.059858  0
H  H11  1  0.29322766  0.54448038  0.93005697  1  0  0.1164  0  0.992121  0  0  0.122909  0  1.058153  0  0  0.126975  0  1.055635  0  0  0.102043  0.120046  0  1.059836  0
H  H12  1  0.85830032  0.55833690  0.29643386  1  0  0.096521  0  0.92273  0  0  0.110339  0  0.974052  0  0  0.112884  0  0.972525  0  0  0.107192  0.108389  0  0.975339  0
H  H13  1  0.14171199  0.44165953  0.70356327  1  0  0.096558  0  0.922558  0  0  0.110395  0  0.973877  0  0  0.112944  0  0.972345  0  0  0.107173  0.108417  0  0.975187  0
H  H14  1  0.94230018  0.78939655  0.40187267  1  0  0.087632  0  0.993803  0  0  0.089981  0  1.069066  0  0  0.092968  0  1.068074  0  0  0.087713  0.087791  0  1.069921  0
H  H15  1  0.05770785  0.21059804  0.59812797  1  0  0.087637  0  0.993826  0  0  0.089984  0  1.069081  0  0  0.092969  0  1.068092  0  0  0.087716  0.087795  0  1.069936  0
H  H16  1  0.85938571  0.90375545  0.27431613  1  0  0.074208  0  0.961099  0  0  0.078814  0  1.032839  0  0  0.081575  0  1.030116  0  0  0.111393  0.076538  0  1.035426  0
H  H17  1  0.14061223  0.09624005  0.72568702  1  0  0.074243  0  0.961049  0  0  0.078854  0  1.03277  0  0  0.081618  0  1.030048  0  0  0.111396  0.076582  0  1.035364  0
H  H18  1  0.94740399  0.12836858  0.30809210  1  0  0.107555  0  0.947586  0  0  0.108115  0  1.013209  0  0  0.111069  0  1.01102  0  0  0.109856  0.105973  0  1.014917  0
H  H19  1  0.05260144  0.87163061  0.69191362  1  0  0.107708  0  0.947477  0  0  0.108258  0  1.013131  0  0  0.111199  0  1.01096  0  0  0.109904  0.106108  0  1.014853  0
H  H20  1  0.08444522  0.84586578  0.04069330  1  0  0.126294  0  0.926764  0  0  0.125472  0  0.991721  0  0  0.129337  0  0.989015  0  0  0.122878  0.122619  0  0.994051  0
H  H21  1  0.91554140  0.15412788  0.95930798  1  0  0.126353  0  0.926776  0  0  0.125454  0  0.991773  0  0  0.129317  0  0.989066  0  0  0.122868  0.12261  0  0.99409  0
H  H22  1  0.50329914  0.11229348  0.39634898  1  0  0.102187  0  0.943743  0  0  0.098723  0  1.018498  0  0  0.101706  0  1.016108  0  0  0.101417  0.096496  0  1.020363  0
H  H23  1  0.49670426  0.88770386  0.60365088  1  0  0.10212  0  0.943894  0  0  0.098658  0  1.018618  0  0  0.101641  0  1.01623  0  0  0.101379  0.096429  0  1.020481  0
C  C24  1  0.53470559  0.60294176  0.73595923  1  0  0.148628  0  3.719797  0  0  0.120186  0  3.977363  0  0  0.126554  0  3.996931  0  0  0.051019  0.115896  0  3.966073  0
C  C25  1  0.46529169  0.39706018  0.26404427  1  0  0.148743  0  3.719709  0  0  0.120319  0  3.977224  0  0  0.126688  0  3.996787  0  0  0.051076  0.116028  0  3.965955  0
C  C26  1  0.50643986  0.48144117  0.65999708  1  0  -0.132165  0  3.752725  0  0  -0.145604  0  4.00462  0  0  -0.153604  0  4.027893  0  0  -0.090006  -0.140373  0  3.988598  0
C  C27  1  0.49356289  0.51856260  0.34000559  1  0  -0.132441  0  3.752763  0  0  -0.14585  0  4.004633  0  0  -0.153862  0  4.027904  0  0  -0.090085  -0.140593  0  3.988568  0
C  C28  1  0.54737288  0.40339872  0.71513301  1  0  0.001845  0  3.741391  0  0  -0.01697  0  3.992895  0  0  -0.013895  0  4.012911  0  0  -0.071794  -0.01851  0  3.978825  0
C  C29  1  0.45262753  0.59660505  0.28486841  1  0  0.001908  0  3.741618  0  0  -0.016909  0  3.993123  0  0  -0.013834  0  4.013145  0  0  -0.071808  -0.018448  0  3.979037  0
C  C30  1  0.61213879  0.44863909  0.84324561  1  0  -0.134568  0  3.671172  0  0  -0.153262  0  3.917638  0  0  -0.160342  0  3.938059  0  0  -0.083207  -0.148601  0  3.903792  0
C  C31  1  0.38786083  0.55136285  0.15675913  1  0  -0.134524  0  3.671373  0  0  -0.1532  0  3.917823  0  0  -0.160282  0  3.938247  0  0  -0.083148  -0.14853  0  3.903951  0
C  C32  1  0.63692811  0.57200655  0.91401366  1  0  0.187703  0  3.761178  0  0  0.186164  0  4.004224  0  0  0.192926  0  4.024927  0  0  0.123112  0.181625  0  3.991499  0
C  C33  1  0.36307231  0.42799722  0.08598939  1  0  0.187691  0  3.760999  0  0  0.186096  0  4.004084  0  0  0.192856  0  4.024786  0  0  0.123121  0.181563  0  3.991357  0
C  C34  1  0.71151227  0.62649219  0.05067303  1  0  0.185905  0  3.764635  0  0  0.183818  0  4.008817  0  0  0.190012  0  4.029781  0  0  0.12214  0.179505  0  3.996024  0
C  C35  1  0.28848770  0.37350791  0.94932955  1  0  0.185851  0  3.764728  0  0  0.183878  0  4.008785  0  0  0.190076  0  4.029745  0  0  0.122164  0.179563  0  3.996001  0
C  C36  1  0.74487588  0.55504028  0.11696227  1  0  -0.144561  0  3.696901  0  0  -0.165692  0  3.948338  0  0  -0.172376  0  3.968651  0  0  -0.085799  -0.161178  0  3.934239  0
C  C37  1  0.25512867  0.44495706  0.88303618  1  0  -0.144537  0  3.697273  0  0  -0.165744  0  3.948704  0  0  -0.172432  0  3.969025  0  0  -0.085856  -0.161226  0  3.934573  0
C  C38  1  0.82907964  0.61273756  0.24410400  1  0  0.004107  0  3.723506  0  0  -0.01438  0  3.974345  0  0  -0.011332  0  3.993439  0  0  -0.070149  -0.016037  0  3.960995  0
C  C39  1  0.17093195  0.38725979  0.75589820  1  0  0.00403  0  3.723556  0  0  -0.014467  0  3.974434  0  0  -0.011422  0  3.993535  0  0  -0.070132  -0.016088  0  3.961057  0
C  C40  1  0.87462875  0.74007324  0.30297533  1  0  -0.125979  0  3.762993  0  0  -0.140966  0  4.019697  0  0  -0.148712  0  4.043361  0  0  -0.092187  -0.135752  0  4.003384  0
C  C41  1  0.12537776  0.25992319  0.69702562  1  0  -0.126  0  3.762849  0  0  -0.141012  0  4.019661  0  0  -0.148758  0  4.043329  0  0  -0.092196  -0.135789  0  4.00333  0
C  C42  1  0.83102307  0.80452567  0.23193900  1  0  0.148615  0  3.724439  0  0  0.119929  0  3.98105  0  0  0.126119  0  4.00147  0  0  0.049348  0.1157  0  3.969199  0
C  C43  1  0.16897804  0.19547168  0.76806615  1  0  0.148667  0  3.724544  0  0  0.11996  0  3.981192  0  0  0.126148  0  4.00161  0  0  0.049395  0.115726  0  3.96936  0
C  C44  1  0.07308592  0.08523556  0.17596985  1  0  0.71001  0  3.87924  0  0  0.660668  0  4.180629  0  0  0.694692  0  4.173374  0  0  0.225784  0.637655  0  4.186641  0
C  C45  1  0.92688965  0.91474890  0.82403127  1  0  0.709923  0  3.879581  0  0  0.660726  0  4.180769  0  0  0.694759  0  4.173498  0  0  0.225776  0.637713  0  4.186778  0
C  C46  1  0.06125140  0.16982076  0.29665896  1  0  0.009983  0  3.545423  0  0  -0.00246  0  3.818931  0  0  0.000343  0  3.821339  0  0  -0.01495  -0.004588  0  3.817017  0
C  C47  1  0.93875675  0.83017935  0.70334513  1  0  0.009926  0  3.545144  0  0  -0.002683  0  3.818905  0  0  0.000124  0  3.821311  0  0  -0.015049  -0.004806  0  3.817012  0
C  C48  1  0.31504831  0.81943018  0.02286583  1  0  0.676837  0  3.90307  0  0  0.625238  0  4.205491  0  0  0.658129  0  4.202245  0  0  0.207498  0.602783  0  4.210788  0
C  C49  1  0.68494092  0.18056163  0.97712636  1  0  0.677107  0  3.902913  0  0  0.625644  0  4.205023  0  0  0.658537  0  4.201769  0  0  0.207755  0.603199  0  4.210331  0
C  C50  1  0.16532480  0.79359035  0.06226610  1  0  0.007607  0  3.545419  0  0  -0.002311  0  3.817621  0  0  7.8e-05  0  3.819994  0  0  -0.011449  -0.004225  0  3.816034  0
C  C51  1  0.83466768  0.20640607  0.93773308  1  0  0.00753  0  3.545559  0  0  -0.002239  0  3.817468  0  0  0.000167  0  3.819804  0  0  -0.011433  -0.004168  0  3.815898  0
C  C52  1  0.61430487  0.09031385  0.25634139  1  0  0.701825  0  3.863896  0  0  0.650238  0  4.167986  0  0  0.683765  0  4.162896  0  0  0.224894  0.627492  0  4.172921  0
C  C53  1  0.38570336  0.90967338  0.74365117  1  0  0.702102  0  3.863925  0  0  0.650324  0  4.168299  0  0  0.683852  0  4.163208  0  0  0.224866  0.627569  0  4.173239  0
C  C54  1  0.62773342  0.12297675  0.39271782  1  0  0.007541  0  3.547181  0  0  -0.003105  0  3.821622  0  0  -0.000739  0  3.825098  0  0  -0.020565  -0.004785  0  3.81879  0
C  C55  1  0.37226840  0.87702242  0.60727584  1  0  0.007491  0  3.547401  0  0  -0.003068  0  3.821836  0  0  -0.000704  0  3.825316  0  0  -0.020514  -0.004744  0  3.818997  0
N  N56  1  0.59917834  0.64794302  0.85990432  1  0  -0.44497  0  3.213961  0  0  -0.391382  0  3.477817  0  0  -0.411147  0  3.496008  0  0  -0.385333  -0.381753  0  3.466902  0
N  N57  1  0.40082245  0.35205892  0.14009983  1  0  -0.444933  0  3.213702  0  0  -0.391354  0  3.477572  0  0  -0.411109  0  3.495753  0  0  -0.385377  -0.381746  0  3.466688  0
N  N58  1  0.75220197  0.75003058  0.10888441  1  0  -0.44527  0  3.221653  0  0  -0.390269  0  3.483905  0  0  -0.409941  0  3.502297  0  0  -0.390709  -0.38077  0  3.47294  0
N  N59  1  0.24779952  0.24996768  0.89111785  1  0  -0.445192  0  3.221668  0  0  -0.390218  0  3.483885  0  0  -0.409882  0  3.502273  0  0  -0.390729  -0.38073  0  3.472944  0
Cl  Cl60  1  0.22987181  0.18836021  0.42622156  1  0  -0.087265  0  1.299011  0  0  -0.066305  0  1.541641  0  0  -0.069599  0  1.531925  0  0  -0.004649  -0.063661  0  1.548344  0
Cl  Cl61  1  0.77013455  0.81164633  0.57378756  1  0  -0.087305  0  1.298916  0  0  -0.066323  0  1.54163  0  0  -0.069615  0  1.531911  0  0  -0.004664  -0.063683  0  1.548336  0
Cl  Cl62  1  0.05783933  0.31380192  0.29308061  1  0  -0.088774  0  1.235675  0  0  -0.077964  0  1.446744  0  0  -0.079589  0  1.438649  0  0  -0.022113  -0.076659  0  1.452423  0
Cl  Cl63  1  0.94216297  0.68619818  0.70692159  1  0  -0.088782  0  1.235687  0  0  -0.077924  0  1.446824  0  0  -0.079547  0  1.438722  0  0  -0.022099  -0.076627  0  1.452509  0
Cl  Cl64  1  0.24265356  0.84649208  0.22685856  1  0  -0.07957  0  1.265724  0  0  -0.067626  0  1.503226  0  0  -0.071144  0  1.49629  0  0  -0.006973  -0.064578  0  1.507914  0
Cl  Cl65  1  0.75734365  0.15350709  0.77314158  1  0  -0.079585  0  1.265728  0  0  -0.067701  0  1.503189  0  0  -0.071215  0  1.496223  0  0  -0.006982  -0.064642  0  1.507879  0
Cl  Cl66  1  0.04725320  0.63543776  0.98868465  1  0  -0.064666  0  1.399384  0  0  -0.052153  0  1.649163  0  0  -0.055548  0  1.64374  0  0  0.008355  -0.049377  0  1.653049  0
Cl  Cl67  1  0.95274591  0.36455774  0.01131708  1  0  -0.064627  0  1.399365  0  0  -0.052147  0  1.649065  0  0  -0.055548  0  1.643631  0  0  0.008388  -0.049358  0  1.652965  0
Cl  Cl68  1  0.70714405  0.02722918  0.45679345  1  0  -0.101636  0  1.333302  0  0  -0.091715  0  1.577958  0  0  -0.093866  0  1.568469  0  0  -0.030479  -0.090096  0  1.58448  0
Cl  Cl69  1  0.29285967  0.97276907  0.54319701  1  0  -0.101618  0  1.333304  0  0  -0.091727  0  1.577948  0  0  -0.093877  0  1.568461  0  0  -0.03048  -0.090107  0  1.58447  0
Cl  Cl70  1  0.74861736  0.28151388  0.48511441  1  0  -0.095893  0  1.224949  0  0  -0.079937  0  1.437913  0  0  -0.081361  0  1.428993  0  0  -0.02307  -0.078843  0  1.444062  0
Cl  Cl71  1  0.25138135  0.71848345  0.51488297  1  0  -0.095891  0  1.225021  0  0  -0.079941  0  1.437967  0  0  -0.081363  0  1.429048  0  0  -0.023065  -0.07885  0  1.444114  0
O  O72  1  0.94995027  0.98777929  0.11132315  1  0  -0.705242  0  2.042234  0  0  -0.656212  0  2.306052  0  0  -0.687621  0  2.293495  0  0  -0.381238  -0.63855  0  2.312809  0
O  O73  1  0.05006833  0.01223646  0.88868879  1  0  -0.705586  0  2.041383  0  0  -0.656546  0  2.305027  0  0  -0.687969  0  2.292469  0  0  -0.381424  -0.638887  0  2.311794  0
O  O74  1  0.20208587  0.11897523  0.15423104  1  0  -0.701497  0  2.067269  0  0  -0.65663  0  2.331535  0  0  -0.687159  0  2.319539  0  0  -0.384621  -0.639757  0  2.337782  0
O  O75  1  0.79794489  0.88102857  0.84577027  1  0  -0.701152  0  2.068762  0  0  -0.656283  0  2.332891  0  0  -0.686807  0  2.320887  0  0  -0.38438  -0.639408  0  2.339123  0
O  O76  1  0.34891501  0.91655365  0.00363517  1  0  -0.775778  0  2.157115  0  0  -0.716692  0  2.421401  0  0  -0.752115  0  2.410098  0  0  -0.40994  -0.699242  0  2.428122  0
O  O77  1  0.65105681  0.08344915  0.99634766  1  0  -0.775816  0  2.157562  0  0  -0.716831  0  2.421863  0  0  -0.752259  0  2.410561  0  0  -0.410029  -0.699342  0  2.428503  0
O  O78  1  0.40068707  0.74921460  0.01494158  1  0  -0.645177  0  2.008396  0  0  -0.598735  0  2.246843  0  0  -0.626771  0  2.239394  0  0  -0.34334  -0.582653  0  2.25145  0
O  O79  1  0.59930177  0.25079743  0.98505634  1  0  -0.645477  0  2.00785  0  0  -0.599103  0  2.246249  0  0  -0.627142  0  2.238798  0  0  -0.343556  -0.583023  0  2.250868  0
O  O80  1  0.66541557  0.00525604  0.20602063  1  0  -0.692365  0  2.061318  0  0  -0.642023  0  2.317617  0  0  -0.6721  0  2.307078  0  0  -0.3665  -0.624984  0  2.323471  0
O  O81  1  0.33456062  0.99474861  0.79396849  1  0  -0.692514  0  2.060485  0  0  -0.642078  0  2.316795  0  0  -0.672161  0  2.306261  0  0  -0.366432  -0.62504  0  2.322652  0
O  O82  1  0.54786020  0.15367592  0.20937102  1  0  -0.685321  0  2.057464  0  0  -0.635389  0  2.31248  0  0  -0.666358  0  2.302048  0  0  -0.378236  -0.617778  0  2.318201  0
O  O83  1  0.45213015  0.84633702  0.79062016  1  0  -0.685348  0  2.058268  0  0  -0.635388  0  2.313435  0  0  -0.666351  0  2.303  0  0  -0.378277  -0.617767  0  2.319145  0
