# generated using pymatgen
data_CoH16C20N4O5
_symmetry_space_group_name_H-M   'P 1'
_cell_length_a   8.62811572
_cell_length_b   9.72676407
_cell_length_c   12.35027887
_cell_angle_alpha   70.77785755
_cell_angle_beta   87.81677427
_cell_angle_gamma   78.62442349
_symmetry_Int_Tables_number   1
_chemical_formula_structural   CoH16C20N4O5
_chemical_formula_sum   'Co2 H32 C40 N8 O10'
_cell_volume   959.06623077
_cell_formula_units_Z   2
loop_
 _symmetry_equiv_pos_site_id
 _symmetry_equiv_pos_as_xyz
  1  'x, y, z'
loop_
 _atom_site_type_symbol
 _atom_site_label
 _atom_site_symmetry_multiplicity
 _atom_site_fract_x
 _atom_site_fract_y
 _atom_site_fract_z
 _atom_site_occupancy
 _atom_site_hle17_ddec_charge
 _atom_site_hle17_ddec_spin_density
 _atom_site_hle17_ddec_sum_bond_order
 _atom_site_hle17_magmom
 _atom_site_hse06_10hf_ddec_charge
 _atom_site_hse06_10hf_ddec_spin_density
 _atom_site_hse06_10hf_ddec_sum_bond_order
 _atom_site_hse06_10hf_magmom
 _atom_site_hse06_ddec_charge
 _atom_site_hse06_ddec_spin_density
 _atom_site_hse06_ddec_sum_bond_order
 _atom_site_hse06_magmom
 _atom_site_pbe_cm5_charge
 _atom_site_pbe_ddec_charge
 _atom_site_pbe_ddec_spin_density
 _atom_site_pbe_ddec_sum_bond_order
 _atom_site_pbe_magmom
Co  Co0  1  0.93922847  0.61941210  0.27303313  1  0.970705  2.856225  1.98143  2.594  0.931956  2.851313  2.38191  2.655  1.005911  2.884792  2.313411  2.723  0.663237  0.870559  2.823511  2.440757  2.593
Co  Co1  1  0.06077120  0.38058577  0.72696780  1  0.970659  2.856225  1.98138  2.594  0.931899  2.851315  2.381846  2.655  1.00584  2.884796  2.313375  2.723  0.663231  0.870524  2.823514  2.440654  2.593
H  H2  1  0.25173715  0.75809536  0.22514326  1  0.100256  -9.9e-05  0.938349  0.001  0.109167  -0.000163  1.000824  0.0  0.112493  -0.000125  0.996188  0.0  0.137627  0.106426  -0.000242  1.004758  0.0
H  H3  1  0.74826447  0.24190476  0.77485221  1  0.100237  -9.9e-05  0.93834  0.001  0.109156  -0.000163  1.000809  0.0  0.112499  -0.000125  0.996153  0.0  0.137623  0.106415  -0.000242  1.004738  0.0
H  H4  1  0.91600405  0.75685983  0.98854744  1  0.105559  5.4e-05  0.960119  0.001  0.11499  7.5e-05  1.021661  0.0  0.117659  1.9e-05  1.019958  0.0  0.118706  0.11296  0.000146  1.022997  0.001
H  H5  1  0.08399329  0.24313807  0.01145353  1  0.105525  5.5e-05  0.960171  0.001  0.114954  7.5e-05  1.021719  0.0  0.117624  1.9e-05  1.020021  0.0  0.118699  0.112925  0.000146  1.023058  0.001
H  H6  1  0.13838602  0.91900665  0.86770460  1  0.12652  0.000192  0.961042  0.0  0.135099  0.00026  1.022238  0.0  0.138431  0.000164  1.02011  0.0  0.12537  0.132656  0.000355  1.023803  0.0
H  H7  1  0.86160557  0.08099683  0.13229506  1  0.126484  0.000192  0.960899  0.0  0.135064  0.00026  1.022111  0.0  0.138396  0.000164  1.019981  0.0  0.12533  0.132622  0.000356  1.023679  0.0
H  H8  1  0.48232997  0.80501615  0.18680944  1  0.106583  -1.6e-05  0.948892  0.0  0.120381  -1.9e-05  1.002975  0.0  0.12295  -1.4e-05  1.001928  0.0  0.111193  0.118311  -3.7e-05  1.004249  0.0
H  H9  1  0.51766705  0.19498955  0.81318388  1  0.10655  -1.7e-05  0.948938  0.0  0.120394  -1.9e-05  1.00298  0.0  0.122963  -1.4e-05  1.001933  0.0  0.111217  0.118326  -3.7e-05  1.004239  0.0
H  H10  1  0.29338574  0.07037982  0.84615710  1  0.130752  -0.000389  0.982516  0.0  0.138112  -0.00033  1.047283  0.0  0.142342  -0.00032  1.043556  0.0  0.112481  0.134881  -0.000331  1.050186  0.0
H  H11  1  0.70661402  0.92962362  0.15383917  1  0.13083  -0.000388  0.982381  0.0  0.138215  -0.00033  1.047113  0.0  0.142448  -0.00032  1.043382  0.0  0.112521  0.134985  -0.000331  1.050022  0.0
H  H12  1  0.22672000  0.38628912  0.43511841  1  0.114423  -0.0  0.969945  0.001  0.122273  8.9e-05  1.032668  0.0  0.12612  2.8e-05  1.027524  0.0  0.139824  0.119113  0.000117  1.036815  0.001
H  H13  1  0.77327961  0.61370873  0.56488576  1  0.114462  0.0  0.969878  0.001  0.122238  8.9e-05  1.032685  0.0  0.126128  2.8e-05  1.027482  0.0  0.139817  0.119079  0.000117  1.036833  0.001
H  H14  1  0.98206463  0.36009050  0.15582839  1  0.107252  8.4e-05  0.953314  0.001  0.115736  0.000124  1.013183  0.0  0.118148  6.2e-05  1.012534  0.0  0.121059  0.113784  0.000196  1.014029  0.001
H  H15  1  0.01793522  0.63990625  0.84417525  1  0.107276  8.5e-05  0.953423  0.001  0.115767  0.000124  1.013269  0.0  0.118179  6.2e-05  1.01262  0.0  0.121073  0.113816  0.000196  1.014116  0.001
H  H16  1  0.21624999  0.10682969  0.23482370  1  0.111814  7.3e-05  0.95423  0.0  0.123245  0.000158  1.011239  0.0  0.125767  0.000122  1.010284  0.0  0.124089  0.121236  0.000207  1.012291  0.0
H  H17  1  0.78375359  0.89316594  0.76517854  1  0.111816  7.3e-05  0.954264  0.0  0.12325  0.000158  1.011264  0.0  0.125772  0.000122  1.010309  0.0  0.124087  0.121237  0.000207  1.012319  0.0
H  H18  1  0.37297862  0.21994844  0.55403773  1  0.123823  -9e-06  0.949841  0.0  0.134601  -1.4e-05  1.005748  0.0  0.137816  -4.3e-05  1.003832  0.0  0.114273  0.132027  1.3e-05  1.00747  0.0
H  H19  1  0.62702615  0.78005270  0.44596470  1  0.123802  -9e-06  0.949882  0.0  0.134599  -1.4e-05  1.005772  0.0  0.137812  -4.3e-05  1.003861  0.0  0.114316  0.132024  1.3e-05  1.0075  0.0
H  H20  1  0.42655303  0.97059966  0.31790754  1  0.097484  4e-06  0.961746  0.0  0.109077  6e-06  1.021696  0.0  0.11167  9e-06  1.020644  0.0  0.105009  0.107093  5e-06  1.022779  0.0
H  H21  1  0.57344869  0.02939929  0.68209632  1  0.097494  3e-06  0.961695  0.0  0.109086  6e-06  1.02165  0.0  0.111684  9e-06  1.020599  0.0  0.104998  0.107099  5e-06  1.022733  0.0
H  H22  1  0.18853553  0.75821636  0.54330889  1  0.102861  0.000117  0.955282  0.0  0.114274  0.000103  1.014446  0.0  0.117813  4.8e-05  1.012233  0.0  0.106602  0.111141  0.000166  1.016898  0.0
H  H23  1  0.81146417  0.24178153  0.45668960  1  0.102838  0.000116  0.95536  0.0  0.114255  0.000103  1.014516  0.0  0.117785  4.8e-05  1.012319  0.0  0.106564  0.11112  0.000166  1.016966  0.0
H  H24  1  0.79295291  0.07385745  0.34606182  1  0.10137  0.000183  0.945739  0.0  0.112542  0.000168  1.003733  0.0  0.115997  0.000101  1.002085  0.0  0.104716  0.109828  0.000241  1.005256  0.0
H  H25  1  0.20704680  0.92614045  0.65393586  1  0.10142  0.000183  0.945713  0.0  0.112594  0.000168  1.003696  0.0  0.116043  0.000101  1.002061  0.0  0.104701  0.109881  0.000241  1.005217  0.0
H  H26  1  0.40765829  0.40444731  0.19878518  1  0.09329  -0.000119  0.982768  0.0  0.096113  -8.4e-05  1.056374  0.0  0.099491  -5.9e-05  1.054569  0.0  0.095132  0.093712  -0.000135  1.057772  0.0
H  H27  1  0.59234095  0.59555831  0.80121623  1  0.09331  -0.00012  0.98281  0.0  0.096137  -8.4e-05  1.056403  0.0  0.099514  -5.9e-05  1.0546  0.0  0.095141  0.093735  -0.000135  1.057803  0.0
H  H28  1  0.73259800  0.62207400  0.96531225  1  0.08368  0.000117  0.986419  0.0  0.090634  6.7e-05  1.05675  0.0  0.093758  1.5e-05  1.055081  0.0  0.093464  0.088607  0.000144  1.057496  0.0
H  H29  1  0.26740446  0.37792716  0.03468941  1  0.083641  0.000117  0.986447  0.0  0.09059  6.7e-05  1.056779  0.0  0.093719  1.5e-05  1.055116  0.0  0.093468  0.088563  0.000144  1.057527  0.0
H  H30  1  0.71192151  0.50907641  0.37723787  1  0.408929  -0.000542  0.908591  -0.001  0.37785  -4.5e-05  0.973153  0.0  0.390637  -0.000177  0.954851  0.0  0.27748  0.368796  9.3e-05  0.986027  0.0
H  H31  1  0.28807535  0.49092369  0.62276498  1  0.408931  -0.000543  0.908597  -0.001  0.377851  -4.5e-05  0.973158  0.0  0.390638  -0.000177  0.954858  0.0  0.277471  0.368795  9.3e-05  0.986037  0.0
H  H32  1  0.84728091  0.45118846  0.47925014  1  0.416397  -0.000333  0.888437  0.0  0.388198  0.000205  0.949887  0.001  0.399261  -6e-06  0.933966  0.001  0.287707  0.380332  0.000392  0.961046  0.001
H  H33  1  0.15271925  0.54881273  0.52074994  1  0.416416  -0.000333  0.888412  0.0  0.388213  0.000205  0.949867  0.001  0.399276  -6e-06  0.933945  0.001  0.287712  0.380342  0.000392  0.961032  0.001
C  C34  1  0.19092583  0.77856607  0.14460816  1  0.162789  -0.019917  3.637889  -0.012  0.104008  -0.005166  3.911597  -0.002  0.11912  -0.003685  3.922991  -0.001  0.140898  0.093177  -0.007555  3.90444  -0.003
C  C35  1  0.80907693  0.22143403  0.85538810  1  0.162854  -0.01991  3.63784  -0.012  0.104032  -0.005165  3.911574  -0.002  0.119131  -0.003681  3.922961  -0.001  0.14087  0.093199  -0.007555  3.904415  -0.003
C  C36  1  0.02072577  0.78087872  0.01847744  1  0.008303  -0.007323  3.730114  -0.005  -0.021437  -0.00173  4.000888  -0.001  -0.018886  -0.002114  4.019841  -0.001  0.001239  -0.023552  -0.00128  3.988304  0.0
C  C37  1  0.97927327  0.21912251  0.98152022  1  0.008366  -0.00732  3.730209  -0.005  -0.021386  -0.00173  4.00096  -0.001  -0.018836  -0.002115  4.019914  -0.001  0.001222  -0.023505  -0.00128  3.988378  0.0
C  C38  1  0.12953947  0.86031721  0.95835259  1  -0.057047  0.005009  3.642035  0.006  -0.096295  0.001788  3.897494  0.002  -0.094813  0.001498  3.915635  0.002  0.003051  -0.097142  0.002114  3.885701  0.003
C  C39  1  0.87045700  0.13968513  0.04164646  1  -0.057  0.005006  3.64194  0.006  -0.096251  0.001789  3.8974  0.002  -0.094769  0.001497  3.915542  0.002  0.003083  -0.097101  0.002114  3.885612  0.003
C  C40  1  0.37050375  0.92913296  0.01924744  1  0.169523  4.7e-05  3.792528  0.0  0.159564  7.7e-05  4.04181  0.0  0.164379  0.000193  4.065281  0.0  0.092597  0.156325  -0.000395  4.026152  0.0
C  C41  1  0.62949320  0.07086719  0.98074892  1  0.169726  4.9e-05  3.792515  0.0  0.159757  7.8e-05  4.041825  0.0  0.164573  0.000193  4.065297  0.0  0.092716  0.156519  -0.000395  4.026165  0.0
C  C42  1  0.48709479  0.89248060  0.10531618  1  -0.137912  -0.000805  3.755426  0.0  -0.158589  -0.000513  4.010733  0.0  -0.161753  -0.000257  4.031427  0.0  -0.089994  -0.156869  -0.001014  3.997538  0.0
C  C43  1  0.51290034  0.10752288  0.89467936  1  -0.138016  -0.0008  3.75548  0.0  -0.158747  -0.000514  4.010817  0.0  -0.161911  -0.000256  4.031509  0.0  -0.090071  -0.157024  -0.001014  3.997611  0.0
C  C44  1  0.38412641  0.03707067  0.91357363  1  -0.129039  -0.000176  3.718049  0.0  -0.149514  -0.00019  3.969655  0.0  -0.151798  -0.000158  3.987913  0.0  -0.08807  -0.148043  -0.000309  3.957546  0.0
C  C45  1  0.61586871  0.96293281  0.08642191  1  -0.129245  -0.000179  3.718108  0.0  -0.149745  -0.000191  3.969719  0.0  -0.152035  -0.000157  3.987982  0.0  -0.088168  -0.148276  -0.000309  3.957623  0.0
C  C46  1  0.19188555  0.34666340  0.36895347  1  0.179204  -0.012596  3.590567  -0.007  0.120743  0.000286  3.865992  0.001  0.13616  0.000788  3.875362  0.002  0.150174  0.109488  -0.001842  3.859696  0.0
C  C47  1  0.80811060  0.65333449  0.63104995  1  0.179224  -0.012594  3.590496  -0.007  0.120853  0.000287  3.865893  0.001  0.136243  0.000791  3.875235  0.002  0.150204  0.109603  -0.001841  3.8596  0.0
C  C48  1  0.06921772  0.32744662  0.22508791  1  0.014659  -0.009185  3.731599  -0.006  -0.013047  -0.002727  3.999615  -0.001  -0.010207  -0.002656  4.018465  -0.001  0.006592  -0.015129  -0.002085  3.986811  -0.001
C  C49  1  0.93078373  0.67254789  0.77491708  1  0.014624  -0.009196  3.731792  -0.006  -0.013087  -0.002728  3.999808  -0.001  -0.010243  -0.002657  4.018652  -0.001  0.006594  -0.015167  -0.002086  3.987005  -0.001
C  C50  1  0.18506048  0.20252547  0.26302479  1  -0.060686  0.005653  3.669605  0.007  -0.098871  0.002067  3.925238  0.003  -0.097972  0.001545  3.944067  0.002  0.004869  -0.099308  0.002563  3.912433  0.003
C  C51  1  0.81494125  0.79747348  0.73697826  1  -0.060626  0.005657  3.66944  0.007  -0.098812  0.002067  3.925077  0.003  -0.097912  0.001545  3.9439  0.002  0.00488  -0.099247  0.002564  3.912274  0.003
C  C52  1  0.38523179  0.10867165  0.42649642  1  0.176295  0.000262  3.781827  0.001  0.16547  0.000231  4.032016  0.001  0.170344  0.000258  4.055119  0.0  0.09841  0.161955  -0.000103  4.01655  0.0
C  C53  1  0.61476804  0.89132509  0.57350884  1  0.176281  0.000265  3.781898  0.001  0.165465  0.000231  4.032098  0.001  0.170336  0.000258  4.055204  0.0  0.098416  0.161952  -0.000103  4.016634  0.0
C  C54  1  0.42927559  0.12524270  0.52867107  1  -0.11634  -0.000668  3.711863  0.0  -0.13656  -0.00026  3.962595  0.0  -0.139148  -9.5e-05  3.982095  0.0  -0.079381  -0.135006  -0.000449  3.950064  0.0
C  C55  1  0.57072845  0.87475622  0.47133275  1  -0.116324  -0.000665  3.711823  0.0  -0.136579  -0.000261  3.962587  0.0  -0.139166  -9.4e-05  3.98209  0.0  -0.079434  -0.135027  -0.000449  3.950066  0.0
C  C56  1  0.45706008  0.98364505  0.39815494  1  -0.12639  4.9e-05  3.740323  0.0  -0.145946  6.5e-05  3.991692  0.0  -0.148569  6e-05  4.011476  0.0  -0.085366  -0.144265  7.1e-05  3.978813  0.0
C  C57  1  0.54294307  0.01635280  0.60184593  1  -0.126381  5.1e-05  3.740483  0.0  -0.145948  6.4e-05  3.991855  0.0  -0.148577  6.1e-05  4.011646  0.0  -0.08533  -0.144267  7.1e-05  3.97897  0.0
C  C58  1  0.97174130  0.80541244  0.37198649  1  0.615833  -0.014188  3.909684  -0.01  0.567631  -0.0063  4.210572  -0.004  0.60324  -0.004512  4.20494  -0.003  0.197084  0.542626  -0.008793  4.212668  -0.006
C  C59  1  0.02826282  0.19458653  0.62801165  1  0.615837  -0.014185  3.909584  -0.01  0.56774  -0.006299  4.210385  -0.004  0.603335  -0.004513  4.204745  -0.003  0.197174  0.542728  -0.008791  4.212487  -0.006
C  C60  1  0.98894261  0.90573320  0.43722611  1  -0.069098  0.000406  3.772952  0.001  -0.048519  0.00017  4.011061  0.001  -0.0545  0.000228  4.031387  0.0  -0.022315  -0.045778  -0.000908  3.998906  0.0
C  C61  1  0.01106012  0.09426688  0.56277259  1  -0.068982  0.000406  3.772878  0.001  -0.048551  0.00017  4.011122  0.001  -0.054482  0.000228  4.031381  0.0  -0.022282  -0.045796  -0.000908  3.998951  0.0
C  C62  1  0.10593214  0.86388077  0.52419324  1  -0.066474  -0.000814  3.722271  0.0  -0.092926  -0.000166  3.97722  0.0  -0.093479  -3.7e-05  3.996851  0.0  -0.08462  -0.092842  -0.001008  3.965174  0.0
C  C63  1  0.89406848  0.13611822  0.47580658  1  -0.066499  -0.000813  3.722304  0.0  -0.092915  -0.000165  3.977292  0.0  -0.093482  -3.7e-05  3.996909  0.0  -0.084601  -0.092832  -0.001008  3.965233  0.0
C  C64  1  0.88374883  0.04269996  0.41331336  1  -0.074133  -0.001132  3.746619  0.0  -0.099276  -0.000391  4.001235  0.0  -0.100062  -0.000149  4.021396  0.0  -0.085954  -0.098761  -0.000871  3.988407  0.0
C  C65  1  0.11625159  0.95730015  0.58668456  1  -0.074242  -0.001133  3.746686  0.0  -0.099343  -0.00039  4.001351  0.0  -0.100143  -0.000148  4.021495  0.0  -0.085953  -0.098834  -0.000871  3.988523  0.0
C  C66  1  0.65962610  0.53113663  0.19118460  1  0.633715  -0.005153  3.901529  -0.004  0.588833  -0.000215  4.19984  0.001  0.624988  0.000263  4.19267  0.001  0.205016  0.563099  -0.001169  4.203174  0.0
C  C67  1  0.34037587  0.46886122  0.80881711  1  0.633647  -0.005153  3.901622  -0.004  0.588744  -0.000215  4.19994  0.001  0.624899  0.000264  4.192773  0.001  0.205005  0.563002  -0.00117  4.203287  0.0
C  C68  1  0.57839905  0.51456789  0.09209481  1  -0.067125  0.003031  3.762793  0.005  -0.045192  0.001735  3.993951  0.003  -0.052155  0.001259  4.016063  0.002  -0.023346  -0.040803  0.002039  3.97987  0.003
C  C69  1  0.42160227  0.48543330  0.90790525  1  -0.067096  0.003033  3.762806  0.005  -0.045142  0.001734  3.993941  0.003  -0.052103  0.001259  4.016052  0.002  -0.02337  -0.040751  0.00204  3.979857  0.003
C  C70  1  0.44692516  0.44564296  0.11127680  1  -0.073816  -0.000559  3.735851  0.0  -0.09722  -1.7e-05  3.987661  0.0  -0.098291  7.2e-05  4.008132  0.0  -0.09098  -0.096428  -0.000316  3.97385  0.0
C  C71  1  0.55307502  0.55435825  0.88872247  1  -0.073868  -0.000562  3.735935  0.0  -0.097283  -1.4e-05  3.987748  0.0  -0.098354  7e-05  4.008215  0.0  -0.090985  -0.096492  -0.000317  3.973938  0.0
C  C72  1  0.63062455  0.56872227  0.97997862  1  -0.073334  -7.7e-05  3.753928  0.0  -0.096654  0.000163  4.002788  0.0  -0.097255  7.4e-05  4.023342  0.0  -0.09278  -0.096154  0.000197  3.988766  0.0
C  C73  1  0.36937560  0.43127892  0.02002227  1  -0.073308  -8.2e-05  3.753876  0.0  -0.096624  0.000165  4.002723  0.0  -0.097237  7.3e-05  4.023285  0.0  -0.092768  -0.096123  0.000197  3.988699  0.0
N  N74  1  0.05996641  0.73133361  0.13420580  1  -0.354684  0.035562  3.327816  0.063  -0.313077  0.027019  3.631573  0.042  -0.337119  0.021945  3.647256  0.034  -0.349869  -0.295095  0.031277  3.620949  0.047
N  N75  1  0.94003751  0.26866647  0.86579125  1  -0.354724  0.035561  3.327848  0.063  -0.313065  0.02702  3.631557  0.042  -0.337108  0.021944  3.64725  0.034  -0.349861  -0.295085  0.031279  3.620927  0.047
N  N76  1  0.23819793  0.85804501  0.03946789  1  -0.087278  -0.000268  3.602528  0.001  0.003265  4.2e-05  3.812601  0.001  -0.011927  0.000152  3.838978  0.001  -0.220461  0.012988  -0.000239  3.7955  0.001
N  N77  1  0.76179790  0.14196068  0.96052789  1  -0.087372  -0.000269  3.60256  0.001  0.003178  4.2e-05  3.812639  0.001  -0.012014  0.000153  3.839021  0.001  -0.22045  0.012899  -0.00024  3.795539  0.001
N  N78  1  0.07470976  0.41581335  0.29196370  1  -0.365913  0.037131  3.336855  0.064  -0.328134  0.026953  3.652735  0.041  -0.3531  0.021555  3.666323  0.033  -0.355921  -0.309103  0.031704  3.643049  0.048
N  N79  1  0.92528987  0.58418451  0.70803966  1  -0.365909  0.037133  3.336938  0.064  -0.328157  0.026955  3.652808  0.041  -0.353123  0.021555  3.666405  0.033  -0.355919  -0.309135  0.031705  3.643132  0.048
N  N80  1  0.26289785  0.21534093  0.35466614  1  -0.087443  0.000454  3.595146  0.002  0.002712  0.000826  3.804519  0.002  -0.012113  0.00078  3.830231  0.001  -0.221783  0.012742  0.000984  3.787142  0.002
N  N81  1  0.73710410  0.78465691  0.64533719  1  -0.08757  0.000453  3.595183  0.002  0.002572  0.000826  3.804557  0.002  -0.012253  0.000782  3.830277  0.001  -0.22186  0.0126  0.000984  3.787182  0.002
O  O82  1  0.06734092  0.67890482  0.39313201  1  -0.633576  0.034481  2.028564  0.061  -0.582865  0.027864  2.273151  0.047  -0.618287  0.02105  2.264713  0.036  -0.312301  -0.554742  0.034951  2.27653  0.057
O  O83  1  0.93266090  0.32109418  0.60686455  1  -0.633594  0.03448  2.02852  0.061  -0.582891  0.027862  2.273032  0.047  -0.618311  0.021048  2.264608  0.036  -0.312336  -0.554771  0.034951  2.276409  0.057
O  O84  1  0.86197751  0.84304696  0.29607754  1  -0.605369  0.027721  2.006666  0.051  -0.569861  0.022582  2.260939  0.04  -0.601721  0.017074  2.252898  0.031  -0.3053  -0.544263  0.028149  2.26486  0.048
O  O85  1  0.13802876  0.15695312  0.70391704  1  -0.605387  0.027717  2.006699  0.051  -0.569899  0.022581  2.260928  0.04  -0.601761  0.017074  2.252899  0.031  -0.305368  -0.544303  0.028148  2.264849  0.048
O  O86  1  0.77573437  0.60059833  0.16713238  1  -0.631884  0.039606  2.078581  0.071  -0.596417  0.028789  2.359847  0.047  -0.633358  0.020925  2.348744  0.034  -0.322087  -0.564851  0.038273  2.36437  0.062
O  O87  1  0.22426694  0.39940286  0.83286849  1  -0.631842  0.039604  2.0786  0.071  -0.596349  0.028787  2.359851  0.047  -0.633291  0.020921  2.348764  0.034  -0.322063  -0.564783  0.038273  2.364372  0.062
O  O88  1  0.60766045  0.47891461  0.29080444  1  -0.609277  0.00105  1.924605  0.003  -0.560537  0.000903  2.130541  0.002  -0.584658  0.000372  2.119607  0.001  -0.326346  -0.542514  0.00183  2.137184  0.004
O  O89  1  0.39234060  0.52108214  0.70919674  1  -0.609259  0.001052  1.924606  0.003  -0.560521  0.000902  2.130548  0.002  -0.584644  0.000372  2.119616  0.001  -0.326364  -0.542494  0.001829  2.137195  0.004
O  O90  1  0.79314023  0.54086419  0.41763926  1  -0.835099  0.026857  1.934612  0.048  -0.795416  0.0242  2.129148  0.038  -0.823202  0.018955  2.093362  0.031  -0.580988  -0.773093  0.029341  2.154365  0.045
O  O91  1  0.20685621  0.45913814  0.58236141  1  -0.835104  0.026856  1.934589  0.048  -0.795431  0.024199  2.129137  0.038  -0.823203  0.018955  2.093346  0.031  -0.58098  -0.773104  0.02934  2.154356  0.045
