# generated using pymatgen
data_ZnH4C2(N2O)2
_symmetry_space_group_name_H-M   'P 1'
_cell_length_a   9.65861378
_cell_length_b   10.08391652
_cell_length_c   10.49150199
_cell_angle_alpha   90.00029196
_cell_angle_beta   89.99986836
_cell_angle_gamma   89.99973149
_symmetry_Int_Tables_number   1
_chemical_formula_structural   ZnH4C2(N2O)2
_chemical_formula_sum   'Zn8 H32 C16 N32 O16'
_cell_volume   1021.83719913
_cell_formula_units_Z   8
loop_
 _symmetry_equiv_pos_site_id
 _symmetry_equiv_pos_as_xyz
  1  'x, y, z'
loop_
 _atom_site_type_symbol
 _atom_site_label
 _atom_site_symmetry_multiplicity
 _atom_site_fract_x
 _atom_site_fract_y
 _atom_site_fract_z
 _atom_site_occupancy
 _atom_site_hle17_bader_spin_density
 _atom_site_hle17_ddec_charge
 _atom_site_hle17_ddec_spin_density
 _atom_site_hle17_ddec_sum_bond_order
 _atom_site_hle17_magmom
 _atom_site_hse06_10hf_bader_spin_density
 _atom_site_hse06_10hf_ddec_charge
 _atom_site_hse06_10hf_ddec_spin_density
 _atom_site_hse06_10hf_ddec_sum_bond_order
 _atom_site_hse06_10hf_magmom
 _atom_site_hse06_bader_spin_density
 _atom_site_hse06_ddec_charge
 _atom_site_hse06_ddec_spin_density
 _atom_site_hse06_ddec_sum_bond_order
 _atom_site_hse06_magmom
 _atom_site_pbe_bader_spin_density
 _atom_site_pbe_cm5_charge
 _atom_site_pbe_ddec_charge
 _atom_site_pbe_ddec_spin_density
 _atom_site_pbe_ddec_sum_bond_order
 _atom_site_pbe_magmom
Zn  Zn0  1  0.40629763  0.90087686  0.60353496  1  0  0.990615  0  1.926647  0  0  0.801148  0  2.408645  0  0  0.840974  0  2.358719  0  0  0.73376  0.773415  0  2.442182  0
Zn  Zn1  1  0.09370563  0.09912524  0.10352869  1  0  0.990638  0  1.926872  0  0  0.801245  0  2.40886  0  0  0.841059  0  2.358931  0  0  0.733824  0.77352  0  2.442394  0
Zn  Zn2  1  0.90629376  0.59912238  0.39647180  1  0  0.99067  0  1.926678  0  0  0.801244  0  2.40868  0  0  0.84106  0  2.358748  0  0  0.733811  0.773509  0  2.442212  0
Zn  Zn3  1  0.59370843  0.40087803  0.89647062  1  0  0.990606  0  1.926694  0  0  0.801193  0  2.408674  0  0  0.841008  0  2.35874  0  0  0.733787  0.773463  0  2.442207  0
Zn  Zn4  1  0.59370457  0.09912192  0.39647284  1  0  0.990676  0  1.926898  0  0  0.801275  0  2.408924  0  0  0.841083  0  2.358986  0  0  0.733841  0.773539  0  2.442453  0
Zn  Zn5  1  0.90629450  0.90087354  0.89647435  1  0  0.990635  0  1.92691  0  0  0.801265  0  2.40893  0  0  0.841076  0  2.358998  0  0  0.733825  0.773537  0  2.442458  0
Zn  Zn6  1  0.09370845  0.40087838  0.60352552  1  0  0.990734  0  1.926581  0  0  0.801295  0  2.408622  0  0  0.841106  0  2.358687  0  0  0.733844  0.773562  0  2.442146  0
Zn  Zn7  1  0.40629274  0.59912074  0.10352956  1  0  0.990682  0  1.926504  0  0  0.801268  0  2.40847  0  0  0.841086  0  2.358531  0  0  0.733789  0.773526  0  2.442002  0
H  H8  1  0.39400409  0.75389678  0.78786666  1  0  0.419798  0  0.880113  0  0  0.3836  0  0.958916  0  0  0.394885  0  0.942833  0  0  0.292601  0.375688  0  0.970191  0
H  H9  1  0.10599460  0.24610431  0.28786298  1  0  0.419716  0  0.880219  0  0  0.383616  0  0.958877  0  0  0.3949  0  0.942796  0  0  0.292599  0.375708  0  0.970145  0
H  H10  1  0.89399785  0.74610449  0.21213631  1  0  0.419728  0  0.8802  0  0  0.383581  0  0.958919  0  0  0.394865  0  0.942837  0  0  0.292586  0.375673  0  0.970186  0
H  H11  1  0.60599027  0.25389593  0.71213248  1  0  0.419811  0  0.880064  0  0  0.383607  0  0.958901  0  0  0.394888  0  0.942821  0  0  0.292611  0.375697  0  0.970172  0
H  H12  1  0.60599087  0.24610100  0.21213447  1  0  0.419823  0  0.880092  0  0  0.383619  0  0.958874  0  0  0.394901  0  0.942796  0  0  0.292617  0.375713  0  0.970139  0
H  H13  1  0.89401071  0.75388653  0.71213529  1  0  0.419703  0  0.880259  0  0  0.383625  0  0.958869  0  0  0.394907  0  0.942789  0  0  0.292607  0.375716  0  0.970139  0
H  H14  1  0.10599296  0.25389528  0.78786386  1  0  0.41976  0  0.880202  0  0  0.38354  0  0.959001  0  0  0.394821  0  0.942923  0  0  0.292584  0.37563  0  0.970271  0
H  H15  1  0.39401090  0.74609888  0.28786578  1  0  0.419872  0  0.880057  0  0  0.38366  0  0.958828  0  0  0.394943  0  0.942747  0  0  0.292636  0.375751  0  0.970097  0
H  H16  1  0.41378392  0.89848460  0.85881775  1  0  0.433157  0  0.824514  0  0  0.405903  0  0.893998  0  0  0.415053  0  0.883735  0  0  0.314285  0.399432  0  0.901213  0
H  H17  1  0.08620942  0.10151886  0.35881531  1  0  0.433206  0  0.824304  0  0  0.40595  0  0.893809  0  0  0.415099  0  0.883547  0  0  0.314311  0.399478  0  0.901025  0
H  H18  1  0.91378477  0.60151758  0.14118709  1  0  0.433203  0  0.824461  0  0  0.405967  0  0.893917  0  0  0.415115  0  0.883654  0  0  0.314306  0.399497  0  0.901132  0
H  H19  1  0.58621180  0.39848048  0.64118401  1  0  0.433168  0  0.824546  0  0  0.405924  0  0.894015  0  0  0.415071  0  0.883753  0  0  0.314331  0.399453  0  0.901229  0
H  H20  1  0.58620379  0.10151715  0.14118624  1  0  0.433229  0  0.824358  0  0  0.405985  0  0.893843  0  0  0.415131  0  0.883582  0  0  0.31432  0.399515  0  0.901059  0
H  H21  1  0.91380003  0.89847496  0.64118963  1  0  0.433274  0  0.824339  0  0  0.406039  0  0.89382  0  0  0.415186  0  0.883557  0  0  0.314347  0.399569  0  0.901036  0
H  H22  1  0.08620501  0.39848120  0.85881594  1  0  0.43322  0  0.824324  0  0  0.405968  0  0.893819  0  0  0.415117  0  0.883557  0  0  0.314306  0.399498  0  0.901034  0
H  H23  1  0.41379248  0.60151234  0.35881140  1  0  0.433165  0  0.82453  0  0  0.405912  0  0.894009  0  0  0.415059  0  0.883749  0  0  0.314263  0.399442  0  0.901223  0
H  H24  1  0.52461337  0.62628696  0.64608860  1  0  0.31605  0  0.924709  0  0  0.301214  0  0.98955  0  0  0.307948  0  0.984523  0  0  0.28946  0.296439  0  0.993097  0
H  H25  1  0.97539354  0.37371609  0.14609520  1  0  0.31613  0  0.924504  0  0  0.301323  0  0.989328  0  0  0.308058  0  0.984307  0  0  0.289415  0.296544  0  0.992881  0
H  H26  1  0.02460554  0.87371498  0.35390662  1  0  0.316213  0  0.924436  0  0  0.301393  0  0.989283  0  0  0.308127  0  0.984264  0  0  0.289391  0.296614  0  0.992838  0
H  H27  1  0.47538782  0.12628944  0.85390897  1  0  0.316183  0  0.92444  0  0  0.301342  0  0.9893  0  0  0.308076  0  0.984271  0  0  0.289449  0.296561  0  0.992864  0
H  H28  1  0.47539401  0.37371082  0.35391253  1  0  0.316133  0  0.924574  0  0  0.301299  0  0.989413  0  0  0.308032  0  0.984389  0  0  0.289428  0.296521  0  0.992967  0
H  H29  1  0.02460348  0.62628666  0.85391260  1  0  0.31611  0  0.924532  0  0  0.301305  0  0.989347  0  0  0.30804  0  0.984322  0  0  0.289432  0.296528  0  0.992896  0
H  H30  1  0.97539046  0.12628776  0.64608878  1  0  0.316184  0  0.924469  0  0  0.301342  0  0.989336  0  0  0.308075  0  0.984311  0  0  0.289447  0.296562  0  0.992894  0
H  H31  1  0.52461335  0.87371529  0.14608739  1  0  0.316165  0  0.92454  0  0  0.301332  0  0.98937  0  0  0.308064  0  0.984344  0  0  0.289468  0.296554  0  0.992923  0
H  H32  1  0.69711645  0.59451026  0.65507560  1  0  0.314795  0  0.948316  0  0  0.296662  0  1.018067  0  0  0.30469  0  1.010783  0  0  0.285699  0.290952  0  1.02323  0
H  H33  1  0.80288216  0.40548987  0.15508084  1  0  0.3149  0  0.948374  0  0  0.296727  0  1.01815  0  0  0.304756  0  1.010865  0  0  0.285707  0.291015  0  1.023315  0
H  H34  1  0.19711780  0.90549092  0.34492305  1  0  0.314909  0  0.948627  0  0  0.296799  0  1.018315  0  0  0.304825  0  1.011034  0  0  0.285726  0.291088  0  1.023478  0
H  H35  1  0.30287868  0.09451148  0.84492086  1  0  0.314936  0  0.948485  0  0  0.29678  0  1.01825  0  0  0.304808  0  1.010966  0  0  0.285732  0.291068  0  1.023414  0
H  H36  1  0.30289197  0.40549050  0.34491885  1  0  0.315001  0  0.94849  0  0  0.296797  0  1.018275  0  0  0.304826  0  1.010992  0  0  0.285761  0.291088  0  1.023436  0
H  H37  1  0.19710762  0.59451387  0.84493173  1  0  0.314911  0  0.948703  0  0  0.29674  0  1.018477  0  0  0.304768  0  1.011193  0  0  0.285749  0.291032  0  1.023639  0
H  H38  1  0.80289061  0.09450687  0.65507903  1  0  0.314919  0  0.94849  0  0  0.296698  0  1.018306  0  0  0.304725  0  1.011026  0  0  0.285727  0.290989  0  1.023468  0
H  H39  1  0.69712249  0.90549127  0.15507646  1  0  0.314915  0  0.948401  0  0  0.296737  0  1.018193  0  0  0.304767  0  1.010908  0  0  0.285692  0.291025  0  1.023358  0
C  C40  1  0.64434475  0.72186033  0.51753799  1  0  0.61073  0  3.831081  0  0  0.561813  0  4.110272  0  0  0.587655  0  4.117898  0  0  0.317012  0.544342  0  4.104871  0
C  C41  1  0.85564900  0.27813609  0.01754439  1  0  0.610602  0  3.830882  0  0  0.561665  0  4.110151  0  0  0.587501  0  4.117789  0  0  0.316928  0.544196  0  4.104747  0
C  C42  1  0.14436194  0.77813116  0.48247221  1  0  0.610446  0  3.831431  0  0  0.56171  0  4.110405  0  0  0.587522  0  4.118066  0  0  0.317067  0.544244  0  4.104998  0
C  C43  1  0.35564561  0.22184618  0.98245623  1  0  0.610546  0  3.831295  0  0  0.561671  0  4.110463  0  0  0.587513  0  4.118097  0  0  0.31699  0.5442  0  4.10506  0
C  C44  1  0.35565228  0.27814043  0.48245646  1  0  0.610761  0  3.83112  0  0  0.561757  0  4.110408  0  0  0.5876  0  4.118029  0  0  0.317004  0.544286  0  4.105007  0
C  C45  1  0.14435527  0.72185377  0.98246436  1  0  0.610538  0  3.831396  0  0  0.561725  0  4.11049  0  0  0.587545  0  4.118145  0  0  0.316967  0.544255  0  4.105087  0
C  C46  1  0.85565062  0.22185671  0.51754798  1  0  0.610845  0  3.831166  0  0  0.561905  0  4.110405  0  0  0.587753  0  4.118026  0  0  0.316989  0.544431  0  4.105009  0
C  C47  1  0.64434934  0.77813376  0.01754585  1  0  0.610942  0  3.83067  0  0  0.561875  0  4.110108  0  0  0.587718  0  4.11773  0  0  0.317004  0.544405  0  4.104707  0
C  C48  1  0.74433413  0.84321732  0.37154097  1  0  0.636195  0  3.94567  0  0  0.575276  0  4.240374  0  0  0.605581  0  4.242216  0  0  0.285251  0.554723  0  4.23878  0
C  C49  1  0.75566190  0.15678593  0.87152680  1  0  0.635919  0  3.945934  0  0  0.574931  0  4.240718  0  0  0.605236  0  4.242565  0  0  0.285008  0.55438  0  4.239117  0
C  C50  1  0.24434639  0.65678363  0.62847855  1  0  0.635602  0  3.946303  0  0  0.57482  0  4.240831  0  0  0.60514  0  4.242655  0  0  0.285006  0.554267  0  4.239233  0
C  C51  1  0.25566613  0.34321364  0.12846547  1  0  0.636034  0  3.94581  0  0  0.57513  0  4.240515  0  0  0.605432  0  4.242357  0  0  0.285087  0.554576  0  4.238921  0
C  C52  1  0.25565254  0.15679335  0.62846207  1  0  0.635983  0  3.9455  0  0  0.574953  0  4.240342  0  0  0.605267  0  4.242175  0  0  0.285036  0.554398  0  4.238745  0
C  C53  1  0.24434755  0.84321780  0.12847814  1  0  0.635846  0  3.94558  0  0  0.575121  0  4.240044  0  0  0.605441  0  4.241868  0  0  0.285135  0.554566  0  4.23845  0
C  C54  1  0.75565996  0.34322308  0.37152258  1  0  0.635939  0  3.945977  0  0  0.575209  0  4.240426  0  0  0.605518  0  4.242268  0  0  0.285114  0.554652  0  4.238833  0
C  C55  1  0.74433711  0.65678018  0.87153089  1  0  0.635949  0  3.946293  0  0  0.57507  0  4.240971  0  0  0.605371  0  4.242814  0  0  0.285084  0.554527  0  4.239361  0
N  N56  1  0.63390813  0.91163952  0.41547872  1  0  -0.450088  0  3.215015  0  0  -0.378865  0  3.535264  0  0  -0.400228  0  3.541977  0  0  -0.316912  -0.364331  0  3.530043  0
N  N57  1  0.86608469  0.08837885  0.91549161  1  0  -0.449952  0  3.214767  0  0  -0.378747  0  3.535013  0  0  -0.400115  0  3.541736  0  0  -0.316784  -0.364213  0  3.529792  0
N  N58  1  0.13391875  0.58838177  0.58452007  1  0  -0.449929  0  3.214971  0  0  -0.3788  0  3.535188  0  0  -0.400167  0  3.541901  0  0  -0.316802  -0.364265  0  3.529963  0
N  N59  1  0.36608456  0.41162816  0.08452043  1  0  -0.450052  0  3.215088  0  0  -0.378849  0  3.53534  0  0  -0.400208  0  3.542047  0  0  -0.316836  -0.364313  0  3.530121  0
N  N60  1  0.36609097  0.08838009  0.58452050  1  0  -0.449942  0  3.214339  0  0  -0.378697  0  3.534598  0  0  -0.400071  0  3.541317  0  0  -0.316723  -0.364161  0  3.52938  0
N  N61  1  0.13391027  0.91162191  0.08451809  1  0  -0.450015  0  3.214605  0  0  -0.378857  0  3.53476  0  0  -0.400233  0  3.541487  0  0  -0.316775  -0.364325  0  3.529543  0
N  N62  1  0.86609174  0.41162296  0.41548106  1  0  -0.450033  0  3.214811  0  0  -0.37887  0  3.534969  0  0  -0.400233  0  3.541681  0  0  -0.316796  -0.364333  0  3.529749  0
N  N63  1  0.63391661  0.58837360  0.91546640  1  0  -0.449898  0  3.215169  0  0  -0.378703  0  3.535367  0  0  -0.400077  0  3.542116  0  0  -0.316797  -0.364174  0  3.530149  0
N  N64  1  0.61465536  0.61524826  0.59507290  1  0  -0.728337  0  3.020178  0  0  -0.698488  0  3.259024  0  0  -0.717297  0  3.252422  0  0  -0.603033  -0.685101  0  3.26351  0
N  N65  1  0.88533407  0.38474956  0.09506069  1  0  -0.728562  0  3.020409  0  0  -0.698681  0  3.259288  0  0  -0.717493  0  3.252688  0  0  -0.603022  -0.685287  0  3.263773  0
N  N66  1  0.11467635  0.88475824  0.40493261  1  0  -0.728863  0  3.020095  0  0  -0.699079  0  3.258803  0  0  -0.717885  0  3.252204  0  0  -0.603186  -0.685688  0  3.263294  0
N  N67  1  0.38533242  0.11524347  0.90492938  1  0  -0.728536  0  3.020489  0  0  -0.6987  0  3.259343  0  0  -0.717511  0  3.252745  0  0  -0.60306  -0.685309  0  3.263829  0
N  N68  1  0.38533649  0.38475449  0.40492823  1  0  -0.728733  0  3.020543  0  0  -0.698759  0  3.259454  0  0  -0.717571  0  3.252848  0  0  -0.603117  -0.68537  0  3.263943  0
N  N69  1  0.11466917  0.61524525  0.90492614  1  0  -0.728524  0  3.0206  0  0  -0.698699  0  3.259396  0  0  -0.717504  0  3.252798  0  0  -0.603093  -0.685309  0  3.263882  0
N  N70  1  0.88533207  0.11525243  0.59506757  1  0  -0.72858  0  3.020676  0  0  -0.698614  0  3.259594  0  0  -0.717427  0  3.252994  0  0  -0.603028  -0.685225  0  3.264084  0
N  N71  1  0.61466357  0.88475530  0.09506888  1  0  -0.728662  0  3.020204  0  0  -0.698703  0  3.259081  0  0  -0.717513  0  3.252476  0  0  -0.603055  -0.685315  0  3.26357  0
N  N72  1  0.57179784  0.83448338  0.51054221  1  0  -0.422087  0  3.199086  0  0  -0.353517  0  3.504847  0  0  -0.373169  0  3.513971  0  0  -0.30036  -0.34023  0  3.49795  0
N  N73  1  0.92821249  0.16551101  0.01055457  1  0  -0.422088  0  3.198836  0  0  -0.353521  0  3.504614  0  0  -0.373164  0  3.513732  0  0  -0.300498  -0.340237  0  3.497717  0
N  N74  1  0.07179692  0.66551340  0.48945005  1  0  -0.421934  0  3.199053  0  0  -0.353415  0  3.504758  0  0  -0.373053  0  3.513888  0  0  -0.3004  -0.340129  0  3.497852  0
N  N75  1  0.42820543  0.33448481  0.98945637  1  0  -0.421987  0  3.19883  0  0  -0.353432  0  3.504561  0  0  -0.373083  0  3.513688  0  0  -0.300336  -0.34014  0  3.497655  0
N  N76  1  0.42820954  0.16551738  0.48944748  1  0  -0.422123  0  3.198727  0  0  -0.353534  0  3.50452  0  0  -0.37318  0  3.513636  0  0  -0.300434  -0.340246  0  3.497617  0
N  N77  1  0.07178557  0.83448677  0.98944655  1  0  -0.421988  0  3.19864  0  0  -0.35347  0  3.504403  0  0  -0.373113  0  3.513528  0  0  -0.300416  -0.340181  0  3.497503  0
N  N78  1  0.92820425  0.33448340  0.51055394  1  0  -0.422178  0  3.198803  0  0  -0.353597  0  3.504584  0  0  -0.373247  0  3.513703  0  0  -0.300445  -0.340308  0  3.49768  0
N  N79  1  0.57181023  0.66551794  0.01054285  1  0  -0.422206  0  3.199149  0  0  -0.353567  0  3.504952  0  0  -0.373217  0  3.514068  0  0  -0.30039  -0.340278  0  3.49805  0
N  N80  1  0.75284385  0.72390371  0.43506541  1  0  -0.650681  0  3.14869  0  0  -0.565038  0  3.447136  0  0  -0.59167  0  3.447082  0  0  -0.39515  -0.546823  0  3.446895  0
N  N81  1  0.74714064  0.27609592  0.93506614  1  0  -0.65054  0  3.148376  0  0  -0.564838  0  3.446825  0  0  -0.591467  0  3.446777  0  0  -0.394955  -0.546622  0  3.446581  0
N  N82  1  0.25284325  0.77610316  0.56493121  1  0  -0.650291  0  3.148839  0  0  -0.56473  0  3.447128  0  0  -0.591362  0  3.447094  0  0  -0.395078  -0.546516  0  3.446881  0
N  N83  1  0.24714975  0.22389973  0.06492806  1  0  -0.650528  0  3.148704  0  0  -0.5649  0  3.447119  0  0  -0.591531  0  3.447071  0  0  -0.395061  -0.546684  0  3.446879  0
N  N84  1  0.24716146  0.27610597  0.56492618  1  0  -0.650542  0  3.148578  0  0  -0.564825  0  3.447053  0  0  -0.591458  0  3.446993  0  0  -0.395048  -0.546607  0  3.446809  0
N  N85  1  0.25283154  0.72389790  0.06492260  1  0  -0.650593  0  3.148751  0  0  -0.565051  0  3.447128  0  0  -0.591678  0  3.447072  0  0  -0.395141  -0.546833  0  3.446884  0
N  N86  1  0.74715274  0.22390554  0.43506801  1  0  -0.650756  0  3.148411  0  0  -0.565192  0  3.446858  0  0  -0.591825  0  3.4468  0  0  -0.395108  -0.546973  0  3.446616  0
N  N87  1  0.75285660  0.77610996  0.93506068  1  0  -0.65075  0  3.147921  0  0  -0.565099  0  3.446479  0  0  -0.591731  0  3.446423  0  0  -0.395111  -0.546884  0  3.446236  0
O  O88  1  0.44318277  0.84243965  0.78762282  1  0  -0.794056  0  1.92936  0  0  -0.720115  0  2.156021  0  0  -0.741288  0  2.124678  0  0  -0.563776  -0.705464  0  2.177576  0
O  O89  1  0.05681695  0.15756938  0.28761310  1  0  -0.79403  0  1.929306  0  0  -0.720197  0  2.15596  0  0  -0.741361  0  2.124595  0  0  -0.563819  -0.705547  0  2.177514  0
O  O90  1  0.94317594  0.65755942  0.21238100  1  0  -0.794063  0  1.929388  0  0  -0.720182  0  2.156079  0  0  -0.74135  0  2.12473  0  0  -0.563819  -0.705531  0  2.177629  0
O  O91  1  0.55681011  0.34243704  0.71237486  1  0  -0.794111  0  1.929263  0  0  -0.720202  0  2.155962  0  0  -0.74137  0  2.124621  0  0  -0.563869  -0.705549  0  2.177512  0
O  O92  1  0.55681115  0.15756111  0.21238212  1  0  -0.794187  0  1.929203  0  0  -0.720258  0  2.155925  0  0  -0.741423  0  2.12458  0  0  -0.563851  -0.705609  0  2.177473  0
O  O93  1  0.94318836  0.84242345  0.71238708  1  0  -0.794115  0  1.929405  0  0  -0.720311  0  2.155946  0  0  -0.741479  0  2.124597  0  0  -0.563846  -0.705661  0  2.177502  0
O  O94  1  0.05681385  0.34243836  0.78761345  1  0  -0.794152  0  1.929215  0  0  -0.720222  0  2.155976  0  0  -0.741393  0  2.124628  0  0  -0.563829  -0.705567  0  2.177526  0
O  O95  1  0.44319002  0.65755579  0.28762341  1  0  -0.794152  0  1.9293  0  0  -0.720217  0  2.156049  0  0  -0.741381  0  2.124692  0  0  -0.563812  -0.705566  0  2.177598  0
O  O96  1  0.82687291  0.88029178  0.28177212  1  0  -0.67609  0  1.955042  0  0  -0.609639  0  2.171103  0  0  -0.633171  0  2.160394  0  0  -0.338846  -0.59309  0  2.178051  0
O  O97  1  0.67311402  0.11969910  0.78177511  1  0  -0.675991  0  1.955081  0  0  -0.60947  0  2.171195  0  0  -0.633  0  2.160483  0  0  -0.338744  -0.592918  0  2.178141  0
O  O98  1  0.32687478  0.61971079  0.71823100  1  0  -0.675745  0  1.95578  0  0  -0.609295  0  2.171795  0  0  -0.632832  0  2.161078  0  0  -0.33865  -0.592745  0  2.178743  0
O  O99  1  0.17312614  0.38029092  0.21822116  1  0  -0.676061  0  1.955234  0  0  -0.609647  0  2.171307  0  0  -0.633176  0  2.160586  0  0  -0.338832  -0.59311  0  2.178285  0
O  O100  1  0.17311687  0.11971295  0.71822900  1  0  -0.676058  0  1.955134  0  0  -0.609478  0  2.171173  0  0  -0.633  0  2.160442  0  0  -0.338778  -0.59294  0  2.178155  0
O  O101  1  0.32688819  0.88029274  0.21823459  1  0  -0.675804  0  1.955426  0  0  -0.609421  0  2.17144  0  0  -0.63295  0  2.160714  0  0  -0.338744  -0.592874  0  2.178397  0
O  O102  1  0.67311914  0.38029889  0.28176250  1  0  -0.675868  0  1.955329  0  0  -0.609472  0  2.171343  0  0  -0.633012  0  2.160648  0  0  -0.338753  -0.59292  0  2.17829  0
O  O103  1  0.82687296  0.61971083  0.78178474  1  0  -0.675958  0  1.95577  0  0  -0.609587  0  2.171862  0  0  -0.633107  0  2.161136  0  0  -0.338838  -0.593058  0  2.178846  0
