# generated using pymatgen
data_ZnH18C22N4O5
_symmetry_space_group_name_H-M   'P 1'
_cell_length_a   9.95539239
_cell_length_b   10.97244468
_cell_length_c   11.70229523
_cell_angle_alpha   103.79517998
_cell_angle_beta   114.37588046
_cell_angle_gamma   106.86560547
_symmetry_Int_Tables_number   1
_chemical_formula_structural   ZnH18C22N4O5
_chemical_formula_sum   'Zn2 H36 C44 N8 O10'
_cell_volume   1015.84468437
_cell_formula_units_Z   2
loop_
 _symmetry_equiv_pos_site_id
 _symmetry_equiv_pos_as_xyz
  1  'x, y, z'
loop_
 _atom_site_type_symbol
 _atom_site_label
 _atom_site_symmetry_multiplicity
 _atom_site_fract_x
 _atom_site_fract_y
 _atom_site_fract_z
 _atom_site_occupancy
 _atom_site_pbe_bader_spin_density
 _atom_site_pbe_cm5_charge
 _atom_site_pbe_ddec_charge
 _atom_site_pbe_ddec_spin_density
 _atom_site_pbe_ddec_sum_bond_order
 _atom_site_pbe_magmom
Zn  Zn0  1  0.44249389  0.58686130  0.62153473  1  0  0.685483  0.81739  0  2.348257  0
Zn  Zn1  1  0.55750821  0.41313836  0.37846576  1  0  0.685479  0.817378  0  2.34829  0
H  H2  1  0.01211467  0.61318210  0.63167571  1  0  0.107719  0.12441  0  1.009737  0
H  H3  1  0.98788523  0.38681969  0.36832024  1  0  0.107687  0.124378  0  1.009777  0
H  H4  1  0.94419488  0.85629539  0.93353118  1  0  0.110982  0.132972  0  1.021162  0
H  H5  1  0.05580337  0.14370328  0.06646605  1  0  0.110992  0.132962  0  1.021183  0
H  H6  1  0.43193908  0.92112825  0.02400161  1  0  0.103266  0.116471  0  1.047251  0
H  H7  1  0.56805973  0.07887146  0.97599690  1  0  0.103272  0.11647  0  1.047284  0
H  H8  1  0.69291539  0.55106737  0.86439476  1  0  0.114869  0.088878  0  1.019218  0
H  H9  1  0.30708456  0.44893232  0.13560926  1  0  0.114873  0.088889  0  1.019187  0
H  H10  1  0.69137492  0.41610484  0.01118525  1  0  0.106922  0.113291  0  0.992668  0
H  H11  1  0.30862503  0.58389485  0.98881878  1  0  0.106939  0.113333  0  0.992654  0
H  H12  1  0.42341092  0.24626039  0.95862247  1  0  0.107052  0.11579  0  1.048468  0
H  H13  1  0.57658734  0.75373828  0.04137647  1  0  0.107046  0.115819  0  1.048455  0
H  H14  1  0.18684796  0.34931040  0.61691257  1  0  0.123104  0.100463  0  1.002409  0
H  H15  1  0.81315360  0.65069032  0.38308798  1  0  0.123099  0.100465  0  1.002388  0
H  H16  1  0.98094945  0.08105220  0.82301436  1  0  0.099563  0.148736  0  1.036712  0
H  H17  1  0.01905102  0.91894643  0.17698790  1  0  0.099576  0.148732  0  1.036726  0
H  H18  1  0.18025550  0.22248197  0.95218522  1  0  0.094875  0.139641  0  1.01531  0
H  H19  1  0.81974497  0.77751666  0.04781704  1  0  0.09489  0.139665  0  1.015299  0
H  H20  1  0.16180750  0.05894752  0.86377154  1  0  0.10185  0.156626  0  1.000414  0
H  H21  1  0.83819352  0.94105216  0.13623029  1  0  0.101813  0.156572  0  1.00034  0
H  H22  1  0.67518680  0.12573354  0.37133487  1  0  0.097488  0.147786  0  1.017729  0
H  H23  1  0.32481257  0.87426722  0.62866407  1  0  0.097497  0.147807  0  1.01771  0
H  H24  1  0.65135279  0.96925662  0.26070192  1  0  0.090982  0.133496  0  1.026007  0
H  H25  1  0.34864989  0.03074408  0.73930072  1  0  0.090994  0.133521  0  1.026013  0
H  H26  1  0.85267384  0.10602259  0.39023971  1  0  0.100119  0.151229  0  1.016396  0
H  H27  1  0.14732721  0.89397919  0.60976346  1  0  0.100127  0.15121  0  1.016422  0
H  H28  1  0.69146066  0.83355182  0.61030255  1  0  0.121611  0.094416  0  1.027874  0
H  H29  1  0.30853767  0.16645106  0.38969993  1  0  0.121628  0.094446  0  1.027933  0
H  H30  1  0.18476564  0.60659258  0.38387807  1  0  0.119563  0.092359  0  0.99922  0
H  H31  1  0.81523258  0.39340398  0.61611781  1  0  0.119576  0.092386  0  0.999149  0
H  H32  1  0.15809399  0.72687484  0.22359819  1  0  0.113258  0.12303  0  0.975692  0
H  H33  1  0.84190643  0.27312379  0.77639892  1  0  0.113257  0.123008  0  0.975744  0
H  H34  1  0.41003114  0.90380629  0.25878752  1  0  0.107527  0.108635  0  1.031895  0
H  H35  1  0.58996822  0.09619447  0.74121057  1  0  0.107548  0.108655  0  1.031856  0
H  H36  1  0.35844244  0.08263520  0.14136945  1  0  0.298555  0.358281  0  0.98728  0
H  H37  1  0.64155745  0.91736238  0.85863066  1  0  0.298556  0.358274  0  0.98725  0
C  C38  1  0.34566955  0.73133367  0.78023088  1  0  0.205602  0.567224  0  4.212283  0
C  C39  1  0.65432815  0.26866395  0.21976678  1  0  0.205637  0.567379  0  4.212211  0
C  C40  1  0.23325813  0.76145564  0.82491161  1  0  -0.025285  -0.021921  0  4.017548  0
C  C41  1  0.76674012  0.23854514  0.17508439  1  0  -0.025318  -0.022086  0  4.017653  0
C  C42  1  0.06330751  0.69089694  0.73440710  1  0  -0.090643  -0.138681  0  3.952448  0
C  C43  1  0.93669240  0.30910486  0.26558970  1  0  -0.090583  -0.138547  0  3.952489  0
C  C44  1  0.96027390  0.72386317  0.77568353  1  0  -0.022825  -0.027806  0  4.021523  0
C  C45  1  0.03972492  0.27613864  0.22431289  1  0  -0.022831  -0.02785  0  4.021538  0
C  C46  1  0.02557641  0.82697960  0.90580023  1  0  -0.091662  -0.204885  0  3.906975  0
C  C47  1  0.97442348  0.17302009  0.09419694  1  0  -0.091689  -0.204922  0  3.906987  0
C  C48  1  0.19590675  0.89985295  0.99562734  1  0  0.076807  0.309348  0  4.093614  0
C  C49  1  0.80409369  0.10014568  0.00437149  1  0  0.07685  0.309497  0  4.093412  0
C  C50  1  0.29929369  0.86504243  0.95540313  1  0  -0.100357  -0.23759  0  3.951649  0
C  C51  1  0.70070568  0.13495832  0.04459495  1  0  -0.100361  -0.237588  0  3.951619  0
C  C52  1  0.77900566  0.65291111  0.67680170  1  0  0.219468  0.583548  0  4.19304  0
C  C53  1  0.22099371  0.34708964  0.32319724  1  0  0.219477  0.583551  0  4.193045  0
C  C54  1  0.57928903  0.47355259  0.84442650  1  0  0.04431  0.086658  0  3.94104  0
C  C55  1  0.42071255  0.52644813  0.15557662  1  0  0.044327  0.0867  0  3.941117  0
C  C56  1  0.57698140  0.39889765  0.92490328  1  0  -0.088519  -0.129304  0  4.002925  0
C  C57  1  0.42301909  0.60110309  0.07510032  1  0  -0.088513  -0.129394  0  4.00303  0
C  C58  1  0.42675132  0.30319895  0.89428838  1  0  -0.067702  -0.073679  0  3.922574  0
C  C59  1  0.57324973  0.69680284  0.10571394  1  0  -0.06769  -0.073648  0  3.922539  0
C  C60  1  0.28155648  0.28119845  0.78054299  1  0  -0.004093  -0.025217  0  3.970598  0
C  C61  1  0.71844400  0.71880229  0.21945804  1  0  -0.004123  -0.025262  0  3.970656  0
C  C62  1  0.29571289  0.36111334  0.70494664  1  0  0.06017  0.073949  0  3.872084  0
C  C63  1  0.70428816  0.63888844  0.29505653  1  0  0.060186  0.073962  0  3.872076  0
C  C64  1  0.12059963  0.17771982  0.74328270  1  0  0.147405  0.268628  0  3.923684  0
C  C65  1  0.87940032  0.82228198  0.25672010  1  0  0.147393  0.268574  0  3.92377  0
C  C66  1  0.10871955  0.13342067  0.85154386  1  0  -0.243807  -0.469481  0  3.925002  0
C  C67  1  0.89128256  0.86657899  0.14845835  1  0  -0.243801  -0.469459  0  3.924884  0
C  C68  1  0.72863817  0.98941574  0.46788191  1  0  0.147591  0.266058  0  3.929837  0
C  C69  1  0.27136122  0.01058501  0.53211960  1  0  0.147579  0.266032  0  3.929911  0
C  C70  1  0.72737132  0.05035464  0.36625140  1  0  -0.243523  -0.463428  0  3.931787  0
C  C71  1  0.27262973  0.94964714  0.63375091  1  0  -0.243564  -0.46347  0  3.93184  0
C  C72  1  0.57376739  0.88182598  0.43734200  1  0  -0.001296  -0.020474  0  3.949217  0
C  C73  1  0.42623149  0.11817794  0.56266005  1  0  -0.001297  -0.020461  0  3.949218  0
C  C74  1  0.57527223  0.80962699  0.52207623  1  0  0.060943  0.079863  0  3.876694  0
C  C75  1  0.42472551  0.19037484  0.47792239  1  0  0.060948  0.079844  0  3.876773  0
C  C76  1  0.29221860  0.68398420  0.39495297  1  0  0.044559  0.087195  0  3.937642  0
C  C77  1  0.70777690  0.31601346  0.60504308  1  0  0.044523  0.087118  0  3.937628  0
C  C78  1  0.27864931  0.75069310  0.30653276  1  0  -0.082766  -0.121599  0  3.987434  0
C  C79  1  0.72135113  0.24930764  0.69346399  1  0  -0.082763  -0.121592  0  3.987474  0
C  C80  1  0.42063291  0.84974982  0.32672251  1  0  -0.063679  -0.064418  0  3.919104  0
C  C81  1  0.57936428  0.15025097  0.67327654  1  0  -0.063704  -0.064428  0  3.918996  0
N  N82  1  0.44078214  0.45572786  0.73698588  1  0  -0.31754  -0.228349  0  3.507205  0
N  N83  1  0.55921998  0.54427180  0.26301633  1  0  -0.317586  -0.228388  0  3.50722  0
N  N84  1  0.00062134  0.12904231  0.61637683  1  0  -0.209051  -0.214691  0  3.287539  0
N  N85  1  0.99937752  0.87095951  0.38362560  1  0  -0.209062  -0.214641  0  3.287556  0
N  N86  1  0.85706280  0.02705350  0.58711042  1  0  -0.20833  -0.213878  0  3.313616  0
N  N87  1  0.14293608  0.97295043  0.41289249  1  0  -0.2083  -0.213859  0  3.313577  0
N  N88  1  0.43927985  0.71234356  0.50078063  1  0  -0.318485  -0.240792  0  3.527461  0
N  N89  1  0.56071569  0.28765620  0.49921762  1  0  -0.318459  -0.240692  0  3.527389  0
O  O90  1  0.27839458  0.63463315  0.66034024  1  0  -0.319294  -0.540873  0  2.324056  0
O  O91  1  0.72160255  0.36536343  0.33965613  1  0  -0.319284  -0.540887  0  2.324022  0
O  O92  1  0.49967014  0.80170368  0.86129745  1  0  -0.322155  -0.574739  0  2.25084  0
O  O93  1  0.50033027  0.19829074  0.13870299  1  0  -0.322179  -0.574815  0  2.250846  0
O  O94  1  0.72894693  0.58791137  0.55123243  1  0  -0.315629  -0.559106  0  2.451643  0
O  O95  1  0.27105187  0.41208834  0.44876437  1  0  -0.315619  -0.559082  0  2.451687  0
O  O96  1  0.68848437  0.66555371  0.72630471  1  0  -0.309648  -0.54027  0  2.409684  0
O  O97  1  0.31151662  0.33444596  0.27369370  1  0  -0.309649  -0.540269  0  2.409613  0
O  O98  1  0.25549261  0.00456374  0.11897009  1  0  -0.365356  -0.475205  0  2.302637  0
O  O99  1  0.74450454  0.99543283  0.88102885  1  0  -0.365397  -0.475271  0  2.302533  0
