# generated using pymatgen
data_CdH14C14(N2O)6
_symmetry_space_group_name_H-M   'P 1'
_cell_length_a   7.12477868
_cell_length_b   9.65736034
_cell_length_c   13.91163880
_cell_angle_alpha   90.00003690
_cell_angle_beta   100.50455858
_cell_angle_gamma   89.99962476
_symmetry_Int_Tables_number   1
_chemical_formula_structural   CdH14C14(N2O)6
_chemical_formula_sum   'Cd2 H28 C28 N24 O12'
_cell_volume   941.16945726
_cell_formula_units_Z   2
loop_
 _symmetry_equiv_pos_site_id
 _symmetry_equiv_pos_as_xyz
  1  'x, y, z'
loop_
 _atom_site_type_symbol
 _atom_site_label
 _atom_site_symmetry_multiplicity
 _atom_site_fract_x
 _atom_site_fract_y
 _atom_site_fract_z
 _atom_site_occupancy
 _atom_site_hle17_bader_spin_density
 _atom_site_hle17_ddec_charge
 _atom_site_hle17_ddec_spin_density
 _atom_site_hle17_ddec_sum_bond_order
 _atom_site_hle17_magmom
 _atom_site_hse06_10hf_bader_spin_density
 _atom_site_hse06_10hf_ddec_charge
 _atom_site_hse06_10hf_ddec_spin_density
 _atom_site_hse06_10hf_ddec_sum_bond_order
 _atom_site_hse06_10hf_magmom
 _atom_site_hse06_bader_spin_density
 _atom_site_hse06_ddec_charge
 _atom_site_hse06_ddec_spin_density
 _atom_site_hse06_ddec_sum_bond_order
 _atom_site_hse06_magmom
 _atom_site_pbe_bader_spin_density
 _atom_site_pbe_cm5_charge
 _atom_site_pbe_ddec_charge
 _atom_site_pbe_ddec_spin_density
 _atom_site_pbe_ddec_sum_bond_order
 _atom_site_pbe_magmom
Cd  Cd0  1  0.49999866  0.50000211  0.49999764  1  0  1.194277  0  1.634318  0  0  1.008467  0  2.086746  0  0  1.063049  0  2.031499  0  0  0.779073  0.9705  0  2.123714  0
Cd  Cd1  1  0.50000155  0.99999876  0.00000072  1  0  1.194272  0  1.634342  0  0  1.008477  0  2.08677  0  0  1.063062  0  2.031516  0  0  0.77906  0.970513  0  2.123745  0
H  H2  1  0.64018110  0.29040704  0.07604403  1  0  0.103081  0  0.946211  0  0  0.109593  0  1.011156  0  0  0.112973  0  1.008174  0  0  0.124015  0.106976  0  1.01367  0
H  H3  1  0.35981674  0.79040786  0.42395185  1  0  0.103144  0  0.946184  0  0  0.109644  0  1.011142  0  0  0.113023  0  1.008162  0  0  0.124034  0.107029  0  1.013655  0
H  H4  1  0.35982329  0.70958890  0.92395768  1  0  0.103124  0  0.946272  0  0  0.109626  0  1.011198  0  0  0.113006  0  1.008217  0  0  0.124035  0.107015  0  1.013708  0
H  H5  1  0.64018482  0.20959533  0.57604743  1  0  0.103173  0  0.946147  0  0  0.109636  0  1.011139  0  0  0.113014  0  1.00816  0  0  0.124038  0.107019  0  1.013654  0
H  H6  1  0.07751065  0.16535808  0.99338388  1  0  0.112021  0  0.970208  0  0  0.116217  0  1.035857  0  0  0.120239  0  1.032632  0  0  0.121944  0.11325  0  1.038249  0
H  H7  1  0.92248791  0.66535892  0.50661597  1  0  0.112028  0  0.970206  0  0  0.116244  0  1.035847  0  0  0.120263  0  1.032626  0  0  0.121966  0.113281  0  1.03823  0
H  H8  1  0.92249377  0.83463683  0.00661567  1  0  0.112076  0  0.970177  0  0  0.116267  0  1.035821  0  0  0.120289  0  1.032599  0  0  0.121983  0.113304  0  1.038209  0
H  H9  1  0.07751366  0.33464324  0.49338258  1  0  0.112002  0  0.970257  0  0  0.116223  0  1.035878  0  0  0.120242  0  1.032656  0  0  0.121958  0.11326  0  1.038258  0
H  H10  1  0.96767148  0.39388483  0.05430798  1  0  0.080924  0  0.962608  0  0  0.082142  0  1.038043  0  0  0.085338  0  1.035977  0  0  0.112571  0.07983  0  1.039544  0
H  H11  1  0.03232679  0.89388724  0.44569446  1  0  0.080913  0  0.962588  0  0  0.08213  0  1.038035  0  0  0.085325  0  1.035971  0  0  0.112574  0.079823  0  1.039534  0
H  H12  1  0.03233006  0.60610697  0.94569346  1  0  0.080869  0  0.962759  0  0  0.082098  0  1.038187  0  0  0.085294  0  1.036121  0  0  0.112593  0.079786  0  1.039693  0
H  H13  1  0.96767475  0.10611699  0.55430697  1  0  0.080922  0  0.962575  0  0  0.082143  0  1.038036  0  0  0.085341  0  1.035969  0  0  0.112561  0.079832  0  1.039539  0
H  H14  1  0.05833986  0.75565057  0.26656842  1  0  0.131148  0  0.922694  0  0  0.138698  0  0.990158  0  0  0.141415  0  0.98845  0  0  0.125755  0.136668  0  0.991636  0
H  H15  1  0.94164970  0.25565362  0.23343096  1  0  0.131173  0  0.922603  0  0  0.138737  0  0.990106  0  0  0.141454  0  0.988396  0  0  0.125765  0.136722  0  0.991557  0
H  H16  1  0.94165168  0.24435263  0.73343278  1  0  0.131168  0  0.922626  0  0  0.138744  0  0.990074  0  0  0.14146  0  0.988365  0  0  0.125773  0.13672  0  0.991544  0
H  H17  1  0.05834475  0.74434439  0.76656548  1  0  0.131132  0  0.922612  0  0  0.138714  0  0.990068  0  0  0.141433  0  0.98836  0  0  0.125769  0.136696  0  0.991531  0
H  H18  1  0.11036830  0.62228891  0.18592666  1  0  0.130265  0  0.961553  0  0  0.132786  0  1.036128  0  0  0.13657  0  1.03266  0  0  0.12177  0.130214  0  1.038358  0
H  H19  1  0.88962393  0.12229022  0.31406931  1  0  0.130158  0  0.961621  0  0  0.132722  0  1.036176  0  0  0.136503  0  1.03271  0  0  0.121757  0.130149  0  1.038405  0
H  H20  1  0.88962756  0.37772050  0.81407135  1  0  0.130195  0  0.96156  0  0  0.132728  0  1.03614  0  0  0.136512  0  1.032669  0  0  0.121751  0.130151  0  1.038378  0
H  H21  1  0.11037476  0.87771401  0.68593113  1  0  0.130185  0  0.961614  0  0  0.132739  0  1.036157  0  0  0.136521  0  1.032695  0  0  0.121766  0.130166  0  1.038389  0
H  H22  1  0.80116044  0.41368272  0.38869090  1  0  0.438735  0  0.860276  0  0  0.405131  0  0.927937  0  0  0.416759  0  0.910993  0  0  0.287882  0.396887  0  0.93995  0
H  H23  1  0.19883770  0.91368610  0.11130649  1  0  0.438822  0  0.860185  0  0  0.405228  0  0.927822  0  0  0.416855  0  0.910878  0  0  0.287939  0.396987  0  0.939831  0
H  H24  1  0.19883827  0.58631840  0.61130810  1  0  0.438735  0  0.860274  0  0  0.405127  0  0.927942  0  0  0.416755  0  0.910999  0  0  0.287885  0.396884  0  0.939952  0
H  H25  1  0.80116384  0.08631296  0.88869422  1  0  0.4388  0  0.860207  0  0  0.40522  0  0.927832  0  0  0.416848  0  0.910887  0  0  0.287922  0.396972  0  0.939854  0
H  H26  1  0.63089947  0.30050313  0.36886670  1  0  0.394729  0  0.918342  0  0  0.354592  0  0.998312  0  0  0.365445  0  0.982622  0  0  0.283248  0.347039  0  1.009143  0
H  H27  1  0.36909680  0.80050363  0.13113550  1  0  0.394756  0  0.918321  0  0  0.354578  0  0.998328  0  0  0.365429  0  0.98264  0  0  0.28322  0.347026  0  1.009159  0
H  H28  1  0.36909780  0.69949903  0.63113289  1  0  0.394705  0  0.918377  0  0  0.354551  0  0.998356  0  0  0.365402  0  0.982668  0  0  0.2832  0.346997  0  1.009189  0
H  H29  1  0.63090332  0.19949646  0.86886580  1  0  0.394766  0  0.918295  0  0  0.354616  0  0.998275  0  0  0.365467  0  0.982586  0  0  0.283232  0.347063  0  1.009105  0
C  C30  1  0.42877323  0.43973409  0.10612913  1  0  0.109713  0  3.787977  0  0  0.115372  0  4.038339  0  0  0.115987  0  4.057769  0  0  0.130491  0.114622  0  4.025253  0
C  C31  1  0.57122323  0.93973696  0.39386956  1  0  0.109709  0  3.787941  0  0  0.115397  0  4.03829  0  0  0.11601  0  4.057729  0  0  0.130563  0.114646  0  4.025201  0
C  C32  1  0.57123402  0.56026186  0.89387213  1  0  0.109657  0  3.7882  0  0  0.115319  0  4.038547  0  0  0.115934  0  4.057979  0  0  0.130529  0.114568  0  4.02546  0
C  C33  1  0.42877547  0.06026727  0.60613016  1  0  0.109562  0  3.788079  0  0  0.115261  0  4.038422  0  0  0.115874  0  4.057862  0  0  0.130489  0.114504  0  4.025338  0
C  C34  1  0.48971249  0.31416648  0.07154623  1  0  0.07447  0  3.64475  0  0  0.034552  0  3.895687  0  0  0.038646  0  3.912539  0  0  0.060536  0.031221  0  3.885401  0
C  C35  1  0.51028228  0.81416762  0.42845008  1  0  0.074473  0  3.644522  0  0  0.034519  0  3.89552  0  0  0.03863  0  3.912337  0  0  0.060532  0.031187  0  3.885248  0
C  C36  1  0.51028193  0.68582843  0.92845236  1  0  0.074506  0  3.644504  0  0  0.034625  0  3.895404  0  0  0.038729  0  3.912235  0  0  0.060544  0.031289  0  3.88513  0
C  C37  1  0.48971928  0.18583558  0.57154920  1  0  0.074445  0  3.644586  0  0  0.034521  0  3.89559  0  0  0.038639  0  3.912396  0  0  0.060504  0.031189  0  3.885316  0
C  C38  1  0.17766007  0.24481182  0.02628708  1  0  0.086787  0  3.637717  0  0  0.050994  0  3.897116  0  0  0.055588  0  3.913187  0  0  0.052383  0.047844  0  3.88678  0
C  C39  1  0.82233817  0.74481357  0.47371097  1  0  0.086703  0  3.637711  0  0  0.050842  0  3.897219  0  0  0.055451  0  3.913268  0  0  0.052286  0.047691  0  3.886884  0
C  C40  1  0.82233864  0.75518205  0.97371192  1  0  0.08665  0  3.637956  0  0  0.050882  0  3.897349  0  0  0.055475  0  3.913423  0  0  0.052312  0.047733  0  3.887011  0
C  C41  1  0.17766337  0.25519170  0.52628975  1  0  0.086794  0  3.637785  0  0  0.050997  0  3.89722  0  0  0.055587  0  3.9133  0  0  0.052366  0.047848  0  3.886882  0
C  C42  1  0.11914359  0.37128236  0.05938734  1  0  0.073129  0  3.70027  0  0  0.047812  0  3.971591  0  0  0.047769  0  3.988616  0  0  0.053948  0.047678  0  3.960017  0
C  C43  1  0.88085206  0.87128275  0.44061196  1  0  0.073209  0  3.700222  0  0  0.0479  0  3.971592  0  0  0.047854  0  3.988626  0  0  0.053996  0.047759  0  3.960022  0
C  C44  1  0.88086081  0.62871463  0.94061365  1  0  0.073295  0  3.700104  0  0  0.047953  0  3.971445  0  0  0.047911  0  3.988472  0  0  0.053939  0.047822  0  3.959874  0
C  C45  1  0.11914805  0.12872251  0.55938934  1  0  0.073172  0  3.700259  0  0  0.047814  0  3.971648  0  0  0.047773  0  3.988674  0  0  0.053981  0.047679  0  3.960077  0
C  C46  1  0.57103983  0.53981598  0.15280303  1  0  0.235942  0  3.768473  0  0  0.210343  0  4.045306  0  0  0.218073  0  4.061779  0  0  0.227553  0.205178  0  4.034178  0
C  C47  1  0.42895596  0.03981850  0.34719684  1  0  0.23591  0  3.768448  0  0  0.21027  0  4.045337  0  0  0.217996  0  4.061819  0  0  0.227486  0.205113  0  4.034203  0
C  C48  1  0.42895599  0.46018100  0.84719929  1  0  0.235942  0  3.768456  0  0  0.210293  0  4.045372  0  0  0.21802  0  4.061848  0  0  0.227521  0.205139  0  4.034233  0
C  C49  1  0.57104416  0.96018366  0.65280373  1  0  0.236068  0  3.76838  0  0  0.210432  0  4.045251  0  0  0.218157  0  4.061735  0  0  0.227578  0.205284  0  4.034108  0
C  C50  1  0.03608529  0.64625115  0.24664746  1  0  -0.226827  0  3.581854  0  0  -0.281665  0  3.832238  0  0  -0.283904  0  3.836492  0  0  -0.052789  -0.280062  0  3.829532  0
C  C51  1  0.96390814  0.14625308  0.25334936  1  0  -0.226722  0  3.58176  0  0  -0.281631  0  3.832279  0  0  -0.283891  0  3.836593  0  0  -0.052852  -0.280043  0  3.82955  0
C  C52  1  0.96391057  0.35375308  0.75335127  1  0  -0.226757  0  3.581797  0  0  -0.281628  0  3.832272  0  0  -0.28387  0  3.836539  0  0  -0.052819  -0.280026  0  3.829566  0
C  C53  1  0.03609056  0.85374597  0.74665036  1  0  -0.226716  0  3.581754  0  0  -0.281599  0  3.832234  0  0  -0.283837  0  3.83649  0  0  -0.052842  -0.280009  0  3.829516  0
C  C54  1  0.12050440  0.55193536  0.33352166  1  0  0.700067  0  3.894982  0  0  0.649921  0  4.202524  0  0  0.683332  0  4.195558  0  0  0.209716  0.627181  0  4.206529  0
C  C55  1  0.87948990  0.05193969  0.16647376  1  0  0.700075  0  3.895174  0  0  0.649821  0  4.202933  0  0  0.683234  0  4.19596  0  0  0.209592  0.627084  0  4.20694  0
C  C56  1  0.87949147  0.44806473  0.66647563  1  0  0.700156  0  3.894976  0  0  0.64994  0  4.202661  0  0  0.683352  0  4.195691  0  0  0.209689  0.627189  0  4.206683  0
C  C57  1  0.12050879  0.94805418  0.83352740  1  0  0.699972  0  3.895405  0  0  0.649718  0  4.203143  0  0  0.683132  0  4.196177  0  0  0.209575  0.62698  0  4.207151  0
N  N58  1  0.36423534  0.21793240  0.03196098  1  0  -0.275178  0  3.216553  0  0  -0.205538  0  3.488046  0  0  -0.221029  0  3.504933  0  0  -0.305641  -0.194814  0  3.476254  0
N  N59  1  0.63576458  0.71793296  0.46803578  1  0  -0.275235  0  3.216342  0  0  -0.20555  0  3.487822  0  0  -0.22105  0  3.504719  0  0  -0.305663  -0.194823  0  3.476023  0
N  N60  1  0.63577620  0.78206562  0.96803998  1  0  -0.275201  0  3.216464  0  0  -0.205593  0  3.487965  0  0  -0.221089  0  3.504858  0  0  -0.305684  -0.194871  0  3.476179  0
N  N61  1  0.36423699  0.28207023  0.53196278  1  0  -0.275212  0  3.216402  0  0  -0.205565  0  3.487917  0  0  -0.22106  0  3.504812  0  0  -0.305666  -0.194833  0  3.476106  0
N  N62  1  0.24243723  0.46924052  0.09843383  1  0  -0.259764  0  3.059163  0  0  -0.232799  0  3.327041  0  0  -0.239073  0  3.3415  0  0  -0.281337  -0.227731  0  3.31644  0
N  N63  1  0.75755895  0.96924251  0.40156628  1  0  -0.259775  0  3.059095  0  0  -0.232809  0  3.326974  0  0  -0.239085  0  3.341439  0  0  -0.281382  -0.227738  0  3.316372  0
N  N64  1  0.75755574  0.53075232  0.90156678  1  0  -0.25985  0  3.05911  0  0  -0.232877  0  3.326993  0  0  -0.239154  0  3.341454  0  0  -0.281357  -0.227808  0  3.316393  0
N  N65  1  0.24244260  0.03076068  0.59843372  1  0  -0.25973  0  3.059255  0  0  -0.232757  0  3.327151  0  0  -0.239035  0  3.341616  0  0  -0.281344  -0.22769  0  3.316553  0
N  N66  1  0.75916256  0.51264351  0.16853668  1  0  -0.293334  0  2.826085  0  0  -0.279187  0  3.09573  0  0  -0.286431  0  3.109251  0  0  -0.185507  -0.274129  0  3.08669  0
N  N67  1  0.24083065  0.01264589  0.33146006  1  0  -0.293253  0  2.826197  0  0  -0.279066  0  3.095783  0  0  -0.286309  0  3.109308  0  0  -0.185427  -0.274021  0  3.086755  0
N  N68  1  0.24083613  0.48735554  0.83146376  1  0  -0.293264  0  2.826076  0  0  -0.279098  0  3.095717  0  0  -0.286343  0  3.109242  0  0  -0.185473  -0.274049  0  3.086683  0
N  N69  1  0.75916804  0.98735627  0.66854038  1  0  -0.293233  0  2.826099  0  0  -0.27906  0  3.09571  0  0  -0.286307  0  3.109238  0  0  -0.185427  -0.274014  0  3.086673  0
N  N70  1  0.53568082  0.66750625  0.18702427  1  0  -0.236979  0  2.989307  0  0  -0.203231  0  3.267168  0  0  -0.211887  0  3.276872  0  0  -0.172152  -0.197457  0  3.260438  0
N  N71  1  0.46431237  0.16751064  0.31297685  1  0  -0.236921  0  2.98947  0  0  -0.203168  0  3.26733  0  0  -0.211821  0  3.277033  0  0  -0.172102  -0.197399  0  3.260593  0
N  N72  1  0.46431642  0.33248970  0.81297819  1  0  -0.236944  0  2.989421  0  0  -0.203188  0  3.267287  0  0  -0.211843  0  3.276992  0  0  -0.172117  -0.197419  0  3.260552  0
N  N73  1  0.53568491  0.83249152  0.68702202  1  0  -0.237082  0  2.989481  0  0  -0.203328  0  3.267352  0  0  -0.211983  0  3.277057  0  0  -0.172162  -0.197563  0  3.260625  0
N  N74  1  0.83301852  0.62701312  0.21308528  1  0  0.257594  0  3.553379  0  0  0.305851  0  3.832376  0  0  0.302901  0  3.853901  0  0  0.004346  0.307564  0  3.818042  0
N  N75  1  0.16697508  0.12701684  0.28691227  1  0  0.257539  0  3.553508  0  0  0.305838  0  3.832502  0  0  0.302889  0  3.854021  0  0  0.004367  0.30755  0  3.818171  0
N  N76  1  0.16697875  0.37298801  0.78691431  1  0  0.25758  0  3.553398  0  0  0.305865  0  3.832375  0  0  0.302914  0  3.853898  0  0  0.004394  0.307577  0  3.818047  0
N  N77  1  0.83302219  0.87298532  0.71308803  1  0  0.257492  0  3.553435  0  0  0.305776  0  3.832436  0  0  0.302828  0  3.853963  0  0  0.004353  0.307493  0  3.818102  0
N  N78  1  0.70269096  0.72131871  0.22547557  1  0  -0.079755  0  2.820124  0  0  -0.080807  0  3.097912  0  0  -0.077256  0  3.109425  0  0  -0.05877  -0.082938  0  3.090097  0
N  N79  1  0.29730461  0.22132283  0.27452508  1  0  -0.079784  0  2.820494  0  0  -0.080841  0  3.098259  0  0  -0.077286  0  3.10977  0  0  -0.058785  -0.082968  0  3.090434  0
N  N80  1  0.29730487  0.27867931  0.77452531  1  0  -0.079778  0  2.820355  0  0  -0.080846  0  3.098144  0  0  -0.077292  0  3.109656  0  0  -0.058785  -0.082972  0  3.090323  0
N  N81  1  0.70269267  0.77867829  0.72547378  1  0  -0.079702  0  2.820353  0  0  -0.080776  0  3.098145  0  0  -0.077224  0  3.109655  0  0  -0.058797  -0.082909  0  3.090334  0
O  O82  1  0.01340174  0.47411002  0.37153357  1  0  -0.645581  0  2.001478  0  0  -0.592066  0  2.234559  0  0  -0.617696  0  2.225669  0  0  -0.319775  -0.574087  0  2.240176  0
O  O83  1  0.98659735  0.97411998  0.12845747  1  0  -0.645711  0  2.001661  0  0  -0.592103  0  2.234756  0  0  -0.617733  0  2.225868  0  0  -0.319661  -0.574119  0  2.240358  0
O  O84  1  0.98659844  0.52588799  0.62846126  1  0  -0.645664  0  2.00146  0  0  -0.592096  0  2.234583  0  0  -0.61773  0  2.225696  0  0  -0.319719  -0.5741  0  2.240183  0
O  O85  1  0.01340272  0.02586665  0.87154813  1  0  -0.645614  0  2.001758  0  0  -0.59202  0  2.234846  0  0  -0.617659  0  2.225973  0  0  -0.319641  -0.574028  0  2.240436  0
O  O86  1  0.30008585  0.56524914  0.35757851  1  0  -0.656951  0  2.031483  0  0  -0.596589  0  2.296965  0  0  -0.627068  0  2.287006  0  0  -0.333181  -0.575085  0  2.302852  0
O  O87  1  0.69990832  0.06524913  0.14241762  1  0  -0.656924  0  2.031621  0  0  -0.596521  0  2.297131  0  0  -0.626995  0  2.287167  0  0  -0.333179  -0.575014  0  2.303014  0
O  O88  1  0.69991288  0.43475302  0.64241834  1  0  -0.656993  0  2.031519  0  0  -0.596593  0  2.296998  0  0  -0.627071  0  2.287038  0  0  -0.333198  -0.575082  0  2.302888  0
O  O89  1  0.30009467  0.93474578  0.85758107  1  0  -0.656906  0  2.03166  0  0  -0.596505  0  2.297172  0  0  -0.626984  0  2.287209  0  0  -0.333181  -0.574999  0  2.303057  0
O  O90  1  0.69778407  0.36848637  0.41664453  1  0  -0.851358  0  1.862445  0  0  -0.786364  0  2.066394  0  0  -0.808224  0  2.030904  0  0  -0.596554  -0.771123  0  2.09062  0
O  O91  1  0.30221730  0.86848715  0.08335603  1  0  -0.851457  0  1.862339  0  0  -0.786435  0  2.066409  0  0  -0.808293  0  2.030918  0  0  -0.596571  -0.771195  0  2.090634  0
O  O92  1  0.30221605  0.63151372  0.58335533  1  0  -0.85132  0  1.862414  0  0  -0.786291  0  2.066423  0  0  -0.80815  0  2.030936  0  0  -0.596515  -0.771049  0  2.090647  0
O  O93  1  0.69778568  0.13151294  0.91664410  1  0  -0.851432  0  1.862348  0  0  -0.786454  0  2.066316  0  0  -0.808312  0  2.030823  0  0  -0.596557  -0.771206  0  2.090545  0
