# generated using pymatgen
data_AgH17C20(NO2)2
_symmetry_space_group_name_H-M   'P 1'
_cell_length_a   8.35509913
_cell_length_b   9.77945415
_cell_length_c   11.76580029
_cell_angle_alpha   89.40803805
_cell_angle_beta   73.90146565
_cell_angle_gamma   77.62857453
_symmetry_Int_Tables_number   1
_chemical_formula_structural   AgH17C20(NO2)2
_chemical_formula_sum   'Ag2 H34 C40 N4 O8'
_cell_volume   900.98226372
_cell_formula_units_Z   2
loop_
 _symmetry_equiv_pos_site_id
 _symmetry_equiv_pos_as_xyz
  1  'x, y, z'
loop_
 _atom_site_type_symbol
 _atom_site_label
 _atom_site_symmetry_multiplicity
 _atom_site_fract_x
 _atom_site_fract_y
 _atom_site_fract_z
 _atom_site_occupancy
 _atom_site_hle17_bader_spin_density
 _atom_site_hle17_ddec_charge
 _atom_site_hle17_ddec_spin_density
 _atom_site_hle17_ddec_sum_bond_order
 _atom_site_hle17_magmom
 _atom_site_hse06_10hf_bader_spin_density
 _atom_site_hse06_10hf_ddec_charge
 _atom_site_hse06_10hf_ddec_spin_density
 _atom_site_hse06_10hf_ddec_sum_bond_order
 _atom_site_hse06_10hf_magmom
 _atom_site_hse06_bader_spin_density
 _atom_site_hse06_ddec_charge
 _atom_site_hse06_ddec_spin_density
 _atom_site_hse06_ddec_sum_bond_order
 _atom_site_hse06_magmom
 _atom_site_pbe_bader_spin_density
 _atom_site_pbe_cm5_charge
 _atom_site_pbe_ddec_charge
 _atom_site_pbe_ddec_spin_density
 _atom_site_pbe_ddec_sum_bond_order
 _atom_site_pbe_magmom
Ag  Ag0  1  0.63822681  0.44681833  0.55437228  1  0  0.491952  0  1.516375  0  0  0.351343  0  1.973349  0  0  0.381687  0  1.925097  0  0  0.452263  0.329946  0  2.006842  0
Ag  Ag1  1  0.36177306  0.55318160  0.44562850  1  0  0.491918  0  1.516401  0  0  0.351301  0  1.973377  0  0  0.381646  0  1.925126  0  0  0.452257  0.329905  0  2.006869  0
H  H2  1  0.53627891  0.30295625  0.78411796  1  0  0.08089  0  0.935289  0  0  0.092016  0  0.996292  0  0  0.094129  0  0.99469  0  0  0.115394  0.089989  0  0.998377  0
H  H3  1  0.46371819  0.69704472  0.21588339  1  0  0.08091  0  0.935213  0  0  0.092036  0  0.996221  0  0  0.094152  0  0.99462  0  0  0.11541  0.090009  0  0.998308  0
H  H4  1  0.31686902  0.34245104  0.98363065  1  0  0.111066  0  0.97088  0  0  0.115304  0  1.039603  0  0  0.119213  0  1.037675  0  0  0.10624  0.112528  0  1.041019  0
H  H5  1  0.68312985  0.65754783  0.01636865  1  0  0.111058  0  0.97089  0  0  0.115293  0  1.039619  0  0  0.119202  0  1.037691  0  0  0.106238  0.112517  0  1.041036  0
H  H6  1  0.09533334  0.56797174  0.02695083  1  0  0.098899  0  0.973223  0  0  0.105875  0  1.042444  0  0  0.108723  0  1.040641  0  0  0.104566  0.103635  0  1.044298  0
H  H7  1  0.90466432  0.43202713  0.97305043  1  0  0.09889  0  0.973141  0  0  0.105864  0  1.042377  0  0  0.108713  0  1.040573  0  0  0.104548  0.103623  0  1.04423  0
H  H8  1  0.34136466  0.69386037  0.68140353  1  0  0.089365  0  0.966907  0  0  0.097597  0  1.033082  0  0  0.100036  0  1.030946  0  0  0.114666  0.095721  0  1.034453  0
H  H9  1  0.65863465  0.30614165  0.31859734  1  0  0.089359  0  0.966942  0  0  0.097592  0  1.033114  0  0  0.100031  0  1.030977  0  0  0.114663  0.095716  0  1.034484  0
H  H10  1  0.12887648  0.87354571  0.86038819  1  0  0.057244  0  0.973587  0  0  0.069888  0  1.04188  0  0  0.068158  0  1.044901  0  0  0.10104  0.070716  0  1.040348  0
H  H11  1  0.87112488  0.12645316  0.13961060  1  0  0.057235  0  0.973545  0  0  0.069877  0  1.041851  0  0  0.068151  0  1.044876  0  0  0.101029  0.070704  0  1.040319  0
H  H12  1  0.99255876  0.78606161  0.81024109  1  0  0.055955  0  0.946999  0  0  0.07139  0  1.01143  0  0  0.070439  0  1.012132  0  0  0.102139  0.072065  0  1.011019  0
H  H13  1  0.00744139  0.21393727  0.18975965  1  0  0.055978  0  0.947077  0  0  0.071412  0  1.011511  0  0  0.070467  0  1.012217  0  0  0.102161  0.072087  0  1.011098  0
H  H14  1  0.75323320  0.82366556  0.19961814  1  0  0.106145  0  0.951222  0  0  0.118479  0  1.009992  0  0  0.121019  0  1.009496  0  0  0.104326  0.116499  0  1.011006  0
H  H15  1  0.24676827  0.17633751  0.80038057  1  0  0.106104  0  0.951229  0  0  0.11844  0  1.010004  0  0  0.12098  0  1.009507  0  0  0.104305  0.116458  0  1.011017  0
H  H16  1  0.50424425  0.01643277  0.28045436  1  0  0.103382  0  0.99986  0  0  0.113135  0  1.063482  0  0  0.1148  0  1.064356  0  0  0.099769  0.111866  0  1.063084  0
H  H17  1  0.49575529  0.98356820  0.71954478  1  0  0.103381  0  0.999861  0  0  0.113138  0  1.063482  0  0  0.114817  0  1.064341  0  0  0.099771  0.111869  0  1.063084  0
H  H18  1  0.60993317  0.21156602  0.94543624  1  0  0.100798  0  0.958317  0  0  0.114443  0  1.016679  0  0  0.117101  0  1.015583  0  0  0.103274  0.113022  0  1.016631  0
H  H19  1  0.39006610  0.78843600  0.05456295  1  0  0.100798  0  0.958288  0  0  0.114444  0  1.016653  0  0  0.1171  0  1.015559  0  0  0.103273  0.113023  0  1.016606  0
H  H20  1  0.85949624  0.01763235  0.86400237  1  0  0.105599  0  0.946756  0  0  0.120171  0  1.001121  0  0  0.123407  0  0.998896  0  0  0.105851  0.118006  0  1.0026  0
H  H21  1  0.14050427  0.98236967  0.13599655  1  0  0.105616  0  0.94674  0  0  0.120167  0  1.001125  0  0  0.123404  0  0.998897  0  0  0.105835  0.118002  0  1.002605  0
H  H22  1  0.37756417  0.24310905  0.33605369  1  0  0.082032  0  0.950292  0  0  0.091462  0  1.023896  0  0  0.092214  0  1.022807  0  0  0.106417  0.090674  0  1.024865  0
H  H23  1  0.62243529  0.75688773  0.66394636  1  0  0.082032  0  0.950285  0  0  0.091462  0  1.02389  0  0  0.092213  0  1.022801  0  0  0.106405  0.090675  0  1.024857  0
H  H24  1  0.24906832  0.14311237  0.29026814  1  0  0.064541  0  0.915865  0  0  0.07798  0  0.979823  0  0  0.078711  0  0.978169  0  0  0.105374  0.077427  0  0.980903  0
H  H25  1  0.75093301  0.85688651  0.70972980  1  0  0.064537  0  0.915813  0  0  0.077982  0  0.979771  0  0  0.078716  0  0.978112  0  0  0.105373  0.07743  0  0.980851  0
H  H26  1  0.98319091  0.26392335  0.43041044  1  0  0.097459  0  0.935367  0  0  0.107548  0  0.996396  0  0  0.110231  0  0.994046  0  0  0.117919  0.105326  0  0.998415  0
H  H27  1  0.01680831  0.73607448  0.56959135  1  0  0.097458  0  0.935387  0  0  0.107554  0  0.996411  0  0  0.110234  0  0.994067  0  0  0.117933  0.105331  0  0.998428  0
H  H28  1  0.28148001  0.49982284  0.17665270  1  0  0.102311  0  0.955025  0  0  0.111247  0  1.018482  0  0  0.113824  0  1.017053  0  0  0.107945  0.109526  0  1.019303  0
H  H29  1  0.71852144  0.50017604  0.82334946  1  0  0.102285  0  0.955038  0  0  0.111225  0  1.018483  0  0  0.113802  0  1.017055  0  0  0.107959  0.109508  0  1.019301  0
H  H30  1  0.03271247  0.70662486  0.23632534  1  0  0.106776  0  0.935829  0  0  0.121788  0  0.984571  0  0  0.124607  0  0.984124  0  0  0.110909  0.119715  0  0.985011  0
H  H31  1  0.96728935  0.29337716  0.76367586  1  0  0.106772  0  0.93586  0  0  0.12178  0  0.984598  0  0  0.124598  0  0.984153  0  0  0.110919  0.119708  0  0.985037  0
H  H32  1  0.76880871  0.67856519  0.39596747  1  0  0.093842  0  0.968696  0  0  0.09993  0  1.036942  0  0  0.102935  0  1.034371  0  0  0.113603  0.097441  0  1.039288  0
H  H33  1  0.23119394  0.32143370  0.60403274  1  0  0.093795  0  0.968725  0  0  0.099914  0  1.036933  0  0  0.102918  0  1.034362  0  0  0.113598  0.097425  0  1.039277  0
H  H34  1  0.68561026  0.92704167  0.49259459  1  0  0.107761  0  0.945884  0  0  0.118713  0  1.004186  0  0  0.122372  0  1.00206  0  0  0.100956  0.115738  0  1.006436  0
H  H35  1  0.31439669  0.07295512  0.50740476  1  0  0.107812  0  0.945904  0  0  0.118738  0  1.004227  0  0  0.122396  0  1.002104  0  0  0.100989  0.115763  0  1.006475  0
C  C36  1  0.43985574  0.40057624  0.80935327  1  0  0.092442  0  3.726392  0  0  0.059547  0  3.977677  0  0  0.064934  0  3.997576  0  0  0.034434  0.055961  0  3.965665  0
C  C37  1  0.56014383  0.59942473  0.19064671  1  0  0.092386  0  3.726307  0  0  0.059494  0  3.977605  0  0  0.064882  0  3.9975  0  0  0.034416  0.055909  0  3.965593  0
C  C38  1  0.31728725  0.42257319  0.91864796  1  0  -0.114386  0  3.751312  0  0  -0.126643  0  4.008316  0  0  -0.132936  0  4.029604  0  0  -0.088482  -0.123298  0  3.995502  0
C  C39  1  0.68270983  0.57742777  0.08135254  1  0  -0.114357  0  3.751271  0  0  -0.126614  0  4.008273  0  0  -0.132908  0  4.029563  0  0  -0.088476  -0.12327  0  3.995462  0
C  C40  1  0.19425011  0.54796649  0.94285866  1  0  -0.057652  0  3.694196  0  0  -0.085122  0  3.940335  0  0  -0.082458  0  3.958313  0  0  -0.074083  -0.088166  0  3.930093  0
C  C41  1  0.80574603  0.45203343  0.05714290  1  0  -0.057626  0  3.694085  0  0  -0.085105  0  3.940226  0  0  -0.082443  0  3.958204  0  0  -0.074049  -0.08815  0  3.929983  0
C  C42  1  0.19771607  0.64807958  0.85739447  1  0  0.028449  0  3.725069  0  0  0.052315  0  3.962364  0  0  0.047426  0  3.986299  0  0  -0.004668  0.054765  0  3.947515  0
C  C43  1  0.80228254  0.35192035  0.14260573  1  0  0.028431  0  3.725058  0  0  0.052315  0  3.962345  0  0  0.047432  0  3.986286  0  0  -0.004681  0.054764  0  3.947494  0
C  C44  1  0.32837106  0.61910085  0.75116693  1  0  0.072967  0  3.668884  0  0  0.033214  0  3.918574  0  0  0.039803  0  3.935978  0  0  0.042408  0.030181  0  3.906107  0
C  C45  1  0.67162755  0.38089907  0.24883327  1  0  0.072957  0  3.668886  0  0  0.033206  0  3.918564  0  0  0.039796  0  3.935963  0  0  0.042407  0.030173  0  3.906096  0
C  C46  1  0.06654853  0.78361656  0.87509485  1  0  0.05698  0  3.665798  0  0  -0.007016  0  3.921492  0  0  0.001762  0  3.928027  0  0  -0.060342  -0.013031  0  3.917566  0
C  C47  1  0.93345259  0.21638337  0.12490567  1  0  0.057003  0  3.665797  0  0  -0.007025  0  3.921505  0  0  0.001724  0  3.928074  0  0  -0.060347  -0.013038  0  3.917575  0
C  C48  1  0.82190697  0.90592024  0.02693384  1  0  0.242797  0  3.828668  0  0  0.229346  0  4.099447  0  0  0.239633  0  4.114125  0  0  0.068155  0.223041  0  4.0883  0
C  C49  1  0.17809450  0.09408284  0.97306487  1  0  0.242774  0  3.828677  0  0  0.229343  0  4.099404  0  0  0.239627  0  4.114081  0  0  0.068131  0.223045  0  4.088248  0
C  C50  1  0.72054077  0.90870703  0.14393087  1  0  -0.165033  0  3.778633  0  0  -0.184987  0  4.032761  0  0  -0.188007  0  4.051306  0  0  -0.106439  -0.183062  0  4.021018  0
C  C51  1  0.27945946  0.09129604  0.85606810  1  0  -0.164984  0  3.778559  0  0  -0.184955  0  4.03269  0  0  -0.187976  0  4.051241  0  0  -0.106413  -0.183027  0  4.020942  0
C  C52  1  0.57935490  0.01784838  0.18905827  1  0  -0.184012  0  3.789341  0  0  -0.201096  0  4.035957  0  0  -0.204831  0  4.057482  0  0  -0.111056  -0.199299  0  4.022761  0
C  C53  1  0.42064366  0.98215154  0.81094023  1  0  -0.183964  0  3.789286  0  0  -0.201071  0  4.035896  0  0  -0.204817  0  4.057413  0  0  -0.111058  -0.199274  0  4.0227  0
C  C54  1  0.53822384  0.12688469  0.11696844  1  0  0.243546  0  3.825976  0  0  0.233562  0  4.08923  0  0  0.242342  0  4.10704  0  0  0.069351  0.227244  0  4.077833  0
C  C55  1  0.46177571  0.87311628  0.88303069  1  0  0.243407  0  3.826094  0  0  0.233456  0  4.089281  0  0  0.242235  0  4.107096  0  0  0.06932  0.227138  0  4.077884  0
C  C56  1  0.64078759  0.12535121  0.00048443  1  0  -0.148345  0  3.753685  0  0  -0.170965  0  4.010848  0  0  -0.173612  0  4.030147  0  0  -0.101445  -0.168247  0  3.996821  0
C  C57  1  0.35921196  0.87464976  0.99951471  1  0  -0.148226  0  3.753664  0  0  -0.170863  0  4.010822  0  0  -0.173509  0  4.030121  0  0  -0.1014  -0.168147  0  3.996798  0
C  C58  1  0.78169914  0.01545105  0.95482980  1  0  -0.17318  0  3.768561  0  0  -0.196439  0  4.028439  0  0  -0.198587  0  4.045633  0  0  -0.108231  -0.195088  0  4.016299  0
C  C59  1  0.21830261  0.98455098  0.04516887  1  0  -0.173235  0  3.768609  0  0  -0.196489  0  4.028496  0  0  -0.198637  0  4.045689  0  0  -0.108222  -0.195139  0  4.016355  0
C  C60  1  0.29886349  0.23964678  0.27471599  1  0  0.041072  0  3.646518  0  0  -0.024006  0  3.909958  0  0  -0.016068  0  3.915263  0  0  -0.061775  -0.029135  0  3.906387  0
C  C61  1  0.70113599  0.76035000  0.72528492  1  0  0.041053  0  3.64649  0  0  -0.024052  0  3.909958  0  0  -0.016111  0  3.915258  0  0  -0.061778  -0.029189  0  3.906408  0
C  C62  1  0.15399777  0.36605699  0.30013236  1  0  0.018305  0  3.749347  0  0  0.040288  0  3.996048  0  0  0.036292  0  4.017343  0  0  -0.008499  0.042443  0  3.982212  0
C  C63  1  0.84600208  0.63394293  0.69986757  1  0  0.018385  0  3.749396  0  0  0.040381  0  3.996076  0  0  0.036386  0  4.01737  0  0  -0.008448  0.042537  0  3.98224  0
C  C64  1  0.00216170  0.36049958  0.38612132  1  0  0.057665  0  3.680065  0  0  0.018686  0  3.928958  0  0  0.024316  0  3.947734  0  0  0.041905  0.014947  0  3.916621  0
C  C65  1  0.99783722  0.63949929  0.61387968  1  0  0.057632  0  3.680152  0  0  0.018614  0  3.929079  0  0  0.024243  0  3.947858  0  0  0.04184  0.014879  0  3.916736  0
C  C66  1  0.16569688  0.49240571  0.24499493  1  0  -0.060589  0  3.711874  0  0  -0.09163  0  3.971207  0  0  -0.087532  0  3.986392  0  0  -0.072955  -0.094251  0  3.961058  0
C  C67  1  0.83430327  0.50759317  0.75500580  1  0  -0.060604  0  3.711833  0  0  -0.091645  0  3.971166  0  0  -0.087546  0  3.98635  0  0  -0.072991  -0.094271  0  3.961023  0
C  C68  1  0.02741232  0.60696353  0.27803310  1  0  -0.114591  0  3.747286  0  0  -0.123766  0  4.000239  0  0  -0.130479  0  4.021204  0  0  -0.083049  -0.119477  0  3.986315  0
C  C69  1  0.97258627  0.39303639  0.72196625  1  0  -0.114557  0  3.747342  0  0  -0.123732  0  4.000307  0  0  -0.130443  0  4.02127  0  0  -0.083054  -0.119443  0  3.986384  0
C  C70  1  0.88171064  0.59333015  0.36590066  1  0  0.106781  0  3.687561  0  0  0.071135  0  3.941038  0  0  0.0771  0  3.961028  0  0  0.038565  0.066899  0  3.928495  0
C  C71  1  0.11828670  0.40666977  0.63409895  1  0  0.10682  0  3.687607  0  0  0.071147  0  3.941075  0  0  0.077113  0  3.961067  0  0  0.038573  0.066912  0  3.928528  0
C  C72  1  0.60318265  0.15829886  0.51223510  1  0  0.654802  0  3.976092  0  0  0.614719  0  4.260982  0  0  0.647598  0  4.255441  0  0  0.172372  0.5928  0  4.262458  0
C  C73  1  0.39682026  0.84169897  0.48776423  1  0  0.654707  0  3.976157  0  0  0.61462  0  4.261061  0  0  0.647499  0  4.25552  0  0  0.172344  0.592701  0  4.262537  0
C  C74  1  0.57576630  0.01357660  0.49930436  1  0  -0.173761  0  3.676514  0  0  -0.188128  0  3.924976  0  0  -0.192597  0  3.938219  0  0  -0.09479  -0.185036  0  3.915983  0
C  C75  1  0.42423845  0.98641914  0.50069546  1  0  -0.173775  0  3.676597  0  0  -0.188122  0  3.925075  0  0  -0.19259  0  3.938317  0  0  -0.094831  -0.185032  0  3.916083  0
N  N76  1  0.44624979  0.49804224  0.72728726  1  0  -0.2866  0  3.358131  0  0  -0.200442  0  3.63772  0  0  -0.218884  0  3.655025  0  0  -0.34561  -0.18815  0  3.625381  0
N  N77  1  0.55374855  0.50195873  0.27271382  1  0  -0.286566  0  3.358077  0  0  -0.200418  0  3.637672  0  0  -0.218863  0  3.654981  0  0  -0.345618  -0.188125  0  3.625332  0
N  N78  1  0.86964130  0.47148115  0.41881096  1  0  -0.279409  0  3.34956  0  0  -0.193621  0  3.629565  0  0  -0.212729  0  3.649466  0  0  -0.342259  -0.180764  0  3.615903  0
N  N79  1  0.13035980  0.52851878  0.58118872  1  0  -0.279414  0  3.349515  0  0  -0.193603  0  3.629507  0  0  -0.212709  0  3.649404  0  0  -0.342244  -0.180743  0  3.615841  0
O  O80  1  0.73415624  0.16946575  0.54297736  1  0  -0.651843  0  1.856815  0  0  -0.601211  0  2.074297  0  0  -0.625956  0  2.063067  0  0  -0.364991  -0.582935  0  2.080368  0
O  O81  1  0.26584340  0.83053522  0.45702516  1  0  -0.651809  0  1.856826  0  0  -0.601174  0  2.07431  0  0  -0.625917  0  2.063078  0  0  -0.364969  -0.582897  0  2.080379  0
O  O82  1  0.49140523  0.26109011  0.49297059  1  0  -0.677729  0  1.998299  0  0  -0.61411  0  2.248933  0  0  -0.641949  0  2.237616  0  0  -0.344581  -0.592831  0  2.255069  0
O  O83  1  0.50859794  0.73890667  0.50702784  1  0  -0.677667  0  1.998285  0  0  -0.614034  0  2.248913  0  0  -0.641876  0  2.2376  0  0  -0.344555  -0.592756  0  2.255049  0
O  O84  1  0.95620971  0.79198425  0.99251118  1  0  -0.293516  0  2.366832  0  0  -0.22121  0  2.607868  0  0  -0.239456  0  2.611632  0  0  -0.182264  -0.207451  0  2.604075  0
O  O85  1  0.04379182  0.20801882  0.00749006  1  0  -0.293534  0  2.366829  0  0  -0.22119  0  2.607841  0  0  -0.23942  0  2.611603  0  0  -0.182259  -0.207437  0  2.604046  0
O  O86  1  0.40046305  0.23826976  0.15417598  1  0  -0.29119  0  2.322271  0  0  -0.220742  0  2.560973  0  0  -0.238746  0  2.565601  0  0  -0.184334  -0.207915  0  2.557424  0
O  O87  1  0.59953370  0.76173225  0.84582288  1  0  -0.291159  0  2.322319  0  0  -0.220691  0  2.560983  0  0  -0.238695  0  2.565612  0  0  -0.184296  -0.207863  0  2.557434  0
