# generated using pymatgen
data_AlC24(N2O5)6
_symmetry_space_group_name_H-M   'P 1'
_cell_length_a   4.33196228
_cell_length_b   29.28950879
_cell_length_c   29.28961757
_cell_angle_alpha   119.99871278
_cell_angle_beta   89.99973932
_cell_angle_gamma   90.00016207
_symmetry_Int_Tables_number   1
_chemical_formula_structural   AlC24(N2O5)6
_chemical_formula_sum   'Al2 C48 N24 O60'
_cell_volume   3218.44966125
_cell_formula_units_Z   2
loop_
 _symmetry_equiv_pos_site_id
 _symmetry_equiv_pos_as_xyz
  1  'x, y, z'
loop_
 _atom_site_type_symbol
 _atom_site_label
 _atom_site_symmetry_multiplicity
 _atom_site_fract_x
 _atom_site_fract_y
 _atom_site_fract_z
 _atom_site_occupancy
 _atom_site_pbe_bader_charge
 _atom_site_pbe_bader_spin_density
 _atom_site_pbe_cm5_charge
 _atom_site_pbe_ddec_charge
 _atom_site_pbe_ddec_spin_density
 _atom_site_pbe_ddec_sum_bond_order
 _atom_site_pbe_magmom
Al  Al0  1  0.00001555  0.49999896  0.50000127  1  2.530029  0  0.487425  1.691073  0  2.443761  0
Al  Al1  1  0.99945503  0.16666220  0.83334077  1  2.531075  0  0.488314  1.69399  0  2.440492  0
C  C2  1  0.50001152  0.45971583  0.41942257  1  1.66888  0  0.287405  0.6963  0  4.048169  0
C  C3  1  0.50000736  0.45970477  0.54028890  1  1.668616  0  0.28735  0.696469  0  4.048441  0
C  C4  1  0.50000851  0.58057844  0.54029119  1  1.705214  0  0.287322  0.696003  0  4.048368  0
C  C5  1  0.49945629  0.20696705  0.79306025  1  1.696996  0  0.287779  0.695142  0  4.04723  0
C  C6  1  0.49944822  0.08607699  0.79303132  1  1.704555  0  0.287908  0.69544  0  4.047133  0
C  C7  1  0.49946829  0.20694951  0.91392759  1  1.643701  0  0.287603  0.694942  0  4.047014  0
C  C8  1  0.49957477  0.23705287  0.76296987  1  0.21972  0  0.018187  -0.082382  0  3.828782  0
C  C9  1  0.49457302  0.21068924  0.70747328  1  0.198973  0  0.096391  0.023588  0  3.888263  0
C  C10  1  0.50364118  0.23810630  0.68000521  1  0.272287  0  0.100239  0.001257  0  3.868544  0
C  C11  1  0.49986473  0.29364067  0.70636542  1  0.161368  0  0.02462  0.067461  0  4.080544  0
C  C12  1  0.49595135  0.32000735  0.76189857  1  0.27299  0  0.100305  0.001058  0  3.869211  0
C  C13  1  0.50476192  0.29254821  0.78932336  1  0.197171  0  0.096623  0.023958  0  3.888224  0
C  C14  1  0.49995775  0.32135761  0.67864254  1  -0.182119  0  -0.015851  -0.036447  0  4.051109  0
C  C15  1  0.50001144  0.34530587  0.65468763  1  0.073477  0  -0.012828  -0.032811  0  4.048627  0
C  C16  1  0.50000290  0.37302002  0.62697300  1  0.38795  0  0.023599  0.066265  0  4.081103  0
C  C17  1  0.49603994  0.34666548  0.57144411  1  0.196722  0  0.10078  0.001444  0  3.868107  0
C  C18  1  0.50512426  0.37414143  0.54404005  1  0.220834  0  0.096405  0.024246  0  3.889921  0
C  C19  1  0.50000661  0.42961868  0.57037271  1  0.131174  0  0.017643  -0.084542  0  3.834289  0
C  C20  1  0.49488362  0.45595036  0.62584800  1  0.224859  0  0.09644  0.024196  0  3.889972  0
C  C21  1  0.50396197  0.42854582  0.65332266  1  0.192877  0  0.100899  0.001786  0  3.867751  0
C  C22  1  0.49955891  0.02590172  0.76293854  1  0.012274  0  0.018297  -0.082412  0  3.829179  0
C  C23  1  0.49456769  0.99676755  0.78930215  1  0.218913  0  0.096364  0.023385  0  3.888377  0
C  C24  1  0.50362815  0.94188694  0.76188667  1  0.420893  0  0.100262  0.001325  0  3.868877  0
C  C25  1  0.49981983  0.91271587  0.70635218  1  0.180861  0  0.024823  0.067849  0  4.081023  0
C  C26  1  0.49590081  0.94188209  0.67998711  1  0.217075  0  0.10016  0.001039  0  3.869305  0
C  C27  1  0.50473293  0.99676252  0.70744577  1  0.314241  0  0.096788  0.024188  0  3.888371  0
C  C28  1  0.49993053  0.85728220  0.67863557  1  -0.085492  0  -0.015977  -0.036869  0  4.051579  0
C  C29  1  0.49999046  0.80937508  0.65468563  1  -0.132019  0  -0.012773  -0.032597  0  4.048456  0
C  C30  1  0.50000190  0.75394795  0.62697477  1  0.160169  0  0.023498  0.066281  0  4.080452  0
C  C31  1  0.49605382  0.72476807  0.65332618  1  0.232247  0  0.100934  0.001575  0  3.867556  0
C  C32  1  0.50512813  0.66988685  0.62585056  1  0.411347  0  0.096524  0.024357  0  3.889661  0
C  C33  1  0.50000862  0.64074617  0.57037445  1  0.005597  0  0.017469  -0.084634  0  3.834526  0
C  C34  1  0.49488229  0.66988865  0.54403926  1  0.276644  0  0.096554  0.024315  0  3.889937  0
C  C35  1  0.50394757  0.72476940  0.57144502  1  0.310807  0  0.100941  0.001622  0  3.86751  0
C  C36  1  0.49961770  0.23704460  0.97410101  1  0.071323  0  0.018426  -0.082082  0  3.829172  0
C  C37  1  0.49462615  0.29254066  0.00323157  1  0.314651  0  0.096259  0.023064  0  3.888755  0
C  C38  1  0.50368151  0.32000863  0.05811204  1  0.217844  0  0.100333  0.001472  0  3.868978  0
C  C39  1  0.49986730  0.29364944  0.08728767  1  0.1808  0  0.024767  0.067747  0  4.080984  0
C  C40  1  0.49595675  0.23811657  0.05812435  1  0.421331  0  0.100282  0.001156  0  3.869344  0
C  C41  1  0.50477551  0.21069286  0.00324399  1  0.218437  0  0.09664  0.024076  0  3.888564  0
C  C42  1  0.49996367  0.32136553  0.14271825  1  -0.084825  0  -0.015871  -0.03676  0  4.05151  0
C  C43  1  0.50000240  0.34532333  0.19063030  1  -0.1325  0  -0.012881  -0.032643  0  4.048773  0
C  C44  1  0.49999720  0.37303534  0.24605404  1  0.159972  0  0.023659  0.066203  0  4.080896  0
C  C45  1  0.49603372  0.42856627  0.27523159  1  0.314138  0  0.10076  0.001317  0  3.86765  0
C  C46  1  0.50511678  0.45597184  0.33011233  1  0.273507  0  0.096537  0.02455  0  3.889356  0
C  C47  1  0.50000062  0.42963600  0.35925574  1  0.041611  0  0.017556  -0.084745  0  3.833852  0
C  C48  1  0.49487815  0.37415891  0.33011311  1  0.386776  0  0.096515  0.024333  0  3.889531  0
C  C49  1  0.50394160  0.34668349  0.27523189  1  0.257423  0  0.100867  0.001734  0  3.867003  0
N  N50  1  0.49305171  0.15198094  0.67513375  1  0.442406  0  0.061285  0.49501  0  4.244053  0
N  N51  1  0.50637491  0.32489480  0.84803259  1  0.443442  0  0.060766  0.494436  0  4.24709  0
N  N52  1  0.48944633  0.37858066  0.79078007  1  0.384281  0  0.063348  0.502049  0  4.247967  0
N  N53  1  0.51021850  0.20922263  0.62143428  1  0.38924  0  0.063516  0.50204  0  4.247186  0
N  N54  1  0.48935694  0.28808432  0.54255475  1  0.438937  0  0.063448  0.503355  0  4.246821  0
N  N55  1  0.51061191  0.45743570  0.71190650  1  0.439304  0  0.063311  0.503145  0  4.246376  0
N  N56  1  0.49350786  0.51467922  0.65821203  1  0.465482  0  0.060927  0.495406  0  4.243363  0
N  N57  1  0.50654223  0.34177886  0.48531130  1  0.465759  0  0.060812  0.495022  0  4.243694  0
N  N58  1  0.49307322  0.02313318  0.84801024  1  0.427759  0  0.061362  0.495203  0  4.243694  0
N  N59  1  0.50638162  0.02312921  0.67509928  1  0.438875  0  0.060757  0.494325  0  4.246992  0
N  N60  1  0.48942861  0.91219448  0.62141098  1  0.439805  0  0.063268  0.501926  0  4.24768  0
N  N61  1  0.51020874  0.91219442  0.79076778  1  0.423713  0  0.063435  0.501952  0  4.247947  0
N  N62  1  0.48936108  0.75445619  0.71190795  1  0.437063  0  0.063391  0.503319  0  4.246379  0
N  N63  1  0.51060809  0.75445929  0.54255221  1  0.446614  0  0.063318  0.503184  0  4.24635  0
N  N64  1  0.49350943  0.64352724  0.48531411  1  0.413866  0  0.06099  0.495473  0  4.243512  0
N  N65  1  0.50654244  0.64352275  0.65821305  1  0.437812  0  0.060692  0.494984  0  4.243633  0
N  N66  1  0.49306950  0.32488156  0.97686075  1  0.44091  0  0.061297  0.495304  0  4.244339  0
N  N67  1  0.50635282  0.15198045  0.97688320  1  0.429917  0  0.060559  0.494072  0  4.246808  0
N  N68  1  0.48943473  0.20923372  0.08781750  1  0.422396  0  0.063142  0.501709  0  4.248048  0
N  N69  1  0.51023061  0.37858350  0.08780250  1  0.439355  0  0.063642  0.50218  0  4.247659  0
N  N70  1  0.48934233  0.45745734  0.24554115  1  0.445208  0  0.063346  0.503307  0  4.246351  0
N  N71  1  0.51060822  0.28810126  0.24554195  1  0.437502  0  0.06332  0.50314  0  4.246186  0
N  N72  1  0.49350161  0.34179404  0.35647642  1  0.437559  0  0.060884  0.4952  0  4.243482  0
N  N73  1  0.50654354  0.51469623  0.35647474  1  0.414283  0  0.060676  0.494785  0  4.243799  0
O  O74  1  0.73963636  0.55846346  0.54459251  1  -1.232953  0  -0.222615  -0.589268  0  2.408317  0
O  O75  1  0.73965110  0.48612873  0.44153655  1  -1.235234  0  -0.222637  -0.589368  0  2.408366  0
O  O76  1  0.73964047  0.45540683  0.51387412  1  -1.233669  0  -0.222615  -0.589438  0  2.408382  0
O  O77  1  0.26038519  0.55846430  0.51387644  1  -1.235355  0  -0.222607  -0.589218  0  2.408183  0
O  O78  1  0.26038404  0.48612132  0.54459068  1  -1.232958  0  -0.222555  -0.58937  0  2.408326  0
O  O79  1  0.26039687  0.45541185  0.44153660  1  -1.232029  0  -0.222631  -0.589362  0  2.408043  0
O  O80  1  0.73899955  0.18050886  0.89179003  1  -1.236779  0  -0.222758  -0.589232  0  2.40744  0
O  O81  1  0.73900787  0.21126369  0.81949327  1  -1.234192  0  -0.222687  -0.589126  0  2.407952  0
O  O82  1  0.73900275  0.10821559  0.78873768  1  -1.234949  0  -0.222818  -0.589407  0  2.407741  0
O  O83  1  0.25982900  0.21124562  0.89181336  1  -1.23467  0  -0.223181  -0.590042  0  2.408161  0
O  O84  1  0.25982913  0.10818959  0.81944706  1  -1.23833  0  -0.223355  -0.590231  0  2.408462  0
O  O85  1  0.25983260  0.18055212  0.78876106  1  -1.233848  0  -0.223333  -0.590259  0  2.408525  0
O  O86  1  0.27768246  0.12905859  0.68249928  1  -0.403836  0  -0.087664  -0.260837  0  2.018796  0
O  O87  1  0.70651647  0.13236697  0.64344580  1  -0.369241  0  -0.081313  -0.25636  0  1.96505  0
O  O88  1  0.72181496  0.31752977  0.87094262  1  -0.404434  0  -0.087831  -0.261106  0  2.019871  0
O  O89  1  0.29296354  0.35658999  0.86765581  1  -0.370347  0  -0.080888  -0.255891  0  1.966612  0
O  O90  1  0.27953029  0.39874422  0.77851559  1  -0.379225  0  -0.087836  -0.268774  0  1.971791  0
O  O91  1  0.69706789  0.40098430  0.82307463  1  -0.365161  0  -0.080783  -0.250859  0  1.928216  0
O  O92  1  0.72017459  0.22147838  0.60127013  1  -0.381955  0  -0.087794  -0.268665  0  1.971483  0
O  O93  1  0.30257130  0.17693084  0.59903053  1  -0.367201  0  -0.080965  -0.251055  0  1.927955  0
O  O94  1  0.27937551  0.26793308  0.55482067  1  -0.405246  0  -0.087516  -0.269409  0  1.97175  0
O  O95  1  0.69688904  0.26565879  0.51024920  1  -0.374344  0  -0.081448  -0.251965  0  1.928938  0
O  O96  1  0.72057407  0.44516885  0.73205978  1  -0.405542  0  -0.087576  -0.269468  0  1.971797  0
O  O97  1  0.30307775  0.48974208  0.73432853  1  -0.374264  0  -0.081414  -0.25198  0  1.928664  0
O  O98  1  0.27811620  0.53760671  0.65086401  1  -0.396221  0  -0.087371  -0.261197  0  2.019533  0
O  O99  1  0.70697895  0.53429039  0.68989858  1  -0.380467  0  -0.081203  -0.256482  0  1.963929  0
O  O100  1  0.72196465  0.34913254  0.46239133  1  -0.396861  0  -0.087063  -0.260734  0  2.019592  0
O  O101  1  0.29310546  0.31008862  0.46569279  1  -0.380396  0  -0.081371  -0.256541  0  1.964076  0
O  O102  1  0.27773195  0.05342151  0.87093854  1  -0.395899  0  -0.087903  -0.26111  0  2.018544  0
O  O103  1  0.70657420  0.01105833  0.86761988  1  -0.366437  0  -0.081296  -0.256415  0  1.964945  0
O  O104  1  0.72181996  0.05340498  0.68246966  1  -0.400621  0  -0.087777  -0.261025  0  2.019732  0
O  O105  1  0.29298909  0.01105928  0.64340033  1  -0.367127  0  -0.080982  -0.255916  0  1.966609  0
O  O106  1  0.27953066  0.87976500  0.60124050  1  -0.381068  0  -0.087676  -0.268657  0  1.971705  0
O  O107  1  0.69708321  0.92208885  0.59901281  1  -0.375787  0  -0.080869  -0.250926  0  1.928057  0
O  O108  1  0.72015043  0.87977275  0.77850943  1  -0.384991  0  -0.087752  -0.268677  0  1.972113  0
O  O109  1  0.30258418  0.92208266  0.82306300  1  -0.377988  0  -0.080879  -0.25087  0  1.928055  0
O  O110  1  0.27937080  0.78687065  0.73205805  1  -0.406095  0  -0.087667  -0.269574  0  1.971319  0
O  O111  1  0.69689708  0.74457602  0.73433279  1  -0.371667  0  -0.081374  -0.251921  0  1.92879  0
O  O112  1  0.72057773  0.78687816  0.55481667  1  -0.40606  0  -0.08764  -0.269552  0  1.971372  0
O  O113  1  0.30306283  0.74457681  0.51024792  1  -0.37566  0  -0.081346  -0.251854  0  1.928914  0
O  O114  1  0.27811519  0.61325080  0.46238564  1  -0.388948  0  -0.087389  -0.261193  0  2.019789  0
O  O115  1  0.70697200  0.65560174  0.46570199  1  -0.386822  0  -0.081261  -0.256527  0  1.963898  0
O  O116  1  0.72196196  0.61325061  0.65086350  1  -0.395171  0  -0.087107  -0.260788  0  2.019669  0
O  O117  1  0.29309146  0.65559218  0.68990100  1  -0.384378  0  -0.081268  -0.256483  0  1.964041  0
O  O118  1  0.27770329  0.31750989  0.94657210  1  -0.401702  0  -0.087766  -0.261069  0  2.018772  0
O  O119  1  0.70652484  0.35657164  0.98893219  1  -0.368385  0  -0.081251  -0.256368  0  1.965378  0
O  O120  1  0.72177277  0.12906256  0.94660841  1  -0.396668  0  -0.087793  -0.261028  0  2.019445  0
O  O121  1  0.29289492  0.13236605  0.98895780  1  -0.368187  0  -0.080818  -0.255734  0  1.966469  0
O  O122  1  0.27951793  0.22149973  0.12024569  1  -0.385635  0  -0.087625  -0.268525  0  1.971703  0
O  O123  1  0.69704718  0.17693499  0.07792372  1  -0.376539  0  -0.080835  -0.2509  0  1.928186  0
O  O124  1  0.72017904  0.39875094  0.12022195  1  -0.380566  0  -0.087828  -0.268711  0  1.971806  0
O  O125  1  0.30258143  0.40098510  0.07791245  1  -0.37559  0  -0.080977  -0.250994  0  1.927867  0
O  O126  1  0.27934550  0.44519393  0.21312753  1  -0.405059  0  -0.087523  -0.269418  0  1.971273  0
O  O127  1  0.69688584  0.48976060  0.25541800  1  -0.375777  0  -0.081411  -0.251932  0  1.928891  0
O  O128  1  0.72057111  0.26794973  0.21312288  1  -0.40615  0  -0.087602  -0.269506  0  1.971566  0
O  O129  1  0.30306911  0.26567816  0.25542562  1  -0.371916  0  -0.081378  -0.251878  0  1.928624  0
O  O130  1  0.27810922  0.34913831  0.38675162  1  -0.395624  0  -0.087266  -0.260984  0  2.019635  0
O  O131  1  0.70697520  0.31010774  0.34440110  1  -0.384245  0  -0.081269  -0.256472  0  1.963863  0
O  O132  1  0.72196530  0.53761631  0.38674723  1  -0.389166  0  -0.087095  -0.260728  0  2.019754  0
O  O133  1  0.29311407  0.53431696  0.34440348  1  -0.38725  0  -0.081312  -0.256431  0  1.963961  0
