# generated using pymatgen
data_ErH12C11O8
_symmetry_space_group_name_H-M   'P 1'
_cell_length_a   5.77725771
_cell_length_b   13.25887971
_cell_length_c   15.51170000
_cell_angle_alpha   94.34198457
_cell_angle_beta   90.00000000
_cell_angle_gamma   90.00000000
_symmetry_Int_Tables_number   1
_chemical_formula_structural   ErH12C11O8
_chemical_formula_sum   'Er4 H48 C44 O32'
_cell_volume   1184.78546581
_cell_formula_units_Z   4
loop_
 _symmetry_equiv_pos_site_id
 _symmetry_equiv_pos_as_xyz
  1  'x, y, z'
loop_
 _atom_site_type_symbol
 _atom_site_label
 _atom_site_symmetry_multiplicity
 _atom_site_fract_x
 _atom_site_fract_y
 _atom_site_fract_z
 _atom_site_occupancy
 _atom_site_hle17_bader_spin_density
 _atom_site_hle17_ddec_charge
 _atom_site_hle17_ddec_spin_density
 _atom_site_hle17_ddec_sum_bond_order
 _atom_site_hle17_magmom
 _atom_site_hse06_10hf_bader_spin_density
 _atom_site_hse06_10hf_ddec_charge
 _atom_site_hse06_10hf_ddec_spin_density
 _atom_site_hse06_10hf_ddec_sum_bond_order
 _atom_site_hse06_10hf_magmom
 _atom_site_hse06_bader_spin_density
 _atom_site_hse06_ddec_charge
 _atom_site_hse06_ddec_spin_density
 _atom_site_hse06_ddec_sum_bond_order
 _atom_site_hse06_magmom
 _atom_site_pbe_bader_charge
 _atom_site_pbe_bader_spin_density
 _atom_site_pbe_cm5_charge
 _atom_site_pbe_ddec_charge
 _atom_site_pbe_ddec_spin_density
 _atom_site_pbe_ddec_sum_bond_order
 _atom_site_pbe_magmom
Er  Er0  1  0.44028848  0.63456097  0.58378426  1  0  2.238304  0  1.595535  0  0  2.090961  0  2.066644  0  0  2.227546  0  1.86399  0  2.165403  0  1.502154  2.053762  0  2.097386  0
Er  Er1  1  0.94026790  0.86543762  0.91621520  1  0  2.238345  0  1.595534  0  0  2.090995  0  2.066596  0  0  2.227568  0  1.863986  0  2.165517  0  1.50215  2.053792  0  2.097352  0
Er  Er2  1  0.55973096  0.36543708  0.41621123  1  0  2.238306  0  1.595569  0  0  2.090933  0  2.066701  0  0  2.227544  0  1.864022  0  2.165433  0  1.502131  2.053703  0  2.09749  0
Er  Er3  1  0.05971345  0.13455967  0.08378540  1  0  2.238263  0  1.595547  0  0  2.090894  0  2.066678  0  0  2.227507  0  1.863999  0  2.165407  0  1.502125  2.053723  0  2.097387  0
H  H4  1  0.87338842  0.71824334  0.66629953  1  0  0.450602  0  0.842426  0  0  0.419651  0  0.904747  0  0  0.431642  0  0.887503  0  0.647699  0  0.304942  0.411548  0  0.916519  0
H  H5  1  0.37337784  0.78175148  0.83370355  1  0  0.450649  0  0.842364  0  0  0.419708  0  0.904668  0  0  0.431694  0  0.88743  0  0.64771  0  0.304968  0.411603  0  0.916445  0
H  H6  1  0.12662236  0.28175169  0.33370285  1  0  0.450667  0  0.842341  0  0  0.419721  0  0.904653  0  0  0.43171  0  0.88741  0  0.647743  0  0.304986  0.411615  0  0.91643  0
H  H7  1  0.62660871  0.21824355  0.16629884  1  0  0.450608  0  0.842413  0  0  0.419656  0  0.904739  0  0  0.431649  0  0.887492  0  0.647634  0  0.304936  0.411555  0  0.916508  0
H  H8  1  0.68804789  0.71490088  0.74270088  1  0  0.45006  0  0.838392  0  0  0.422586  0  0.894312  0  0  0.433216  0  0.879152  0  0.653998  0  0.310426  0.415397  0  0.904772  0
H  H9  1  0.18804596  0.78509393  0.75730220  1  0  0.450062  0  0.838393  0  0  0.422595  0  0.894303  0  0  0.433221  0  0.879149  0  0.653952  0  0.310426  0.415406  0  0.904761  0
H  H10  1  0.31194731  0.28509414  0.25729893  1  0  0.450053  0  0.838402  0  0  0.422584  0  0.894314  0  0  0.433209  0  0.879163  0  0.653966  0  0.310414  0.415397  0  0.904769  0
H  H11  1  0.81194578  0.21490110  0.24269954  1  0  0.450072  0  0.838369  0  0  0.422591  0  0.894305  0  0  0.433223  0  0.879141  0  0.654057  0  0.310407  0.4154  0  0.904767  0
H  H12  1  0.79180473  0.58753819  0.45947793  1  0  0.439277  0  0.867378  0  0  0.406182  0  0.935145  0  0  0.41699  0  0.919868  0  0.661141  0  0.30397  0.398588  0  0.946112  0
H  H13  1  0.29179415  0.91246419  0.04051791  1  0  0.439206  0  0.867461  0  0  0.406093  0  0.935264  0  0  0.416905  0  0.919983  0  0.661358  0  0.303904  0.3985  0  0.94623  0
H  H14  1  0.20820951  0.41246138  0.54051637  1  0  0.439229  0  0.867423  0  0  0.406112  0  0.935233  0  0  0.416922  0  0.919955  0  0.661384  0  0.303918  0.398518  0  0.946202  0
H  H15  1  0.70819240  0.08753689  0.95948036  1  0  0.439288  0  0.867358  0  0  0.40619  0  0.935131  0  0  0.416998  0  0.919856  0  0.661146  0  0.303973  0.398595  0  0.946101  0
H  H16  1  0.89621240  0.68845700  0.49608800  1  0  0.451357  0  0.824957  0  0  0.428514  0  0.878234  0  0  0.438341  0  0.864267  0  0.642851  0  0.319729  0.42198  0  0.88769  0
H  H17  1  0.39619662  0.81154387  0.00390838  1  0  0.451456  0  0.824885  0  0  0.428588  0  0.878161  0  0  0.438416  0  0.864191  0  0.642761  0  0.319701  0.422049  0  0.887628  0
H  H18  1  0.10380184  0.31154257  0.50390823  1  0  0.451437  0  0.824941  0  0  0.428572  0  0.878192  0  0  0.438401  0  0.864222  0  0.642743  0  0.319686  0.422032  0  0.88766  0
H  H19  1  0.60378992  0.18845797  0.99608865  1  0  0.451335  0  0.825015  0  0  0.428496  0  0.878266  0  0  0.43832  0  0.864307  0  0.642873  0  0.31971  0.421961  0  0.887724  0
H  H20  1  0.20796026  0.47526457  0.84206380  1  0  0.098164  0  0.979394  0  0  0.106657  0  1.047955  0  0  0.109753  0  1.045945  0  0.088116  0  0.106542  0.104442  0  1.04938  0
H  H21  1  0.70796911  0.02474051  0.65793595  1  0  0.098155  0  0.979407  0  0  0.106614  0  1.048013  0  0  0.109711  0  1.046002  0  0.088168  0  0.106498  0.104403  0  1.049432  0
H  H22  1  0.79203841  0.52474408  0.15793109  1  0  0.098172  0  0.979386  0  0  0.106662  0  1.047948  0  0  0.109758  0  1.04594  0  0.088008  0  0.10654  0.104451  0  1.049356  0
H  H23  1  0.29204167  0.97526586  0.34206782  1  0  0.098182  0  0.979354  0  0  0.106682  0  1.047923  0  0  0.109777  0  1.045915  0  0.088262  0  0.106521  0.104468  0  1.049344  0
H  H24  1  0.51464555  0.30741575  0.70950900  1  0  0.094326  0  0.979336  0  0  0.105731  0  1.03929  0  0  0.107823  0  1.040287  0  0.09946  0  0.101039  0.104137  0  1.038902  0
H  H25  1  0.01464709  0.19258479  0.79048530  1  0  0.094391  0  0.979386  0  0  0.105795  0  1.039328  0  0  0.107887  0  1.040322  0  0.099887  0  0.101049  0.104208  0  1.038914  0
H  H26  1  0.48534272  0.69259063  0.29048510  1  0  0.094409  0  0.979321  0  0  0.10573  0  1.039368  0  0  0.107818  0  1.040365  0  0.100125  0  0.101008  0.104151  0  1.038931  0
H  H27  1  0.98536023  0.80742688  0.20951429  1  0  0.094305  0  0.979539  0  0  0.105752  0  1.039436  0  0  0.10784  0  1.040434  0  0.099706  0  0.101057  0.104167  0  1.039018  0
H  H28  1  0.08715554  0.96361077  0.64647806  1  0  0.118711  0  0.93298  0  0  0.13303  0  0.994583  0  0  0.134348  0  0.995484  0  0.08682  0  0.107391  0.132208  0  0.993719  0
H  H29  1  0.58712977  0.53638556  0.85353092  1  0  0.118634  0  0.93304  0  0  0.133077  0  0.994603  0  0  0.134383  0  0.995499  0  0.091008  0  0.107367  0.13225  0  0.993741  0
H  H30  1  0.91288467  0.03638653  0.35353028  1  0  0.118656  0  0.933013  0  0  0.133082  0  0.994593  0  0  0.134389  0  0.995491  0  0.091056  0  0.107364  0.132272  0  0.993709  0
H  H31  1  0.41281523  0.46361098  0.14647672  1  0  0.118685  0  0.932873  0  0  0.132987  0  0.994503  0  0  0.134301  0  0.995409  0  0.071098  0  0.107381  0.132166  0  0.993639  0
H  H32  1  0.88338798  0.88077630  0.59629393  1  0  0.116829  0  0.92026  0  0  0.133268  0  0.975305  0  0  0.136034  0  0.973237  0  0.051278  0  0.10766  0.131424  0  0.976462  0
H  H33  1  0.38336355  0.61922229  0.90371261  1  0  0.116824  0  0.920135  0  0  0.133239  0  0.975348  0  0  0.135993  0  0.973283  0  0.083888  0  0.10764  0.131419  0  0.976478  0
H  H34  1  0.11664531  0.11922478  0.40371400  1  0  0.116771  0  0.920127  0  0  0.133223  0  0.975288  0  0  0.13598  0  0.973217  0  0.083905  0  0.107613  0.131401  0  0.976421  0
H  H35  1  0.61658665  0.38077198  0.09629617  1  0  0.116759  0  0.920296  0  0  0.133198  0  0.975329  0  0  0.135969  0  0.973251  0  0.05156  0  0.107646  0.131344  0  0.976499  0
H  H36  1  0.26548063  0.99455135  0.50446325  1  0  0.06698  0  0.944696  0  0  0.086164  0  1.007741  0  0  0.086743  0  1.008265  0  0.041697  0  0.091747  0.085641  0  1.007538  0
H  H37  1  0.76544101  0.50543893  0.99554663  1  0  0.066866  0  0.944963  0  0  0.086064  0  1.007941  0  0  0.086674  0  1.008432  0  0.041699  0  0.091724  0.085523  0  1.007755  0
H  H38  1  0.73455612  0.00543990  0.49554534  1  0  0.066867  0  0.944888  0  0  0.086048  0  1.007918  0  0  0.086674  0  1.00839  0  0.041972  0  0.09172  0.085506  0  1.007733  0
H  H39  1  0.23451611  0.49455307  0.00445556  1  0  0.067015  0  0.944635  0  0  0.086169  0  1.007692  0  0  0.08675  0  1.008215  0  0.041952  0  0.091736  0.085631  0  1.007505  0
H  H40  1  0.08670723  0.90217814  0.45102447  1  0  0.061739  0  0.94712  0  0  0.08191  0  1.008299  0  0  0.0821  0  1.009332  0  0.029798  0  0.089611  0.081775  0  1.007536  0
H  H41  1  0.58666935  0.59781440  0.04898556  1  0  0.061629  0  0.947239  0  0  0.081743  0  1.008459  0  0  0.08193  0  1.009506  0  0.029482  0  0.089555  0.081609  0  1.007692  0
H  H42  1  0.91332952  0.09781613  0.54898367  1  0  0.061632  0  0.947246  0  0  0.081762  0  1.00848  0  0  0.081949  0  1.009528  0  0.029459  0  0.089567  0.081628  0  1.007712  0
H  H43  1  0.41329470  0.40217836  0.95102184  1  0  0.061698  0  0.947139  0  0  0.081849  0  1.008312  0  0  0.082041  0  1.009346  0  0.029806  0  0.089593  0.081715  0  1.007546  0
H  H44  1  0.61036398  0.28354129  0.86173695  1  0  0.092854  0  0.958621  0  0  0.10123  0  1.023316  0  0  0.104586  0  1.020974  0  0.079355  0  0.102548  0.098909  0  1.02483  0
H  H45  1  0.11037243  0.21646606  0.63825844  1  0  0.092801  0  0.958637  0  0  0.101195  0  1.023314  0  0  0.104549  0  1.020974  0  0.079307  0  0.102513  0.098868  0  1.024828  0
H  H46  1  0.38963296  0.71647038  0.13825749  1  0  0.09274  0  0.958637  0  0  0.10116  0  1.023287  0  0  0.104515  0  1.020944  0  0.079195  0  0.102485  0.098837  0  1.0248  0
H  H47  1  0.88964700  0.78354334  0.36174166  1  0  0.092839  0  0.958495  0  0  0.101246  0  1.023172  0  0  0.104605  0  1.020826  0  0.079351  0  0.102564  0.098924  0  1.024684  0
H  H48  1  0.96566923  0.36366791  0.92894962  1  0  0.110923  0  0.961783  0  0  0.118639  0  1.025615  0  0  0.122841  0  1.022798  0  0.121351  0  0.107439  0.115737  0  1.027544  0
H  H49  1  0.46568461  0.13633944  0.57105221  1  0  0.110858  0  0.961862  0  0  0.11857  0  1.025723  0  0  0.122795  0  1.022878  0  0.121134  0  0.107397  0.115657  0  1.027686  0
H  H50  1  0.03432251  0.63634376  0.07104868  1  0  0.110986  0  0.961743  0  0  0.118654  0  1.025618  0  0  0.122909  0  1.022736  0  0.121052  0  0.107469  0.115739  0  1.027583  0
H  H51  1  0.53433483  0.86366845  0.42895037  1  0  0.110902  0  0.961825  0  0  0.118624  0  1.025643  0  0  0.122848  0  1.022799  0  0.121267  0  0.107415  0.115718  0  1.027585  0
C  C52  1  0.15750552  0.51659179  0.67869068  1  0  0.647263  0  3.89995  0  0  0.599686  0  4.189617  0  0  0.632903  0  4.189227  0  1.556942  0  0.199727  0.576396  0  4.194928  0
C  C53  1  0.65748149  0.98340605  0.82130680  1  0  0.646948  0  3.900108  0  0  0.599354  0  4.189811  0  0  0.632573  0  4.189415  0  1.55636  0  0.199621  0.576064  0  4.195119  0
C  C54  1  0.84252084  0.48340627  0.32130546  1  0  0.647045  0  3.900286  0  0  0.599483  0  4.189943  0  0  0.6327  0  4.189549  0  1.556912  0  0.199673  0.576191  0  4.195252  0
C  C55  1  0.34250333  0.01659427  0.17869464  1  0  0.647153  0  3.900201  0  0  0.599632  0  4.189845  0  0  0.63285  0  4.189455  0  1.557197  0  0.199709  0.576339  0  4.195161  0
C  C56  1  0.74061955  0.40706156  0.59611438  1  0  0.73788  0  3.833699  0  0  0.688077  0  4.12492  0  0  0.72527  0  4.117531  0  1.590398  0  0.235603  0.662944  0  4.134453  0
C  C57  1  0.24061243  0.09293141  0.90388137  1  0  0.738182  0  3.833324  0  0  0.688106  0  4.125001  0  0  0.7253  0  4.117608  0  1.590265  0  0.235598  0.66297  0  4.134533  0
C  C58  1  0.25938777  0.59293498  0.40387973  1  0  0.738156  0  3.833385  0  0  0.68811  0  4.125026  0  0  0.725299  0  4.117643  0  1.590288  0  0.235651  0.662976  0  4.134559  0
C  C59  1  0.75938451  0.90706589  0.09611730  1  0  0.737964  0  3.833736  0  0  0.688127  0  4.125046  0  0  0.725304  0  4.117674  0  1.590223  0  0.23562  0.662987  0  4.134581  0
C  C60  1  0.22414441  0.82288809  0.60035800  1  0  0.717897  0  3.804779  0  0  0.670414  0  4.102262  0  0  0.702659  0  4.102036  0  1.505303  0  0.208782  0.647673  0  4.107643  0
C  C61  1  0.72412210  0.67710370  0.89964747  1  0  0.718126  0  3.804051  0  0  0.67059  0  4.101759  0  0  0.702826  0  4.101518  0  1.505264  0  0.208893  0.647854  0  4.107145  0
C  C62  1  0.77587849  0.17710467  0.39964553  1  0  0.718136  0  3.804146  0  0  0.670544  0  4.101917  0  0  0.702783  0  4.101676  0  1.505164  0  0.208878  0.647807  0  4.107306  0
C  C63  1  0.27583156  0.32288906  0.10035606  1  0  0.71757  0  3.805167  0  0  0.670094  0  4.102645  0  0  0.702341  0  4.102425  0  1.505358  0  0.208643  0.647356  0  4.108019  0
C  C64  1  0.81002618  0.40197943  0.68884686  1  0  -0.044282  0  3.685809  0  0  -0.030947  0  3.917547  0  0  -0.032679  0  3.934037  0  -0.058977  0  0.002425  -0.029283  0  3.904995  0
C  C65  1  0.31002425  0.09802187  0.81115136  1  0  -0.044293  0  3.68568  0  0  -0.030906  0  3.917507  0  0  -0.032634  0  3.933994  0  -0.059069  0  0.002467  -0.029242  0  3.904948  0
C  C66  1  0.18996902  0.59802694  0.31114853  1  0  -0.044153  0  3.685379  0  0  -0.030786  0  3.917193  0  0  -0.032515  0  3.933675  0  -0.058631  0  0.00248  -0.029126  0  3.904639  0
C  C67  1  0.68998653  0.90198300  0.18884909  1  0  -0.044263  0  3.685627  0  0  -0.030931  0  3.917438  0  0  -0.032651  0  3.93393  0  -0.058947  0  0.002435  -0.029269  0  3.904886  0
C  C68  1  0.00425288  0.45101797  0.72741361  1  0  -0.080679  0  3.732801  0  0  -0.066406  0  3.965175  0  0  -0.072899  0  3.984991  0  -0.02267  0  -0.012906  -0.061614  0  3.950804  0
C  C69  1  0.50424270  0.04898257  0.77258262  1  0  -0.080576  0  3.732957  0  0  -0.066263  0  3.965273  0  0  -0.072766  0  3.985101  0  -0.023018  0  -0.012926  -0.061476  0  3.950912  0
C  C70  1  0.99575271  0.54898613  0.27258033  1  0  -0.080745  0  3.733056  0  0  -0.066445  0  3.965393  0  0  -0.072943  0  3.98521  0  -0.023439  0  -0.012986  -0.061657  0  3.951029  0
C  C71  1  0.49576462  0.95102003  0.22741961  1  0  -0.08044  0  3.732712  0  0  -0.066247  0  3.965177  0  0  -0.072757  0  3.985021  0  -0.022807  0  -0.012911  -0.061455  0  3.95081  0
C  C72  1  0.05591926  0.43730778  0.81408351  1  0  -0.056638  0  3.708818  0  0  -0.08285  0  3.959902  0  0  -0.082073  0  3.979313  0  -0.033231  0  -0.077197  -0.083143  0  3.946614  0
C  C73  1  0.55592465  0.06269578  0.68591356  1  0  -0.056761  0  3.708824  0  0  -0.08295  0  3.959917  0  0  -0.082173  0  3.979336  0  -0.032726  0  -0.077151  -0.083239  0  3.946621  0
C  C74  1  0.94407594  0.56270313  0.18591281  1  0  -0.056643  0  3.70881  0  0  -0.082848  0  3.959857  0  0  -0.082076  0  3.979286  0  -0.032433  0  -0.077163  -0.083134  0  3.946563  0
C  C75  1  0.44408786  0.93730984  0.31408822  1  0  -0.056846  0  3.708755  0  0  -0.083032  0  3.95986  0  0  -0.082252  0  3.97928  0  -0.033569  0  -0.077216  -0.083327  0  3.946575  0
C  C76  1  0.66754509  0.34375387  0.73866937  1  0  -0.085982  0  3.717003  0  0  -0.10878  0  3.964172  0  0  -0.111885  0  3.985267  0  -0.021363  0  -0.084068  -0.106626  0  3.949696  0
C  C77  1  0.16755181  0.15624667  0.76132621  1  0  -0.08606  0  3.717056  0  0  -0.108855  0  3.964195  0  0  -0.111958  0  3.985287  0  -0.021708  0  -0.084022  -0.10669  0  3.949711  0
C  C78  1  0.33244319  0.65625477  0.26132422  1  0  -0.086133  0  3.716977  0  0  -0.108851  0  3.964123  0  0  -0.111952  0  3.985211  0  -0.022408  0  -0.08404  -0.106689  0  3.949647  0
C  C79  1  0.83246070  0.84376273  0.23867452  1  0  -0.085981  0  3.717153  0  0  -0.108799  0  3.964295  0  0  -0.111902  0  3.985388  0  -0.021204  0  -0.084051  -0.106639  0  3.94982  0
C  C80  1  0.06099087  0.90914821  0.58990652  1  0  -0.272072  0  3.664187  0  0  -0.305715  0  3.908704  0  0  -0.310696  0  3.914764  0  -0.027662  0  -0.162052  -0.30171  0  3.903182  0
C  C81  1  0.56095645  0.59084358  0.91010152  1  0  -0.271935  0  3.663638  0  0  -0.305923  0  3.908675  0  0  -0.310859  0  3.914706  0  -0.064353  0  -0.162099  -0.30193  0  3.903168  0
C  C82  1  0.93904414  0.09084380  0.41010341  1  0  -0.271924  0  3.66353  0  0  -0.305853  0  3.908543  0  0  -0.310798  0  3.914585  0  -0.064237  0  -0.162044  -0.301871  0  3.903034  0
C  C83  1  0.43899201  0.40915069  0.08990404  1  0  -0.271863  0  3.664244  0  0  -0.305509  0  3.908719  0  0  -0.310485  0  3.914778  0  -0.012376  0  -0.162015  -0.3015  0  3.903192  0
C  C84  1  0.09257160  0.96004215  0.50576091  1  0  -0.08424  0  3.687414  0  0  -0.12764  0  3.946909  0  0  -0.127868  0  3.961241  0  -0.010958  0  -0.166538  -0.127127  0  3.936488  0
C  C85  1  0.59253199  0.53995039  0.99424719  1  0  -0.083908  0  3.687595  0  0  -0.127122  0  3.947032  0  0  -0.127383  0  3.961343  0  -0.040954  0  -0.166357  -0.126589  0  3.936607  0
C  C86  1  0.90746341  0.03995136  0.49424847  1  0  -0.083922  0  3.687465  0  0  -0.127189  0  3.947016  0  0  -0.127459  0  3.961325  0  -0.041281  0  -0.16641  -0.126659  0  3.936601  0
C  C87  1  0.40741994  0.46004161  0.00575758  1  0  -0.084236  0  3.687502  0  0  -0.127586  0  3.946891  0  0  -0.127818  0  3.961224  0  -0.011311  0  -0.166496  -0.127063  0  3.93647  0
C  C88  1  0.72147206  0.33083108  0.82476231  1  0  -0.049557  0  3.741056  0  0  -0.063969  0  3.994716  0  0  -0.063448  0  4.012323  0  -0.058204  0  -0.080258  -0.06402  0  3.98253  0
C  C89  1  0.22148051  0.16917022  0.67523075  1  0  -0.049568  0  3.741105  0  0  -0.06397  0  3.994761  0  0  -0.063453  0  4.012384  0  -0.058513  0  -0.080283  -0.064017  0  3.982574  0
C  C90  1  0.27852315  0.66917681  0.17523059  1  0  -0.049449  0  3.741125  0  0  -0.06389  0  3.994749  0  0  -0.063372  0  4.012374  0  -0.058573  0  -0.080238  -0.06394  0  3.982564  0
C  C91  1  0.77853719  0.83083918  0.32476806  1  0  -0.049512  0  3.741051  0  0  -0.063953  0  3.994711  0  0  -0.063437  0  4.01233  0  -0.058653  0  -0.080322  -0.064005  0  3.982528  0
C  C92  1  0.91885117  0.37637059  0.86253532  1  0  -0.071219  0  3.731538  0  0  -0.086291  0  3.986542  0  0  -0.088805  0  4.004843  0  -0.045329  0  -0.083628  -0.084676  0  3.973983  0
C  C93  1  0.41886828  0.12363373  0.63746309  1  0  -0.070989  0  3.731641  0  0  -0.086087  0  3.986663  0  0  -0.088615  0  4.004958  0  -0.044894  0  -0.083554  -0.084478  0  3.974104  0
C  C94  1  0.08113538  0.62364032  0.13746101  1  0  -0.071242  0  3.731513  0  0  -0.08629  0  3.986549  0  0  -0.08884  0  4.004829  0  -0.044505  0  -0.083626  -0.084684  0  3.973988  0
C  C95  1  0.58115116  0.87637340  0.36254072  1  0  -0.071193  0  3.731624  0  0  -0.086269  0  3.986621  0  0  -0.088797  0  4.004914  0  -0.045055  0  -0.083563  -0.08466  0  3.974068  0
O  O96  1  0.13028673  0.51857502  0.59580942  1  0  -0.716005  0  2.055991  0  0  -0.655089  0  2.292637  0  0  -0.689054  0  2.28211  0  -1.198238  0  -0.372497  -0.637394  0  2.298847  0
O  O97  1  0.63026269  0.98142887  0.90418973  1  0  -0.715893  0  2.055916  0  0  -0.654951  0  2.292515  0  0  -0.688905  0  2.281978  0  -1.198286  0  -0.372425  -0.637256  0  2.298728  0
O  O98  1  0.86973617  0.48142681  0.40418567  1  0  -0.715979  0  2.056142  0  0  -0.65504  0  2.292746  0  0  -0.689003  0  2.282214  0  -1.198674  0  -0.372465  -0.63734  0  2.298955  0
O  O99  1  0.36972213  0.01857070  0.09581424  1  0  -0.715967  0  2.056121  0  0  -0.655086  0  2.292777  0  0  -0.689058  0  2.282255  0  -1.198622  0  -0.372472  -0.637391  0  2.298988  0
O  O100  1  0.78893832  0.33302685  0.54186257  1  0  -0.712563  0  2.000332  0  0  -0.662285  0  2.243554  0  0  -0.69711  0  2.230977  0  -1.195319  0  -0.361539  -0.644373  0  2.25017  0
O  O101  1  0.28891908  0.16696688  0.95813580  1  0  -0.712642  0  2.00025  0  0  -0.662273  0  2.243599  0  0  -0.6971  0  2.231021  0  -1.195183  0  -0.361568  -0.644399  0  2.250276  0
O  O102  1  0.21108458  0.66697120  0.45813356  1  0  -0.712635  0  2.000354  0  0  -0.662296  0  2.243726  0  0  -0.69712  0  2.231154  0  -1.195228  0  -0.361612  -0.644418  0  2.250398  0
O  O103  1  0.71106573  0.83302891  0.04186793  1  0  -0.712659  0  2.000436  0  0  -0.662313  0  2.243556  0  0  -0.69713  0  2.230984  0  -1.195156  0  -0.361622  -0.644432  0  2.250238  0
O  O104  1  0.61343291  0.47893983  0.57393647  1  0  -0.791939  0  2.16502  0  0  -0.734654  0  2.428414  0  0  -0.780943  0  2.418134  0  -1.204609  0  -0.406742  -0.715218  0  2.434484  0
O  O105  1  0.11340328  0.02105844  0.92604801  1  0  -0.792085  0  2.16489  0  0  -0.734688  0  2.42838  0  0  -0.780978  0  2.418097  0  -1.204339  0  -0.406737  -0.715255  0  2.434454  0
O  O106  1  0.38659172  0.52105898  0.42604618  1  0  -0.792103  0  2.164986  0  0  -0.734702  0  2.42846  0  0  -0.780986  0  2.418175  0  -1.20425  0  -0.40671  -0.715263  0  2.434537  0
O  O107  1  0.88657807  0.97893886  0.07394227  1  0  -0.791984  0  2.165124  0  0  -0.734656  0  2.428471  0  0  -0.780942  0  2.418194  0  -1.204546  0  -0.406686  -0.715222  0  2.434546  0
O  O108  1  0.71823696  0.69149766  0.68167774  1  0  -0.926598  0  1.833028  0  0  -0.879589  0  2.036048  0  0  -0.911784  0  1.993874  0  -1.282837  0  -0.653866  -0.866038  0  2.058935  0
O  O109  1  0.21822637  0.80849716  0.81832470  1  0  -0.926692  0  1.833037  0  0  -0.879673  0  2.036002  0  0  -0.911892  0  1.993891  0  -1.282853  0  -0.6539  -0.866123  0  2.058899  0
O  O110  1  0.28177556  0.30849586  0.31832326  1  0  -0.926705  0  1.833046  0  0  -0.879657  0  2.035985  0  0  -0.911896  0  1.993882  0  -1.282884  0  -0.653914  -0.86611  0  2.058893  0
O  O111  1  0.78175671  0.19149560  0.18167690  1  0  -0.926608  0  1.833012  0  0  -0.879603  0  2.036036  0  0  -0.911801  0  1.993848  0  -1.28282  0  -0.653819  -0.866055  0  2.05892  0
O  O112  1  0.42307097  0.81723640  0.56727244  1  0  -0.653572  0  1.943817  0  0  -0.606957  0  2.182374  0  0  -0.640553  0  2.174275  0  -1.178178  0  -0.346384  -0.589948  0  2.187176  0
O  O113  1  0.92304347  0.68275388  0.93273293  1  0  -0.65367  0  1.943803  0  0  -0.606994  0  2.182395  0  0  -0.640569  0  2.174283  0  -1.178172  0  -0.3464  -0.589986  0  2.1872  0
O  O114  1  0.57695366  0.18275485  0.43272906  1  0  -0.653659  0  1.943783  0  0  -0.606962  0  2.182404  0  0  -0.640537  0  2.174284  0  -1.178159  0  -0.346396  -0.589954  0  2.18721  0
O  O115  1  0.07691538  0.31723662  0.06726981  1  0  -0.653443  0  1.944182  0  0  -0.606814  0  2.182711  0  0  -0.640408  0  2.174596  0  -1.178003  0  -0.346306  -0.589816  0  2.18752  0
O  O116  1  0.31434810  0.57015350  0.71668306  1  0  -0.660324  0  1.966479  0  0  -0.61454  0  2.208623  0  0  -0.647875  0  2.200516  0  -1.179718  0  -0.362991  -0.597778  0  2.213201  0
O  O117  1  0.81431714  0.92984283  0.78331045  1  0  -0.660111  0  1.966349  0  0  -0.614349  0  2.208502  0  0  -0.647674  0  2.200394  0  -1.17933  0  -0.362965  -0.597583  0  2.21308  0
O  O118  1  0.68569037  0.42984229  0.28330906  1  0  -0.660092  0  1.966402  0  0  -0.614367  0  2.208571  0  0  -0.647698  0  2.200461  0  -1.179333  0  -0.362977  -0.597601  0  2.213148  0
O  O119  1  0.18565556  0.07015371  0.21668559  1  0  -0.660313  0  1.966532  0  0  -0.614534  0  2.208659  0  0  -0.647863  0  2.200537  0  -1.179472  0  -0.362995  -0.597775  0  2.213241  0
O  O120  1  0.15254296  0.74795555  0.64438612  1  0  -0.782089  0  2.045372  0  0  -0.711083  0  2.272679  0  0  -0.747568  0  2.260916  0  -1.210626  0  -0.384459  -0.691938  0  2.279347  0
O  O121  1  0.65253797  0.75204002  0.85561572  1  0  -0.782271  0  2.045033  0  0  -0.711177  0  2.272316  0  0  -0.747683  0  2.260576  0  -1.210532  0  -0.384505  -0.69203  0  2.278986  0
O  O122  1  0.84746782  0.25204023  0.35561373  1  0  -0.782262  0  2.045196  0  0  -0.711145  0  2.272506  0  0  -0.747653  0  2.260753  0  -1.210663  0  -0.384499  -0.691998  0  2.279178  0
O  O123  1  0.34743993  0.24795577  0.14438672  1  0  -0.781966  0  2.045184  0  0  -0.710963  0  2.272476  0  0  -0.747453  0  2.260711  0  -1.210596  0  -0.384434  -0.691819  0  2.279132  0
O  O124  1  0.74612043  0.65425036  0.48962273  1  0  -0.905518  0  1.851508  0  0  -0.856004  0  2.049806  0  0  -0.887655  0  2.013342  0  -1.278621  0  -0.646616  -0.841748  0  2.06961  0
O  O125  1  0.24610465  0.84575126  0.01037434  1  0  -0.90551  0  1.851494  0  0  -0.855993  0  2.049724  0  0  -0.887645  0  2.013267  0  -1.278851  0  -0.646512  -0.841728  0  2.069527  0
O  O126  1  0.25389555  0.34574921  0.51037286  1  0  -0.905518  0  1.851515  0  0  -0.855988  0  2.049731  0  0  -0.887644  0  2.013274  0  -1.278871  0  -0.646519  -0.841727  0  2.069536  0
O  O127  1  0.75388017  0.15425058  0.98962268  1  0  -0.905515  0  1.851541  0  0  -0.856017  0  2.049831  0  0  -0.887676  0  2.013371  0  -1.278644  0  -0.646608  -0.84176  0  2.069631  0
