# generated using pymatgen
data_CdH14C14(N2Cl)2
_symmetry_space_group_name_H-M   'P 1'
_cell_length_a   8.57714177
_cell_length_b   8.96744002
_cell_length_c   10.82219449
_cell_angle_alpha   75.04746417
_cell_angle_beta   75.19913007
_cell_angle_gamma   88.09908163
_symmetry_Int_Tables_number   1
_chemical_formula_structural   CdH14C14(N2Cl)2
_chemical_formula_sum   'Cd2 H28 C28 N8 Cl4'
_cell_volume   777.04264327
_cell_formula_units_Z   2
loop_
 _symmetry_equiv_pos_site_id
 _symmetry_equiv_pos_as_xyz
  1  'x, y, z'
loop_
 _atom_site_type_symbol
 _atom_site_label
 _atom_site_symmetry_multiplicity
 _atom_site_fract_x
 _atom_site_fract_y
 _atom_site_fract_z
 _atom_site_occupancy
 _atom_site_hle17_bader_spin_density
 _atom_site_hle17_ddec_charge
 _atom_site_hle17_ddec_spin_density
 _atom_site_hle17_ddec_sum_bond_order
 _atom_site_hle17_magmom
 _atom_site_hse06_10hf_bader_spin_density
 _atom_site_hse06_10hf_ddec_charge
 _atom_site_hse06_10hf_ddec_spin_density
 _atom_site_hse06_10hf_ddec_sum_bond_order
 _atom_site_hse06_10hf_magmom
 _atom_site_hse06_bader_spin_density
 _atom_site_hse06_ddec_charge
 _atom_site_hse06_ddec_spin_density
 _atom_site_hse06_ddec_sum_bond_order
 _atom_site_hse06_magmom
 _atom_site_pbe_bader_spin_density
 _atom_site_pbe_cm5_charge
 _atom_site_pbe_ddec_charge
 _atom_site_pbe_ddec_spin_density
 _atom_site_pbe_ddec_sum_bond_order
 _atom_site_pbe_magmom
Cd  Cd0  1  0.03361955  0.02218733  0.17413386  1  0  0.944369  0  1.981555  0  0  0.762749  0  2.46747  0  0  0.808782  0  2.424379  0  0  0.63428  0.730618  0  2.496666  0
Cd  Cd1  1  0.96637999  0.97781126  0.82586719  1  0  0.944354  0  1.981562  0  0  0.762731  0  2.467482  0  0  0.808764  0  2.42439  0  0  0.634273  0.7306  0  2.496681  0
H  H2  1  0.79935415  0.85806996  0.47648513  1  0  0.09717  0  0.962413  0  0  0.107538  0  1.025626  0  0  0.1089  0  1.025155  0  0  0.11563  0.106393  0  1.026167  0
H  H3  1  0.20064660  0.14192863  0.52351475  1  0  0.097149  0  0.962466  0  0  0.107561  0  1.025629  0  0  0.1089  0  1.025184  0  0  0.115662  0.106428  0  1.026158  0
H  H4  1  0.69938886  0.55098019  0.57276507  1  0  0.122175  0  1.001755  0  0  0.130457  0  1.062259  0  0  0.132656  0  1.06413  0  0  0.10271  0.128862  0  1.061112  0
H  H5  1  0.30060707  0.44901839  0.42723486  1  0  0.122113  0  1.00182  0  0  0.130409  0  1.062321  0  0  0.132619  0  1.064181  0  0  0.102691  0.12883  0  1.061155  0
H  H6  1  0.85655654  0.42094906  0.36919376  1  0  0.117604  0  0.973224  0  0  0.128583  0  1.035427  0  0  0.1313  0  1.032888  0  0  0.114364  0.126556  0  1.037283  0
H  H7  1  0.14344059  0.57904953  0.63080593  1  0  0.117626  0  0.973227  0  0  0.128604  0  1.03543  0  0  0.131321  0  1.032891  0  0  0.114374  0.126577  0  1.037285  0
H  H8  1  0.06604648  0.74635179  0.08238595  1  0  0.076122  0  0.977626  0  0  0.08456  0  1.058827  0  0  0.08548  0  1.057613  0  0  0.098647  0.083782  0  1.059819  0
H  H9  1  0.93395310  0.25364795  0.91761576  1  0  0.076136  0  0.9776  0  0  0.084581  0  1.058798  0  0  0.085504  0  1.057579  0  0  0.098678  0.083804  0  1.05979  0
H  H10  1  0.98689245  0.55519348  0.11896435  1  0  0.098289  0  0.919103  0  0  0.113334  0  0.980514  0  0  0.114517  0  0.979453  0  0  0.112996  0.112342  0  0.981498  0
H  H11  1  0.01310710  0.44480511  0.88103485  1  0  0.098285  0  0.919143  0  0  0.113316  0  0.980578  0  0  0.114498  0  0.979518  0  0  0.113007  0.112328  0  0.981562  0
H  H12  1  0.30480054  0.76961396  0.20380356  1  0  0.087819  0  0.981663  0  0  0.095665  0  1.050945  0  0  0.097768  0  1.05089  0  0  0.093703  0.094143  0  1.05104  0
H  H13  1  0.69520025  0.23038579  0.79619514  1  0  0.087821  0  0.981659  0  0  0.095664  0  1.050952  0  0  0.097768  0  1.050899  0  0  0.09371  0.094145  0  1.051041  0
H  H14  1  0.56885320  0.65910784  0.22136778  1  0  0.091842  0  0.953404  0  0  0.10034  0  1.014637  0  0  0.102906  0  1.01423  0  0  0.09511  0.098449  0  1.015088  0
H  H15  1  0.43114888  0.34089422  0.77862924  1  0  0.091832  0  0.953375  0  0  0.100323  0  1.014624  0  0  0.10289  0  1.014216  0  0  0.095089  0.098431  0  1.015074  0
H  H16  1  0.63196196  0.39601821  0.18885710  1  0  0.095831  0  0.996303  0  0  0.104644  0  1.063269  0  0  0.10739  0  1.062092  0  0  0.084376  0.102584  0  1.064309  0
H  H17  1  0.36804003  0.60398154  0.81114413  1  0  0.095845  0  0.996332  0  0  0.104659  0  1.063286  0  0  0.107407  0  1.062109  0  0  0.084375  0.1026  0  1.064326  0
H  H18  1  0.16254964  0.35606936  0.12355716  1  0  0.085173  0  0.997391  0  0  0.092695  0  1.070792  0  0  0.095527  0  1.0689  0  0  0.085505  0.090603  0  1.072263  0
H  H19  1  0.83745110  0.64392923  0.87644457  1  0  0.085179  0  0.997391  0  0  0.092696  0  1.070794  0  0  0.095529  0  1.0689  0  0  0.085505  0.090603  0  1.072269  0
H  H20  1  0.38450752  0.18180025  0.05452605  1  0  0.091254  0  0.967893  0  0  0.101853  0  1.039324  0  0  0.103311  0  1.038104  0  0  0.099229  0.100741  0  1.040247  0
H  H21  1  0.61549327  0.81819950  0.94547542  1  0  0.091251  0  0.967893  0  0  0.101847  0  1.039323  0  0  0.103306  0  1.038104  0  0  0.099224  0.100735  0  1.040247  0
H  H22  1  0.57182588  0.19202928  0.09363023  1  0  0.100404  0  0.936808  0  0  0.110917  0  1.006215  0  0  0.112  0  1.005987  0  0  0.108455  0.110054  0  1.006514  0
H  H23  1  0.42817491  0.80797046  0.90637124  1  0  0.100385  0  0.936857  0  0  0.110917  0  1.006225  0  0  0.112001  0  1.005994  0  0  0.108449  0.110053  0  1.006525  0
H  H24  1  0.60841288  0.03548013  0.30575008  1  0  0.109866  0  0.981403  0  0  0.114402  0  1.056283  0  0  0.117186  0  1.053724  0  0  0.110587  0.112357  0  1.05807  0
H  H25  1  0.39158667  0.96451846  0.69425097  1  0  0.109879  0  0.98138  0  0  0.114404  0  1.056295  0  0  0.117194  0  1.053717  0  0  0.110577  0.112369  0  1.058052  0
H  H26  1  0.41666570  0.81505467  0.51520465  1  0  0.12694  0  0.964985  0  0  0.137106  0  1.020811  0  0  0.140189  0  1.020824  0  0  0.105596  0.13494  0  1.020883  0
H  H27  1  0.58333389  0.18494507  0.48479615  1  0  0.126951  0  0.964951  0  0  0.137118  0  1.020776  0  0  0.140197  0  1.020794  0  0  0.105599  0.134952  0  1.020847  0
H  H28  1  0.11917813  0.84224476  0.46209032  1  0  0.092132  0  0.967521  0  0  0.100779  0  1.034703  0  0  0.102695  0  1.033085  0  0  0.112717  0.099267  0  1.036071  0
H  H29  1  0.88082024  0.15775498  0.53791256  1  0  0.092155  0  0.96753  0  0  0.100812  0  1.034691  0  0  0.102727  0  1.033074  0  0  0.112762  0.0993  0  1.036057  0
C  C30  1  0.83147343  0.76284546  0.43084627  1  0  0.053925  0  3.733672  0  0  0.013323  0  4.003575  0  0  0.022273  0  4.019063  0  0  0.014236  0.007701  0  3.99303  0
C  C31  1  0.16852496  0.23715428  0.56915199  1  0  0.053914  0  3.733639  0  0  0.013274  0  4.003561  0  0  0.022242  0  4.019061  0  0  0.014177  0.00764  0  3.993015  0
C  C32  1  0.78073883  0.60680017  0.47850956  1  0  -0.198883  0  3.777943  0  0  -0.211121  0  4.038411  0  0  -0.220138  0  4.058955  0  0  -0.115328  -0.205318  0  4.024588  0
C  C33  1  0.21925951  0.39319842  0.52148988  1  0  -0.1988  0  3.77798  0  0  -0.211055  0  4.038464  0  0  -0.220082  0  4.058995  0  0  -0.115314  -0.205267  0  4.024634  0
C  C34  1  0.85820608  0.53853230  0.37866315  1  0  0.007607  0  3.640699  0  0  -0.050641  0  3.891138  0  0  -0.042896  0  3.905122  0  0  0.023515  -0.05536  0  3.881481  0
C  C35  1  0.14179109  0.46146745  0.62133535  1  0  0.007543  0  3.640723  0  0  -0.050708  0  3.891152  0  0  -0.042961  0  3.905138  0  0  0.023491  -0.055428  0  3.881499  0
C  C36  1  0.05234059  0.63251493  0.15355474  1  0  -0.067287  0  3.657574  0  0  -0.147522  0  3.904264  0  0  -0.143554  0  3.91453  0  0  -0.049708  -0.150003  0  3.897282  0
C  C37  1  0.94766020  0.36748481  0.84644396  1  0  -0.067274  0  3.657541  0  0  -0.147541  0  3.904208  0  0  -0.14359  0  3.914509  0  0  -0.04976  -0.150027  0  3.897227  0
C  C38  1  0.21473768  0.56809328  0.16497730  1  0  0.070581  0  3.748504  0  0  0.095401  0  3.985633  0  0  0.093582  0  4.011307  0  0  -0.016117  0.096647  0  3.968265  0
C  C39  1  0.78526319  0.43190877  0.83501997  1  0  0.070536  0  3.748609  0  0  0.095467  0  3.985606  0  0  0.093652  0  4.011273  0  0  -0.01612  0.096713  0  3.96824  0
C  C40  1  0.33031446  0.65370384  0.19153051  1  0  -0.111334  0  3.726852  0  0  -0.133533  0  3.972423  0  0  -0.135421  0  3.993503  0  0  -0.093053  -0.132121  0  3.958086  0
C  C41  1  0.66968762  0.34629822  0.80846652  1  0  -0.111355  0  3.726874  0  0  -0.133601  0  3.972446  0  0  -0.135487  0  3.993521  0  0  -0.093066  -0.132185  0  3.958107  0
C  C42  1  0.47929533  0.59141996  0.20130639  1  0  -0.066864  0  3.784217  0  0  -0.07352  0  4.029238  0  0  -0.075316  0  4.049569  0  0  -0.093101  -0.07224  0  4.015345  0
C  C43  1  0.52070434  0.40858209  0.79869389  1  0  -0.066784  0  3.784123  0  0  -0.073423  0  4.029138  0  0  -0.075218  0  4.049466  0  0  -0.093059  -0.072142  0  4.01524  0
C  C44  1  0.51472979  0.44409732  0.18322092  1  0  -0.118663  0  3.734836  0  0  -0.140012  0  3.975924  0  0  -0.142582  0  3.997425  0  0  -0.094061  -0.138143  0  3.961294  0
C  C45  1  0.48527108  0.55590474  0.81677727  1  0  -0.118765  0  3.734916  0  0  -0.140098  0  3.976028  0  0  -0.14267  0  3.997527  0  0  -0.094078  -0.138228  0  3.961395  0
C  C46  1  0.40138557  0.35815627  0.15487554  1  0  0.078965  0  3.753855  0  0  0.10257  0  3.989997  0  0  0.101223  0  4.015903  0  0  -0.014061  0.103461  0  3.972418  0
C  C47  1  0.59861402  0.64184348  0.84512526  1  0  0.079034  0  3.753816  0  0  0.102569  0  3.990043  0  0  0.101224  0  4.015949  0  0  -0.014064  0.10346  0  3.972467  0
C  C48  1  0.25204893  0.42131870  0.14610572  1  0  -0.155322  0  3.716966  0  0  -0.183521  0  3.956944  0  0  -0.186951  0  3.979813  0  0  -0.092479  -0.181102  0  3.941595  0
C  C49  1  0.74795065  0.57868105  0.85389415  1  0  -0.155283  0  3.717003  0  0  -0.183486  0  3.956952  0  0  -0.186916  0  3.979817  0  0  -0.092446  -0.181068  0  3.941606  0
C  C50  1  0.44117582  0.20148337  0.12940386  1  0  -0.076666  0  3.648571  0  0  -0.15238  0  3.888652  0  0  -0.149257  0  3.899216  0  0  -0.053218  -0.154297  0  3.881546  0
C  C51  1  0.55882377  0.79851638  0.87059601  1  0  -0.076738  0  3.648636  0  0  -0.15239  0  3.888655  0  0  -0.149269  0  3.899224  0  0  -0.053212  -0.154307  0  3.881553  0
C  C52  1  0.48179765  0.00168273  0.32838571  1  0  0.0127  0  3.653055  0  0  -0.044583  0  3.908056  0  0  -0.036278  0  3.92238  0  0  0.022744  -0.049511  0  3.898066  0
C  C53  1  0.51820182  0.99831355  0.67161585  1  0  0.012678  0  3.653009  0  0  -0.044596  0  3.908027  0  0  -0.036289  0  3.922352  0  0  0.02278  -0.049522  0  3.898042  0
C  C54  1  0.38320465  0.89305366  0.43224994  1  0  -0.213383  0  3.799927  0  0  -0.224367  0  4.061624  0  0  -0.234548  0  4.082613  0  0  -0.119584  -0.217795  0  4.047308  0
C  C55  1  0.61679489  0.10694493  0.56775111  1  0  -0.213456  0  3.799872  0  0  -0.224433  0  4.061564  0  0  -0.234611  0  4.082556  0  0  -0.119636  -0.21786  0  4.04725  0
C  C56  1  0.23071089  0.90661517  0.40624665  1  0  0.041088  0  3.77809  0  0  -0.003  0  4.059553  0  0  0.006062  0  4.074381  0  0  0.005896  -0.008696  0  4.049251  0
C  C57  1  0.76928861  0.09338226  0.59375557  1  0  0.041109  0  3.778181  0  0  -0.002982  0  4.05963  0  0  0.00608  0  4.074461  0  0  0.005897  -0.008678  0  4.049328  0
N  N58  1  0.93374647  0.78835061  0.30960011  1  0  -0.30151  0  3.174221  0  0  -0.250376  0  3.445353  0  0  -0.268313  0  3.46483  0  0  -0.26157  -0.238178  0  3.431922  0
N  N59  1  0.06625428  0.21164798  0.69039977  1  0  -0.301509  0  3.174107  0  0  -0.250383  0  3.445253  0  0  -0.268317  0  3.464715  0  0  -0.261564  -0.238186  0  3.431824  0
N  N60  1  0.94808695  0.65052177  0.27875205  1  0  0.082995  0  3.549963  0  0  0.19847  0  3.729623  0  0  0.191017  0  3.753401  0  0  -0.138977  0.20321  0  3.7135  0
N  N61  1  0.05191500  0.34947682  0.72124851  1  0  0.083042  0  3.549917  0  0  0.198534  0  3.729573  0  0  0.191083  0  3.753348  0  0  -0.138934  0.203273  0  3.713449  0
N  N62  1  0.38953872  0.07265297  0.24734951  1  0  0.085753  0  3.547484  0  0  0.201344  0  3.726803  0  0  0.193729  0  3.750397  0  0  -0.141737  0.206006  0  3.711189  0
N  N63  1  0.61046083  0.92734562  0.75265154  1  0  0.085812  0  3.547467  0  0  0.201338  0  3.726841  0  0  0.193721  0  3.750444  0  0  -0.141804  0.206  0  3.711231  0
N  N64  1  0.23459114  0.01614742  0.29333947  1  0  -0.318874  0  3.100212  0  0  -0.276759  0  3.375764  0  0  -0.292879  0  3.393021  0  0  -0.258052  -0.265681  0  3.363841  0
N  N65  1  0.76540841  0.98385117  0.70666158  1  0  -0.318849  0  3.100243  0  0  -0.276716  0  3.375812  0  0  -0.292837  0  3.393072  0  0  -0.258013  -0.265637  0  3.363885  0
Cl  Cl66  1  0.78478593  0.95154389  0.04835829  1  0  -0.562021  0  0.988132  0  0  -0.492593  0  1.268263  0  0  -0.510938  0  1.247327  0  0  -0.293692  -0.479426  0  1.282292  0
Cl  Cl67  1  0.21521485  0.04845586  0.95164318  1  0  -0.562023  0  0.988135  0  0  -0.492589  0  1.268258  0  0  -0.51094  0  1.247333  0  0  -0.293692  -0.479424  0  1.282286  0
Cl  Cl68  1  0.86323387  0.23127286  0.23053816  1  0  -0.579793  0  0.938039  0  0  -0.512814  0  1.205199  0  0  -0.529433  0  1.184238  0  0  -0.305559  -0.500867  0  1.219637  0
Cl  Cl69  1  0.13676572  0.76872688  0.76946356  1  0  -0.579796  0  0.938067  0  0  -0.51281  0  1.205226  0  0  -0.52943  0  1.184261  0  0  -0.305552  -0.500865  0  1.219664  0
