# generated using pymatgen
data_ZnH6C16N3O8
_symmetry_space_group_name_H-M   'P 1'
_cell_length_a   14.35929167
_cell_length_b   15.07365943
_cell_length_c   15.15171569
_cell_angle_alpha   89.97181607
_cell_angle_beta   89.08738243
_cell_angle_gamma   90.00262520
_symmetry_Int_Tables_number   1
_chemical_formula_structural   ZnH6C16N3O8
_chemical_formula_sum   'Zn2 H12 C32 N6 O16'
_cell_volume   3279.12808516
_cell_formula_units_Z   2
loop_
 _symmetry_equiv_pos_site_id
 _symmetry_equiv_pos_as_xyz
  1  'x, y, z'
loop_
 _atom_site_type_symbol
 _atom_site_label
 _atom_site_symmetry_multiplicity
 _atom_site_fract_x
 _atom_site_fract_y
 _atom_site_fract_z
 _atom_site_occupancy
 _atom_site_pbe_bader_charge
 _atom_site_pbe_bader_spin_density
 _atom_site_pbe_cm5_charge
 _atom_site_pbe_ddec_charge
 _atom_site_pbe_ddec_spin_density
 _atom_site_pbe_ddec_sum_bond_order
 _atom_site_pbe_magmom
Zn  Zn0  1  0.50003466  0.58895547  0.49996310  1  1.299688  0  0.679444  0.889996  0  2.262811  0
Zn  Zn1  1  0.50002420  0.40001460  0.50003716  1  1.320475  0  0.679528  0.889866  0  2.312915  0
H  H2  1  0.36584500  0.06037251  0.56865911  1  0.173474  0  0.132147  0.152898  0  0.970834  0
H  H3  1  0.57681483  0.92965738  0.37511403  1  0.148853  0  0.131616  0.151374  0  0.972478  0
H  H4  1  0.63415166  0.06037902  0.43134364  1  0.173743  0  0.132159  0.152806  0  0.970869  0
H  H5  1  0.42312095  0.92954735  0.62486344  1  0.148491  0  0.131495  0.151229  0  0.972294  0
H  H6  1  0.54500613  0.66227099  0.93836577  1  0.071377  0  0.102271  0.101335  0  1.004608  0
H  H7  1  0.54468182  0.38913905  0.06004949  1  0.062859  0  0.10169  0.099666  0  1.004807  0
H  H8  1  0.45493221  0.66226396  0.06150009  1  0.069876  0  0.102259  0.101192  0  1.004049  0
H  H9  1  0.45523217  0.38917280  0.94004363  1  0.062399  0  0.101847  0.09999  0  1.005195  0
H  H10  1  0.54203041  0.66254695  0.77462998  1  0.080308  0  0.101294  0.106799  0  1.005977  0
H  H11  1  0.54198335  0.38905529  0.22428305  1  0.092303  0  0.105123  0.116283  0  1.007  0
H  H12  1  0.45790309  0.66250214  0.22523911  1  0.080217  0  0.101366  0.106675  0  1.00596  0
H  H13  1  0.45803721  0.38907279  0.77581144  1  0.092058  0  0.105127  0.116252  0  1.006937  0
C  C14  1  0.49972206  0.52470968  0.66710338  1  1.486739  0  0.220385  0.607047  0  4.126741  0
C  C15  1  0.50032769  0.52467573  0.33288140  1  1.484831  0  0.220732  0.607457  0  4.125164  0
C  C16  1  0.32191911  0.46085736  0.49530639  1  1.694402  0  0.223191  0.661175  0  4.225491  0
C  C17  1  0.67810625  0.46085565  0.50473942  1  1.694615  0  0.223267  0.661461  0  4.225658  0
C  C18  1  0.42693559  0.09211003  0.53926535  1  -0.003191  0  -0.058902  -0.20746  0  3.86991  0
C  C19  1  0.54376518  0.89790717  0.43200316  1  0.017779  0  -0.058679  -0.205297  0  3.871097  0
C  C20  1  0.57309117  0.09212111  0.46074593  1  -0.004251  0  -0.058813  -0.2068  0  3.869459  0
C  C21  1  0.45618025  0.89783718  0.56797955  1  0.018651  0  -0.058583  -0.205125  0  3.87112  0
C  C22  1  0.43349783  0.18407909  0.53988205  1  0.825935  0  0.230958  0.253818  0  3.920761  0
C  C23  1  0.54389668  0.80592982  0.43806095  1  0.789811  0  0.230741  0.253017  0  3.926357  0
C  C24  1  0.56660860  0.18409942  0.46016572  1  0.82628  0  0.230415  0.252629  0  3.921378  0
C  C25  1  0.45601377  0.80587511  0.56191414  1  0.789294  0  0.230515  0.252891  0  3.926943  0
C  C26  1  0.22172757  0.45689374  0.49479168  1  0.072548  0  -0.006827  -0.123163  0  3.830619  0
C  C27  1  0.77829419  0.45686764  0.50529375  1  0.073149  0  -0.006871  -0.122903  0  3.829653  0
C  C28  1  0.13630178  0.45540719  0.49645474  1  -0.178601  0  -0.013475  0.019699  0  4.263939  0
C  C29  1  0.86372465  0.45539605  0.50360582  1  -0.178756  0  -0.013548  0.018992  0  4.263466  0
C  C30  1  0.04296796  0.45455395  0.49878444  1  -0.145739  0  -0.003384  -0.005916  0  4.201056  0
C  C31  1  0.95705719  0.45457152  0.50131826  1  0.085697  0  -0.003243  -0.00498  0  4.200941  0
C  C32  1  0.50000543  0.04392189  0.50000328  1  -0.092398  0  0.026302  0.139744  0  3.959109  0
C  C33  1  0.49998104  0.94605192  0.49999866  1  0.0847  0  0.026263  0.138334  0  3.959809  0
C  C34  1  0.52408636  0.60258026  0.90320534  1  -0.100145  0  -0.090206  -0.134459  0  3.98293  0
C  C35  1  0.52363330  0.44877913  0.09594353  1  -0.145097  0  -0.089297  -0.133246  0  3.983308  0
C  C36  1  0.47585577  0.60256295  0.09672890  1  -0.111384  0  -0.090164  -0.134383  0  3.982434  0
C  C37  1  0.47629020  0.44879442  0.90409552  1  -0.146539  0  -0.089172  -0.132927  0  3.983467  0
C  C38  1  0.52350021  0.60285623  0.81147543  1  0.033502  0  -0.08278  -0.080552  0  3.98055  0
C  C39  1  0.52307845  0.44841159  0.18766306  1  0.073652  0  -0.081119  -0.081526  0  3.970728  0
C  C40  1  0.47643354  0.60281240  0.18845088  1  0.035766  0  -0.082924  -0.080516  0  3.981351  0
C  C41  1  0.47690911  0.44842623  0.81237965  1  0.07611  0  -0.081321  -0.081715  0  3.970812  0
C  C42  1  0.50017688  0.52562346  0.76524788  1  -0.001086  0  -0.019662  -0.038453  0  3.971083  0
C  C43  1  0.49981020  0.52558831  0.23472428  1  -0.000556  0  -0.01957  -0.03828  0  3.971146  0
C  C44  1  0.50010918  0.52577560  0.95130787  1  0.073549  0  -0.001021  0.075811  0  3.996652  0
C  C45  1  0.49981670  0.52575791  0.04868380  1  -0.046143  0  -0.001206  0.076344  0  3.996431  0
N  N46  1  0.50006290  0.23174358  0.50002770  1  -1.189948  0  -0.259311  -0.266264  0  3.315698  0
N  N47  1  0.49995497  0.75831183  0.49998947  1  -1.160748  0  -0.260356  -0.271067  0  3.324474  0
N  N48  1  0.36159190  0.23203132  0.59359158  1  0.434358  0  0.0645  0.477108  0  4.241532  0
N  N49  1  0.60186366  0.75755229  0.37123265  1  0.426347  0  0.065478  0.47687  0  4.236671  0
N  N50  1  0.63858918  0.23206948  0.40652463  1  0.433488  0  0.064699  0.477283  0  4.241653  0
N  N51  1  0.39803512  0.75746128  0.62875494  1  0.423603  0  0.065498  0.477051  0  4.23759  0
O  O52  1  0.50671417  0.60030125  0.62735467  1  -1.143347  0  -0.326427  -0.551903  0  2.353343  0
O  O53  1  0.50776487  0.45064555  0.37180817  1  -1.164719  0  -0.30935  -0.554022  0  2.365592  0
O  O54  1  0.49333987  0.60028103  0.37256049  1  -1.140267  0  -0.326254  -0.551645  0  2.351501  0
O  O55  1  0.49227233  0.45068222  0.62824140  1  -1.165999  0  -0.309108  -0.553576  0  2.364622  0
O  O56  1  0.35933718  0.53649632  0.50103834  1  -1.132077  0  -0.295469  -0.529318  0  2.26371  0
O  O57  1  0.63578860  0.38561946  0.50991404  1  -1.121813  0  -0.319836  -0.543011  0  2.30008  0
O  O58  1  0.64068553  0.53648720  0.49894588  1  -1.131646  0  -0.295552  -0.529412  0  2.26447  0
O  O59  1  0.36424222  0.38562641  0.49019108  1  -1.121608  0  -0.319916  -0.542919  0  2.299893  0
O  O60  1  0.27986272  0.21151015  0.58027204  1  -0.406609  0  -0.110858  -0.295612  0  1.869308  0
O  O61  1  0.39135629  0.28377249  0.64922711  1  -0.39554  0  -0.088783  -0.268659  0  1.95286  0
O  O62  1  0.65826252  0.70415800  0.40026727  1  -0.366484  0  -0.084038  -0.254515  0  1.933304  0
O  O63  1  0.59046598  0.77940510  0.29348461  1  -0.434875  0  -0.115407  -0.307472  0  1.883223  0
O  O64  1  0.72028378  0.21148383  0.41991624  1  -0.407237  0  -0.110253  -0.294971  0  1.86991  0
O  O65  1  0.60891038  0.28386059  0.35083806  1  -0.394929  0  -0.089331  -0.269119  0  1.952447  0
O  O66  1  0.34163465  0.70410312  0.59972266  1  -0.365885  0  -0.08404  -0.254541  0  1.934643  0
O  O67  1  0.40940154  0.77929328  0.70649334  1  -0.433317  0  -0.115257  -0.307365  0  1.882646  0
