# generated using pymatgen
data_CsH5C14(O2F3)2
_symmetry_space_group_name_H-M   'P 1'
_cell_length_a   7.20468327
_cell_length_b   14.15302911
_cell_length_c   14.47900000
_cell_angle_alpha   90.06975636
_cell_angle_beta   90.00000000
_cell_angle_gamma   90.00000000
_symmetry_Int_Tables_number   1
_chemical_formula_structural   CsH5C14(O2F3)2
_chemical_formula_sum   'Cs4 H20 C56 O16 F24'
_cell_volume   1476.39491142
_cell_formula_units_Z   4
loop_
 _symmetry_equiv_pos_site_id
 _symmetry_equiv_pos_as_xyz
  1  'x, y, z'
loop_
 _atom_site_type_symbol
 _atom_site_label
 _atom_site_symmetry_multiplicity
 _atom_site_fract_x
 _atom_site_fract_y
 _atom_site_fract_z
 _atom_site_occupancy
 _atom_site_hle17_bader_spin_density
 _atom_site_hle17_ddec_charge
 _atom_site_hle17_ddec_spin_density
 _atom_site_hle17_ddec_sum_bond_order
 _atom_site_hle17_magmom
 _atom_site_hse06_10hf_bader_spin_density
 _atom_site_hse06_10hf_ddec_charge
 _atom_site_hse06_10hf_ddec_spin_density
 _atom_site_hse06_10hf_ddec_sum_bond_order
 _atom_site_hse06_10hf_magmom
 _atom_site_hse06_bader_spin_density
 _atom_site_hse06_ddec_charge
 _atom_site_hse06_ddec_spin_density
 _atom_site_hse06_ddec_sum_bond_order
 _atom_site_hse06_magmom
 _atom_site_pbe_bader_charge
 _atom_site_pbe_bader_spin_density
 _atom_site_pbe_cm5_charge
 _atom_site_pbe_ddec_charge
 _atom_site_pbe_ddec_spin_density
 _atom_site_pbe_ddec_sum_bond_order
 _atom_site_pbe_magmom
Cs  Cs0  1  0.64487359  0.05687338  0.35147110  1  0  0.955758  0  0.50987  0  0  0.892339  0  0.735925  0  0  0.909271  0  0.711028  0  0.931284  0  0.807228  0.879875  0  0.75364  0
Cs  Cs1  1  0.14487243  0.44312667  0.64853067  1  0  0.95579  0  0.509882  0  0  0.892342  0  0.735906  0  0  0.909471  0  0.710772  0  0.931293  0  0.807203  0.879878  0  0.753619  0
Cs  Cs2  1  0.35512595  0.94312601  0.64852966  1  0  0.955773  0  0.509898  0  0  0.892343  0  0.735909  0  0  0.909313  0  0.710981  0  0.93128  0  0.807217  0.879879  0  0.753622  0
Cs  Cs3  1  0.85512572  0.55687484  0.35146940  1  0  0.955465  0  0.510244  0  0  0.892341  0  0.735931  0  0  0.909275  0  0.711042  0  0.931299  0  0.807217  0.879876  0  0.753644  0
H  H4  1  0.84284621  0.06865602  0.71076062  1  0  0.163544  0  0.934137  0  0  0.163824  0  1.007229  0  0  0.169721  0  1.0019  0  0.161285  0  0.120341  0.159667  0  1.011083  0
H  H5  1  0.34284366  0.43134261  0.28924045  1  0  0.163537  0  0.934096  0  0  0.163854  0  1.007148  0  0  0.16973  0  1.00181  0  0.161333  0  0.120374  0.159697  0  1.011001  0
H  H6  1  0.15715611  0.93134478  0.28923807  1  0  0.163553  0  0.934151  0  0  0.163829  0  1.007254  0  0  0.169712  0  1.001892  0  0.161262  0  0.120349  0.159672  0  1.01111  0
H  H7  1  0.65715588  0.56865537  0.71076031  1  0  0.163575  0  0.934151  0  0  0.163831  0  1.007213  0  0  0.169789  0  1.001667  0  0.161282  0  0.120338  0.159673  0  1.011066  0
H  H8  1  0.59013698  0.33008011  0.80207664  1  0  0.166419  0  0.929518  0  0  0.169139  0  0.99826  0  0  0.174208  0  0.994267  0  0.161498  0  0.118169  0.165579  0  1.001094  0
H  H9  1  0.09013443  0.16991923  0.19792512  1  0  0.166422  0  0.929517  0  0  0.169118  0  0.998295  0  0  0.174113  0  0.994434  0  0.161502  0  0.118167  0.165562  0  1.001127  0
H  H10  1  0.40986535  0.66992140  0.19792344  1  0  0.166424  0  0.929517  0  0  0.16914  0  0.998265  0  0  0.174127  0  0.99442  0  0.1615  0  0.118166  0.16558  0  1.001099  0
H  H11  1  0.90986512  0.83007946  0.80207563  1  0  0.166423  0  0.929503  0  0  0.169137  0  0.998256  0  0  0.174137  0  0.994392  0  0.161515  0  0.118155  0.165576  0  1.001094  0
H  H12  1  0.80609512  0.05630460  0.99342152  1  0  0.168143  0  0.93292  0  0  0.170121  0  1.002423  0  0  0.175231  0  0.998718  0  0.150673  0  0.112748  0.166425  0  1.00529  0
H  H13  1  0.30610090  0.44369757  0.00657679  1  0  0.168058  0  0.932933  0  0  0.170023  0  1.00246  0  0  0.175323  0  0.998461  0  0.150573  0  0.112662  0.16633  0  1.00533  0
H  H14  1  0.19389888  0.94369691  0.00657993  1  0  0.1681  0  0.932854  0  0  0.170074  0  1.002355  0  0  0.175378  0  0.998338  0  0.150545  0  0.112705  0.16638  0  1.005224  0
H  H15  1  0.69389587  0.55630182  0.99342051  1  0  0.168097  0  0.932893  0  0  0.170048  0  1.002441  0  0  0.175384  0  0.998322  0  0.150553  0  0.112677  0.166353  0  1.005309  0
H  H16  1  0.53050077  0.80042642  0.90456469  1  0  0.171417  0  0.961188  0  0  0.174336  0  1.029294  0  0  0.179848  0  1.02517  0  0.191351  0  0.112697  0.170432  0  1.032326  0
H  H17  1  0.03048989  0.69957302  0.09543092  1  0  0.171402  0  0.961086  0  0  0.174299  0  1.029216  0  0  0.179803  0  1.025106  0  0.191381  0  0.112666  0.170391  0  1.032256  0
H  H18  1  0.46951266  0.19957227  0.09543261  1  0  0.171422  0  0.961162  0  0  0.174336  0  1.029278  0  0  0.179857  0  1.025125  0  0.191311  0  0.112694  0.170428  0  1.032314  0
H  H19  1  0.96950827  0.30042778  0.90456984  1  0  0.171394  0  0.961206  0  0  0.174323  0  1.029301  0  0  0.179808  0  1.025161  0  0.191383  0  0.112675  0.170417  0  1.032341  0
H  H20  1  0.75256049  0.30949935  0.34836335  1  0  0.394084  0  0.905537  0  0  0.362148  0  0.984596  0  0  0.376654  0  0.971147  0  0.63622  0  0.287996  0.352119  0  0.993729  0
H  H21  1  0.25256072  0.19050141  0.65163703  1  0  0.394085  0  0.905556  0  0  0.362152  0  0.98461  0  0  0.376665  0  0.971153  0  0.636213  0  0.288003  0.352124  0  0.993742  0
H  H22  1  0.24743905  0.69050287  0.65163741  1  0  0.394135  0  0.905475  0  0  0.362185  0  0.984588  0  0  0.376691  0  0.971142  0  0.636196  0  0.288018  0.352156  0  0.993722  0
H  H23  1  0.74743327  0.80949939  0.34836304  1  0  0.394084  0  0.905533  0  0  0.362111  0  0.984681  0  0  0.376617  0  0.971231  0  0.636221  0  0.287982  0.352087  0  0.993797  0
C  C24  1  0.78408166  0.31442550  0.49262987  1  0  0.718348  0  3.855294  0  0  0.665772  0  4.166432  0  0  0.7016  0  4.153776  0  1.624976  0  0.217546  0.641441  0  4.174622  0
C  C25  1  0.28408327  0.18557313  0.50737120  1  0  0.71843  0  3.855219  0  0  0.665846  0  4.166378  0  0  0.701686  0  4.153686  0  1.624827  0  0.217574  0.641526  0  4.174549  0
C  C26  1  0.21592344  0.68557601  0.50736882  1  0  0.718206  0  3.855604  0  0  0.665819  0  4.166371  0  0  0.70165  0  4.153693  0  1.625522  0  0.217568  0.641479  0  4.174582  0
C  C27  1  0.71591627  0.81442485  0.49262956  1  0  0.718406  0  3.855381  0  0  0.665878  0  4.166356  0  0  0.701711  0  4.153667  0  1.625265  0  0.217613  0.641543  0  4.174556  0
C  C28  1  0.74772475  0.26933548  0.58516064  1  0  -0.291031  0  3.729504  0  0  -0.296381  0  3.989574  0  0  -0.307929  0  4.005729  0  0.075742  0  -0.036884  -0.289115  0  3.979294  0
C  C29  1  0.24772359  0.23066245  0.41484112  1  0  -0.290921  0  3.729566  0  0  -0.296244  0  3.989614  0  0  -0.307844  0  4.005883  0  0.075293  0  -0.036873  -0.288985  0  3.979333  0
C  C30  1  0.25227757  0.73066603  0.41483874  1  0  -0.291007  0  3.729434  0  0  -0.296378  0  3.98951  0  0  -0.307982  0  4.005779  0  0.075737  0  -0.036882  -0.289115  0  3.979244  0
C  C31  1  0.75227734  0.76933340  0.58516033  1  0  -0.29098  0  3.729677  0  0  -0.296291  0  3.989493  0  0  -0.307891  0  4.005777  0  0.075656  0  -0.036855  -0.289026  0  3.979222  0
C  C32  1  0.80215462  0.17716433  0.60747653  1  0  0.370674  0  3.737995  0  0  0.349492  0  4.024998  0  0  0.365199  0  4.032416  0  0.461037  0  0.121448  0.338741  0  4.020238  0
C  C33  1  0.30215485  0.32283360  0.39252454  1  0  0.370643  0  3.73814  0  0  0.349457  0  4.02515  0  0  0.365014  0  4.032741  0  0.461135  0  0.121476  0.338706  0  4.020385  0
C  C34  1  0.19784631  0.82283718  0.39252216  1  0  0.370873  0  3.73787  0  0  0.349648  0  4.02498  0  0  0.365206  0  4.032563  0  0.460947  0  0.121501  0.338898  0  4.020222  0
C  C35  1  0.69784608  0.67716437  0.60747622  1  0  0.369773  0  3.739408  0  0  0.349542  0  4.024989  0  0  0.365098  0  4.032605  0  0.461002  0  0.121462  0.338789  0  4.020228  0
C  C36  1  0.79181552  0.13929467  0.69577251  1  0  -0.313771  0  3.708463  0  0  -0.363018  0  3.987854  0  0  -0.370665  0  3.999713  0  0.102825  0  -0.107295  -0.358069  0  3.980182  0
C  C37  1  0.29181574  0.36070326  0.30422925  1  0  -0.31376  0  3.70844  0  0  -0.363044  0  3.987863  0  0  -0.370548  0  3.999363  0  0.102635  0  -0.107346  -0.358104  0  3.980217  0
C  C38  1  0.20818681  0.86070684  0.30422756  1  0  -0.313851  0  3.708462  0  0  -0.363081  0  3.987897  0  0  -0.37058  0  3.999391  0  0.102656  0  -0.10733  -0.358127  0  3.980215  0
C  C39  1  0.70818658  0.63929401  0.69577151  1  0  -0.314031  0  3.70881  0  0  -0.363066  0  3.987788  0  0  -0.37049  0  3.999095  0  0.102686  0  -0.10733  -0.35813  0  3.980157  0
C  C40  1  0.71826197  0.19691912  0.76426847  1  0  0.391524  0  3.766709  0  0  0.377894  0  4.055251  0  0  0.392553  0  4.063975  0  0.389835  0  0.11349  0.367873  0  4.049465  0
C  C41  1  0.21825942  0.30307951  0.23573260  1  0  0.391528  0  3.766482  0  0  0.377848  0  4.055094  0  0  0.393315  0  4.062543  0  0.390006  0  0.113419  0.367828  0  4.049304  0
C  C42  1  0.28174035  0.80308239  0.23573091  1  0  0.391542  0  3.76662  0  0  0.377826  0  4.055295  0  0  0.393297  0  4.062745  0  0.389974  0  0.113442  0.367806  0  4.049509  0
C  C43  1  0.78174151  0.69691776  0.76426815  1  0  0.391724  0  3.766325  0  0  0.377846  0  4.05517  0  0  0.393368  0  4.062479  0  0.390008  0  0.113446  0.367825  0  4.04938  0
C  C44  1  0.65271155  0.28765312  0.74777378  1  0  -0.314892  0  3.727059  0  0  -0.361765  0  4.004052  0  0  -0.369978  0  4.018094  0  0.079384  0  -0.111252  -0.356353  0  3.994751  0
C  C45  1  0.15270900  0.21234481  0.25222729  1  0  -0.314922  0  3.726789  0  0  -0.361733  0  4.003787  0  0  -0.369925  0  4.017761  0  0.079362  0  -0.111261  -0.356323  0  3.994487  0
C  C46  1  0.34729077  0.71234839  0.25222560  1  0  -0.314925  0  3.727069  0  0  -0.361777  0  4.004107  0  0  -0.369976  0  4.018095  0  0.079371  0  -0.111256  -0.356364  0  3.994804  0
C  C47  1  0.84729332  0.78765246  0.74777278  1  0  -0.314877  0  3.726841  0  0  -0.361769  0  4.003993  0  0  -0.369957  0  4.017985  0  0.079066  0  -0.111232  -0.356355  0  3.99469  0
C  C48  1  0.67093026  0.32107002  0.65834190  1  0  0.339576  0  3.776644  0  0  0.318911  0  4.065464  0  0  0.333544  0  4.074504  0  0.428693  0  0.104895  0.308924  0  4.059542  0
C  C49  1  0.17092771  0.17892932  0.34166055  1  0  0.339525  0  3.776559  0  0  0.318801  0  4.065441  0  0  0.333254  0  4.074724  0  0.428829  0  0.104875  0.308815  0  4.059519  0
C  C50  1  0.32907206  0.67893149  0.34165748  1  0  0.339536  0  3.77668  0  0  0.318887  0  4.06549  0  0  0.333343  0  4.074767  0  0.428495  0  0.104879  0.3089  0  4.05957  0
C  C51  1  0.82907323  0.82106866  0.65834159  1  0  0.339655  0  3.776492  0  0  0.318838  0  4.065523  0  0  0.333293  0  4.074805  0  0.428784  0  0.104844  0.308851  0  4.059601  0
C  C52  1  0.77975530  0.80245991  0.20544701  1  0  0.704373  0  3.856186  0  0  0.65454  0  4.162879  0  0  0.689049  0  4.152387  0  1.619534  0  0.218011  0.631128  0  4.169573  0
C  C53  1  0.27975831  0.69754448  0.79455138  1  0  0.7045  0  3.855942  0  0  0.654564  0  4.16279  0  0  0.689075  0  4.152323  0  1.619758  0  0.218025  0.631155  0  4.169477  0
C  C54  1  0.22024563  0.19754160  0.79455307  1  0  0.704474  0  3.856143  0  0  0.654645  0  4.162796  0  0  0.689169  0  4.152252  0  1.619676  0  0.218088  0.631233  0  4.169489  0
C  C55  1  0.72024263  0.30245703  0.20544869  1  0  0.704426  0  3.85601  0  0  0.654621  0  4.162635  0  0  0.689139  0  4.152125  0  1.619738  0  0.218064  0.631213  0  4.169322  0
C  C56  1  0.74440330  0.84826780  0.11309942  1  0  -0.290467  0  3.725978  0  0  -0.29891  0  3.991669  0  0  -0.309382  0  4.006009  0  0.102651  0  -0.039848  -0.292162  0  3.982187  0
C  C57  1  0.24440214  0.65173376  0.88689827  1  0  -0.290484  0  3.725905  0  0  -0.298866  0  3.99159  0  0  -0.309322  0  4.005882  0  0.102889  0  -0.039793  -0.292119  0  3.982108  0
C  C58  1  0.25560041  0.15173159  0.88690134  1  0  -0.290588  0  3.725993  0  0  -0.299021  0  3.991711  0  0  -0.309612  0  4.006301  0  0.102723  0  -0.039897  -0.292272  0  3.982232  0
C  C59  1  0.75559741  0.34826705  0.11310042  1  0  -0.290464  0  3.725886  0  0  -0.29891  0  3.991625  0  0  -0.309364  0  4.005986  0  0.102927  0  -0.03982  -0.292164  0  3.982143  0
C  C60  1  0.79573796  0.94110595  0.09156614  1  0  0.352958  0  3.74935  0  0  0.330587  0  4.041327  0  0  0.34582  0  4.048423  0  0.416091  0  0.108284  0.320312  0  4.036546  0
C  C61  1  0.29574097  0.55889561  0.90843085  1  0  0.352945  0  3.749473  0  0  0.330569  0  4.041418  0  0  0.34585  0  4.048373  0  0.416172  0  0.108338  0.320298  0  4.036634  0
C  C62  1  0.20426019  0.05889486  0.90843393  1  0  0.352959  0  3.749388  0  0  0.330587  0  4.041358  0  0  0.345808  0  4.048474  0  0.416082  0  0.108295  0.320313  0  4.036579  0
C  C63  1  0.70425719  0.44110519  0.09156922  1  0  0.353007  0  3.749496  0  0  0.330597  0  4.041506  0  0  0.345808  0  4.04869  0  0.415965  0  0.108298  0.320324  0  4.036723  0
C  C64  1  0.76281355  0.98407699  0.00689320  1  0  -0.313142  0  3.721483  0  0  -0.362051  0  4.002939  0  0  -0.370168  0  4.017762  0  0.070661  0  -0.116597  -0.356735  0  3.993246  0
C  C65  1  0.26281516  0.51592386  0.99310449  1  0  -0.313019  0  3.721654  0  0  -0.3619  0  4.003019  0  0  -0.369914  0  4.017572  0  0.070752  0  -0.11654  -0.356587  0  3.993319  0
C  C66  1  0.23718461  0.01592381  0.99310687  1  0  -0.313032  0  3.721464  0  0  -0.361917  0  4.002873  0  0  -0.369947  0  4.017456  0  0.070748  0  -0.116543  -0.356587  0  3.993144  0
C  C67  1  0.73717328  0.48407341  0.00689420  1  0  -0.31312  0  3.721732  0  0  -0.361966  0  4.003082  0  0  -0.369728  0  4.017038  0  0.070858  0  -0.116503  -0.356653  0  3.993401  0
C  C68  1  0.66893156  0.93021993  0.94155043  1  0  0.377445  0  3.779168  0  0  0.363089  0  4.070283  0  0  0.376688  0  4.08015  0  0.388254  0  0.105851  0.353678  0  4.063916  0
C  C69  1  0.16892901  0.56977951  0.05844588  1  0  0.377156  0  3.77939  0  0  0.362836  0  4.070437  0  0  0.3764  0  4.080349  0  0.388368  0  0.105771  0.353429  0  4.064062  0
C  C70  1  0.33107215  0.06978087  0.05844895  1  0  0.377208  0  3.779463  0  0  0.362861  0  4.070551  0  0  0.376458  0  4.080359  0  0.388261  0  0.105773  0.353451  0  4.064178  0
C  C71  1  0.83105943  0.43021988  0.94155212  1  0  0.377237  0  3.779333  0  0  0.362925  0  4.070358  0  0  0.377366  0  4.079036  0  0.388409  0  0.10581  0.353506  0  4.064002  0
C  C72  1  0.60985471  0.83832151  0.95699669  1  0  -0.315517  0  3.716033  0  0  -0.36428  0  3.995317  0  0  -0.37185  0  4.008079  0  0.146986  0  -0.119303  -0.359266  0  3.986883  0
C  C73  1  0.10984938  0.66167863  0.04300030  1  0  -0.315313  0  3.715953  0  0  -0.364015  0  3.995152  0  0  -0.371624  0  4.008008  0  0.146862  0  -0.119212  -0.359008  0  3.986734  0
C  C74  1  0.39015317  0.16167717  0.04300199  1  0  -0.3154  0  3.716058  0  0  -0.364103  0  3.995252  0  0  -0.371697  0  4.008099  0  0.146964  0  -0.119255  -0.359104  0  3.986856  0
C  C75  1  0.89015016  0.33832005  0.95699976  1  0  -0.3153  0  3.715933  0  0  -0.364054  0  3.995158  0  0  -0.371531  0  4.007549  0  0.14689  0  -0.119212  -0.359031  0  3.986706  0
C  C76  1  0.65258525  0.79949587  0.04217184  1  0  0.362193  0  3.744602  0  0  0.337288  0  4.039862  0  0  0.352866  0  4.046548  0  0.392238  0  0.108705  0.326747  0  4.035312  0
C  C77  1  0.15258131  0.70050356  0.95782515  1  0  0.362112  0  3.744736  0  0  0.337153  0  4.040011  0  0  0.352732  0  4.046713  0  0.392059  0  0.108663  0.326614  0  4.035456  0
C  C78  1  0.34741846  0.20050281  0.95782822  1  0  0.362197  0  3.744628  0  0  0.337269  0  4.039921  0  0  0.352635  0  4.047012  0  0.392159  0  0.108708  0.326724  0  4.035369  0
C  C79  1  0.84741685  0.29949512  0.04217492  1  0  0.362107  0  3.744753  0  0  0.337148  0  4.040066  0  0  0.352684  0  4.046868  0  0.392018  0  0.108632  0.326612  0  4.035512  0
O  O80  1  0.86095943  0.39331892  0.49085208  1  0  -0.651667  0  1.926093  0  0  -0.615343  0  2.161152  0  0  -0.637624  0  2.150817  0  -1.177513  0  -0.435927  -0.599803  0  2.167896  0
O  O81  1  0.36096660  0.10668113  0.50915037  1  0  -0.651749  0  1.925998  0  0  -0.615401  0  2.161105  0  0  -0.637684  0  2.150762  0  -1.177544  0  -0.435935  -0.599866  0  2.167846  0
O  O82  1  0.13904289  0.60668188  0.50914730  1  0  -0.651606  0  1.926176  0  0  -0.615348  0  2.161138  0  0  -0.63763  0  2.150794  0  -1.177706  0  -0.435896  -0.599804  0  2.167888  0
O  O83  1  0.63904683  0.89331968  0.49085315  1  0  -0.651613  0  1.9261  0  0  -0.615396  0  2.161239  0  0  -0.637676  0  2.150899  0  -1.177477  0  -0.435958  -0.599857  0  2.167988  0
O  O84  1  0.73215293  0.26594751  0.42102442  1  0  -0.619768  0  2.065197  0  0  -0.573116  0  2.304805  0  0  -0.599592  0  2.294249  0  -1.177264  0  -0.37049  -0.55469  0  2.311358  0
O  O85  1  0.23214900  0.23405042  0.57897734  1  0  -0.619773  0  2.065171  0  0  -0.573105  0  2.304769  0  0  -0.599579  0  2.294196  0  -1.1771  0  -0.370474  -0.554679  0  2.311307  0
O  O86  1  0.26784661  0.73405542  0.57897496  1  0  -0.619928  0  2.065477  0  0  -0.573174  0  2.304774  0  0  -0.599659  0  2.29423  0  -1.177269  0  -0.370536  -0.554741  0  2.311324  0
O  O87  1  0.76783528  0.76594402  0.42102272  1  0  -0.619966  0  2.065473  0  0  -0.573139  0  2.304705  0  0  -0.59964  0  2.294193  0  -1.177266  0  -0.370509  -0.554708  0  2.311254  0
O  O88  1  0.72958655  0.85269371  0.27664291  1  0  -0.627445  0  2.079268  0  0  -0.580345  0  2.316027  0  0  -0.606482  0  2.305927  0  -1.179005  0  -0.381181  -0.562291  0  2.322496  0
O  O89  1  0.22958678  0.64730926  0.72335477  1  0  -0.627512  0  2.079124  0  0  -0.580399  0  2.315949  0  0  -0.606523  0  2.305806  0  -1.179097  0  -0.38122  -0.562343  0  2.322411  0
O  O90  1  0.27041577  0.14730850  0.72335716  1  0  -0.627512  0  2.079351  0  0  -0.580383  0  2.316088  0  0  -0.606467  0  2.305929  0  -1.179112  0  -0.381186  -0.562328  0  2.322552  0
O  O91  1  0.77041416  0.35269296  0.27664530  1  0  -0.627501  0  2.079191  0  0  -0.58042  0  2.315934  0  0  -0.606557  0  2.305829  0  -1.179132  0  -0.381202  -0.562363  0  2.322396  0
O  O92  1  0.84839399  0.72191666  0.20894809  1  0  -0.613787  0  1.93205  0  0  -0.577717  0  2.163548  0  0  -0.599709  0  2.1553  0  -1.173654  0  -0.368815  -0.562516  0  2.168959  0
O  O93  1  0.34839561  0.77808489  0.79105167  1  0  -0.613798  0  1.932064  0  0  -0.577678  0  2.163632  0  0  -0.599658  0  2.15537  0  -1.173774  0  -0.368795  -0.562477  0  2.169039  0
O  O94  1  0.15160555  0.27808414  0.79105336  1  0  -0.613859  0  1.932083  0  0  -0.577739  0  2.163567  0  0  -0.599596  0  2.155097  0  -1.173684  0  -0.368831  -0.562539  0  2.168979  0
O  O95  1  0.65160672  0.22191591  0.20894909  1  0  -0.613825  0  1.932096  0  0  -0.577716  0  2.163567  0  0  -0.599691  0  2.155303  0  -1.17369  0  -0.368829  -0.562514  0  2.168977  0
F  F96  1  0.87589138  0.12160021  0.54002039  1  0  -0.206475  0  1.21477  0  0  -0.148105  0  1.373277  0  0  -0.157602  0  1.362878  0  -0.637783  0  -0.096699  -0.141277  0  1.38031  0
F  F97  1  0.37589161  0.37839843  0.45998136  1  0  -0.20648  0  1.214728  0  0  -0.148107  0  1.373218  0  0  -0.15763  0  1.362855  0  -0.637789  0  -0.096709  -0.141277  0  1.380251  0
F  F98  1  0.12410816  0.87839989  0.45997898  1  0  -0.206525  0  1.214738  0  0  -0.148208  0  1.373287  0  0  -0.157729  0  1.362927  0  -0.637787  0  -0.09675  -0.141381  0  1.380319  0
F  F99  1  0.62410655  0.62160026  0.54002008  1  0  -0.205945  0  1.214908  0  0  -0.148139  0  1.37324  0  0  -0.15766  0  1.362885  0  -0.637805  0  -0.096704  -0.14131  0  1.380275  0
F  F100  1  0.71062527  0.16322454  0.85202863  1  0  -0.211937  0  1.225755  0  0  -0.152203  0  1.386871  0  0  -0.164061  0  1.37897  0  -0.634445  0  -0.085663  -0.143716  0  1.392166  0
F  F101  1  0.21062550  0.33677409  0.14797313  1  0  -0.211944  0  1.225762  0  0  -0.152198  0  1.386895  0  0  -0.1646  0  1.37889  0  -0.634378  0  -0.085615  -0.14371  0  1.392191  0
F  F102  1  0.28938122  0.83677697  0.14797144  1  0  -0.21191  0  1.225784  0  0  -0.152177  0  1.386959  0  0  -0.164613  0  1.378971  0  -0.634476  0  -0.08563  -0.143692  0  1.392254  0
F  F103  1  0.78938099  0.66322318  0.85202763  1  0  -0.211877  0  1.225684  0  0  -0.152166  0  1.386901  0  0  -0.164351  0  1.378765  0  -0.634441  0  -0.085613  -0.143677  0  1.392197  0
F  F104  1  0.60728971  0.41053433  0.64126072  1  0  -0.220419  0  1.219292  0  0  -0.165083  0  1.384361  0  0  -0.174748  0  1.373773  0  -0.637931  0  -0.102302  -0.158081  0  1.391464  0
F  F105  1  0.10728161  0.08946572  0.35874104  1  0  -0.220369  0  1.219159  0  0  -0.165028  0  1.384346  0  0  -0.174736  0  1.373867  0  -0.637738  0  -0.102278  -0.158026  0  1.391449  0
F  F106  1  0.39271261  0.58946718  0.35873797  1  0  -0.220355  0  1.219291  0  0  -0.165043  0  1.384386  0  0  -0.174746  0  1.373905  0  -0.637887  0  -0.102267  -0.15804  0  1.391489  0
F  F107  1  0.89271516  0.91053226  0.64126040  1  0  -0.220318  0  1.219165  0  0  -0.165046  0  1.384409  0  0  -0.174733  0  1.373917  0  -0.6379  0  -0.102272  -0.158044  0  1.391513  0
F  F108  1  0.88749356  0.99287653  0.15698310  1  0  -0.216859  0  1.197447  0  0  -0.159927  0  1.358837  0  0  -0.169876  0  1.348743  0  -0.641084  0  -0.104724  -0.15293  0  1.365609  0
F  F109  1  0.38750073  0.50712574  0.84301459  1  0  -0.216838  0  1.19749  0  0  -0.159938  0  1.35889  0  0  -0.169855  0  1.348665  0  -0.641133  0  -0.104761  -0.152939  0  1.365659  0
F  F110  1  0.11249905  0.00712428  0.84301835  1  0  -0.216874  0  1.197451  0  0  -0.159953  0  1.358837  0  0  -0.169909  0  1.348769  0  -0.641084  0  -0.104755  -0.152958  0  1.365611  0
F  F111  1  0.61250298  0.49287719  0.15698548  1  0  -0.216834  0  1.197438  0  0  -0.159934  0  1.358868  0  0  -0.169908  0  1.348803  0  -0.641158  0  -0.104763  -0.152938  0  1.365642  0
F  F112  1  0.63179321  0.96924058  0.85739353  1  0  -0.221595  0  1.197043  0  0  -0.162874  0  1.351839  0  0  -0.172677  0  1.343083  0  -0.636148  0  -0.096996  -0.155814  0  1.357723  0
F  F113  1  0.13179483  0.53076098  0.14260346  1  0  -0.221463  0  1.197034  0  0  -0.16281  0  1.35186  0  0  -0.172416  0  1.342883  0  -0.636155  0  -0.096975  -0.155748  0  1.357741  0
F  F114  1  0.36820633  0.03076093  0.14260654  1  0  -0.221522  0  1.197125  0  0  -0.162817  0  1.351922  0  0  -0.172415  0  1.342926  0  -0.636138  0  -0.096961  -0.155757  0  1.357806  0
F  F115  1  0.86818945  0.46923559  0.85739315  1  0  -0.221499  0  1.197068  0  0  -0.16284  0  1.351883  0  0  -0.175153  0  1.345618  0  -0.636165  0  -0.097001  -0.155775  0  1.357768  0
F  F116  1  0.59558899  0.70912717  0.05813378  1  0  -0.207545  0  1.224308  0  0  -0.148371  0  1.391204  0  0  -0.159961  0  1.382792  0  -0.636387  0  -0.083421  -0.140135  0  1.39674  0
F  F117  1  0.09558644  0.79087298  0.94186253  1  0  -0.207556  0  1.224308  0  0  -0.14834  0  1.391171  0  0  -0.159935  0  1.382771  0  -0.636443  0  -0.083428  -0.140103  0  1.396709  0
F  F118  1  0.40441334  0.29087222  0.94186491  1  0  -0.207532  0  1.22428  0  0  -0.148378  0  1.391193  0  0  -0.15991  0  1.382891  0  -0.63638  0  -0.083441  -0.140142  0  1.396735  0
F  F119  1  0.90441311  0.20912782  0.05813823  1  0  -0.207563  0  1.22434  0  0  -0.148332  0  1.391199  0  0  -0.159908  0  1.382884  0  -0.636472  0  -0.083412  -0.140095  0  1.396735  0
