# generated using pymatgen
data_Li2PH24C22S2(O3F)3
_symmetry_space_group_name_H-M   'P 1'
_cell_length_a   10.07513035
_cell_length_b   10.74923303
_cell_length_c   13.12280000
_cell_angle_alpha   104.79239766
_cell_angle_beta   91.95368727
_cell_angle_gamma   109.18452327
_symmetry_Int_Tables_number   1
_chemical_formula_structural   Li2PH24C22S2(O3F)3
_chemical_formula_sum   'Li4 P2 H48 C44 S4 O18 F6'
_cell_volume   1286.90627048
_cell_formula_units_Z   2
loop_
 _symmetry_equiv_pos_site_id
 _symmetry_equiv_pos_as_xyz
  1  'x, y, z'
loop_
 _atom_site_type_symbol
 _atom_site_label
 _atom_site_symmetry_multiplicity
 _atom_site_fract_x
 _atom_site_fract_y
 _atom_site_fract_z
 _atom_site_occupancy
 _atom_site_hle17_bader_spin_density
 _atom_site_hle17_ddec_charge
 _atom_site_hle17_ddec_spin_density
 _atom_site_hle17_ddec_sum_bond_order
 _atom_site_hle17_magmom
 _atom_site_hse06_10hf_bader_spin_density
 _atom_site_hse06_10hf_ddec_charge
 _atom_site_hse06_10hf_ddec_spin_density
 _atom_site_hse06_10hf_ddec_sum_bond_order
 _atom_site_hse06_10hf_magmom
 _atom_site_hse06_bader_spin_density
 _atom_site_hse06_ddec_charge
 _atom_site_hse06_ddec_spin_density
 _atom_site_hse06_ddec_sum_bond_order
 _atom_site_hse06_magmom
 _atom_site_pbe_bader_charge
 _atom_site_pbe_bader_spin_density
 _atom_site_pbe_cm5_charge
 _atom_site_pbe_ddec_charge
 _atom_site_pbe_ddec_spin_density
 _atom_site_pbe_ddec_sum_bond_order
 _atom_site_pbe_magmom
Li  Li0  1  0.32891827  0.28859420  0.45499234  1  0  0.872696  0  0.358768  0  0  0.835669  0  0.458197  0  0  0.844628  0  0.442399  0  0.876886  0  0.496269  0.828972  0  0.469813  0
Li  Li1  1  0.67108289  0.71140611  0.54500738  1  0  0.872703  0  0.358765  0  0  0.835681  0  0.458185  0  0  0.844639  0  0.442388  0  0.876886  0  0.496268  0.82898  0  0.469802  0
Li  Li2  1  0.89475787  0.27877715  0.46818776  1  0  0.855516  0  0.409753  0  0  0.822587  0  0.503133  0  0  0.830351  0  0.488617  0  0.864362  0  0.535192  0.816765  0  0.513854  0
Li  Li3  1  0.10524094  0.72122213  0.53181244  1  0  0.855506  0  0.409765  0  0  0.822575  0  0.503157  0  0  0.830338  0  0.488638  0  0.864363  0  0.535183  0.816755  0  0.513877  0
P  P4  1  0.42193118  0.48831128  0.71957267  1  0  0.285004  0  3.127585  0  0  0.199401  0  3.517689  0  0  0.210522  0  3.518095  0  1.335637  0  0.070155  0.192117  0  3.517424  0
P  P5  1  0.57806998  0.51168903  0.28042780  1  0  0.285029  0  3.127579  0  0  0.199433  0  3.517645  0  0  0.210553  0  3.518059  0  1.335685  0  0.070182  0.192152  0  3.517388  0
H  H6  1  0.08010094  0.45090155  0.40857647  1  0  0.378253  0  0.90959  0  0  0.358269  0  0.972811  0  0  0.367462  0  0.96225  0  0.629542  0  0.314785  0.351716  0  0.980393  0
H  H7  1  0.91989923  0.54909876  0.59142322  1  0  0.378244  0  0.909597  0  0  0.358264  0  0.972813  0  0  0.367455  0  0.962253  0  0.629537  0  0.314785  0.351711  0  0.980392  0
H  H8  1  0.84100724  0.02284793  0.41007048  1  0  0.385066  0  0.89158  0  0  0.362521  0  0.958479  0  0  0.371632  0  0.947944  0  0.645493  0  0.309029  0.356028  0  0.966027  0
H  H9  1  0.15899393  0.97715238  0.58993076  1  0  0.385068  0  0.891589  0  0  0.36253  0  0.958479  0  0  0.371639  0  0.947947  0  0.645494  0  0.309043  0.356037  0  0.966027  0
H  H10  1  0.95640708  0.18484724  0.78533026  1  0  0.096407  0  0.969133  0  0  0.106754  0  1.031466  0  0  0.109621  0  1.030128  0  0.066416  0  0.106434  0.104964  0  1.03196  0
H  H11  1  0.04359247  0.81515410  0.21466734  1  0  0.09642  0  0.96909  0  0  0.106752  0  1.031444  0  0  0.109612  0  1.030111  0  0.066697  0  0.10643  0.104956  0  1.031941  0
H  H12  1  0.97062294  0.32351707  0.97246468  1  0  0.091771  0  0.961992  0  0  0.097611  0  1.029918  0  0  0.10144  0  1.027152  0  0.087249  0  0.097585  0.094807  0  1.032227  0
H  H13  1  0.02937587  0.67648221  0.02753475  1  0  0.091737  0  0.961999  0  0  0.097754  0  1.02963  0  0  0.101402  0  1.027162  0  0.087247  0  0.097559  0.094771  0  1.032235  0
H  H14  1  0.18059103  0.53831961  0.04812079  1  0  0.086427  0  0.96217  0  0  0.09721  0  1.02287  0  0  0.099262  0  1.023186  0  0.075743  0  0.099496  0.095436  0  1.023268  0
H  H15  1  0.81940902  0.46167762  0.95188054  1  0  0.086434  0  0.962196  0  0  0.097226  0  1.022905  0  0  0.099293  0  1.023186  0  0.075967  0  0.099507  0.095465  0  1.023269  0
H  H16  1  0.37258360  0.60590952  0.94144184  1  0  0.083034  0  1.000787  0  0  0.092652  0  1.066447  0  0  0.094381  0  1.067726  0  0.080935  0  0.094516  0.091455  0  1.065496  0
H  H17  1  0.62741881  0.39408874  0.05855977  1  0  0.083027  0  1.000837  0  0  0.092571  0  1.066693  0  0  0.094363  0  1.067782  0  0.080924  0  0.094501  0.091432  0  1.065578  0
H  H18  1  0.43002603  0.76208493  0.74338186  1  0  0.106444  0  0.931976  0  0  0.116734  0  0.991067  0  0  0.120319  0  0.988939  0  0.073307  0  0.114217  0.114023  0  0.992869  0
H  H19  1  0.56997315  0.23791538  0.25661857  1  0  0.10643  0  0.931921  0  0  0.116709  0  0.99105  0  0  0.120304  0  0.988892  0  0.073322  0  0.114198  0.114008  0  0.992822  0
H  H20  1  0.55765897  0.98717376  0.87267347  1  0  0.092273  0  0.980828  0  0  0.098231  0  1.052607  0  0  0.101059  0  1.050931  0  0.08404  0  0.099719  0.096253  0  1.053677  0
H  H21  1  0.44234157  0.01282757  0.12732644  1  0  0.09227  0  0.98087  0  0  0.09837  0  1.052365  0  0  0.101052  0  1.050975  0  0.084046  0  0.099714  0.096247  0  1.053723  0
H  H22  1  0.79470186  0.80126380  0.02681247  1  0  0.098802  0  0.951154  0  0  0.10696  0  1.015493  0  0  0.109617  0  1.014851  0  0.082534  0  0.101651  0.105077  0  1.016151  0
H  H23  1  0.20529732  0.19873651  0.97318795  1  0  0.098803  0  0.951129  0  0  0.106957  0  1.015491  0  0  0.109614  0  1.014831  0  0.082537  0  0.101637  0.105073  0  1.016132  0
H  H24  1  0.66149630  0.57580225  0.90101043  1  0  0.085418  0  0.996579  0  0  0.093885  0  1.062787  0  0  0.095565  0  1.06409  0  0.076686  0  0.096416  0.092782  0  1.061765  0
H  H25  1  0.33850251  0.42419704  0.09898901  1  0  0.085408  0  0.996581  0  0  0.093878  0  1.062789  0  0  0.095557  0  1.06409  0  0.076679  0  0.09642  0.092775  0  1.061766  0
H  H26  1  0.42186104  0.34005132  0.88123568  1  0  0.084942  0  0.988708  0  0  0.094585  0  1.053894  0  0  0.096014  0  1.055773  0  0.085015  0  0.09531  0.093751  0  1.052074  0
H  H27  1  0.57814038  0.65994694  0.11876285  1  0  0.084981  0  0.988776  0  0  0.094618  0  1.053971  0  0  0.096049  0  1.055835  0  0.08497  0  0.095339  0.093785  0  1.052136  0
H  H28  1  0.54863401  0.19244131  0.91457559  1  0  0.084234  0  0.972935  0  0  0.092318  0  1.042063  0  0  0.095234  0  1.040163  0  0.064608  0  0.093864  0.090218  0  1.043573  0
H  H29  1  0.45136704  0.80755592  0.08542195  1  0  0.084182  0  0.97299  0  0  0.092493  0  1.041732  0  0  0.095199  0  1.040191  0  0.064586  0  0.093859  0.090181  0  1.043604  0
H  H30  1  0.72313886  0.13935058  0.79440176  1  0  0.089171  0  0.956994  0  0  0.100656  0  1.016688  0  0  0.103439  0  1.015314  0  0.070101  0  0.102004  0.098786  0  1.017483  0
H  H31  1  0.27686293  0.86064870  0.20559624  1  0  0.089188  0  0.956976  0  0  0.10076  0  1.016488  0  0  0.103473  0  1.01528  0  0.070179  0  0.102036  0.098823  0  1.017448  0
H  H32  1  0.76829038  0.24058090  0.64315140  1  0  0.107264  0  0.95974  0  0  0.113594  0  1.025079  0  0  0.117756  0  1.02225  0  0.123429  0  0.118449  0.110713  0  1.026735  0
H  H33  1  0.23171215  0.75942043  0.35684780  1  0  0.107303  0  0.959727  0  0  0.113612  0  1.025094  0  0  0.117776  0  1.022255  0  0.123465  0  0.118459  0.110731  0  1.026741  0
H  H34  1  0.01407132  0.36133957  0.21267928  1  0  0.057923  0  0.935452  0  0  0.074562  0  1.00301  0  0  0.075445  0  1.002407  0  0.021836  0  0.084022  0.073994  0  1.003312  0
H  H35  1  0.98592638  0.63865664  0.78732024  1  0  0.05795  0  0.935386  0  0  0.074598  0  1.002928  0  0  0.075465  0  1.002358  0  0.021808  0  0.084028  0.074014  0  1.003265  0
H  H36  1  0.95778144  0.49681816  0.28592129  1  0  0.071193  0  0.974634  0  0  0.085961  0  1.044567  0  0  0.085841  0  1.046748  0  0.062381  0  0.093051  0.086061  0  1.04291  0
H  H37  1  0.04221763  0.50317907  0.71407696  1  0  0.071192  0  0.974699  0  0  0.085994  0  1.044598  0  0  0.085873  0  1.046771  0  0.062326  0  0.093073  0.086092  0  1.042934  0
H  H38  1  0.83923329  0.32313716  0.24957231  1  0  0.070395  0  0.945197  0  0  0.085383  0  1.016455  0  0  0.086158  0  1.015369  0  0.048604  0  0.094853  0.084604  0  1.017442  0
H  H39  1  0.16076614  0.67686110  0.75042846  1  0  0.070418  0  0.945212  0  0  0.085464  0  1.016328  0  0  0.086175  0  1.015403  0  0.048633  0  0.094854  0.084621  0  1.017474  0
H  H40  1  0.61125958  0.95192541  0.31581233  1  0  0.060929  0  0.975363  0  0  0.078177  0  1.042925  0  0  0.077862  0  1.044849  0  0.054019  0  0.082694  0.078191  0  1.041892  0
H  H41  1  0.38874221  0.04807388  0.68418871  1  0  0.060912  0  0.975358  0  0  0.078162  0  1.042915  0  0  0.077841  0  1.044857  0  0.054019  0  0.082691  0.078174  0  1.041891  0
H  H42  1  0.58823435  0.09266902  0.41162120  1  0  0.080512  0  0.95099  0  0  0.099107  0  1.015724  0  0  0.099721  0  1.015498  0  0.061755  0  0.102534  0.098538  0  1.015976  0
H  H43  1  0.41176509  0.90732924  0.58837881  1  0  0.080517  0  0.950953  0  0  0.099075  0  1.015728  0  0  0.099704  0  1.015486  0  0.061667  0  0.102532  0.098509  0  1.015976  0
H  H44  1  0.60296138  0.94952274  0.45110478  1  0  0.073117  0  0.944324  0  0  0.09092  0  1.009653  0  0  0.091712  0  1.009895  0  0.062237  0  0.096729  0.090211  0  1.009673  0
H  H45  1  0.39703905  0.05047552  0.54889525  1  0  0.073106  0  0.944309  0  0  0.090897  0  1.009653  0  0  0.091688  0  1.009899  0  0.062178  0  0.096718  0.090187  0  1.009675  0
H  H46  1  0.13395040  0.04945798  0.37758975  1  0  0.389468  0  0.876001  0  0  0.368994  0  0.939017  0  0  0.3778  0  0.928713  0  0.633754  0  0.313119  0.362756  0  0.946366  0
H  H47  1  0.86604878  0.95054233  0.62241067  1  0  0.389449  0  0.876026  0  0  0.36898  0  0.939035  0  0  0.377785  0  0.928733  0  0.633761  0  0.313116  0.362742  0  0.946387  0
H  H48  1  0.10775145  0.03548760  0.19026235  1  0  0.049063  0  0.96237  0  0  0.062149  0  1.039837  0  0  0.062283  0  1.039911  0  -0.004266  0  0.076023  0.061954  0  1.039835  0
H  H49  1  0.89224649  0.96451477  0.80973847  1  0  0.049033  0  0.962365  0  0  0.062119  0  1.039844  0  0  0.062256  0  1.03991  0  -0.004309  0  0.076007  0.061928  0  1.039832  0
H  H50  1  0.18325031  0.21841476  0.23797014  1  0  0.07621  0  0.963756  0  0  0.097139  0  1.025514  0  0  0.096517  0  1.028163  0  0.054673  0  0.098471  0.097537  0  1.023652  0
H  H51  1  0.81674663  0.78158760  0.76203142  1  0  0.076243  0  0.963669  0  0  0.097161  0  1.025445  0  0  0.096539  0  1.028091  0  0.054701  0  0.098498  0.097557  0  1.02358  0
H  H52  1  0.01739709  0.13044839  0.27522151  1  0  0.075345  0  0.955524  0  0  0.088368  0  1.028639  0  0  0.09036  0  1.026328  0  0.073346  0  0.098245  0.086661  0  1.030751  0
H  H53  1  0.98260048  0.86955294  0.72477985  1  0  0.075284  0  0.955574  0  0  0.088324  0  1.028694  0  0  0.090314  0  1.026375  0  0.073382  0  0.098237  0.086618  0  1.030796  0
C  C54  1  0.27640436  0.43714269  0.80079042  1  0  -0.08838  0  3.702717  0  0  -0.055266  0  3.940682  0  0  -0.057361  0  3.96399  0  -0.486312  0  -0.015175  -0.053735  0  3.924767  0
C  C55  1  0.72359606  0.56285557  0.19921037  1  0  -0.08834  0  3.702819  0  0  -0.055234  0  3.940796  0  0  -0.05731  0  3.96408  0  -0.48538  0  -0.015171  -0.053695  0  3.924889  0
C  C56  1  0.15469518  0.31917584  0.75888164  1  0  -0.128972  0  3.708411  0  0  -0.109205  0  3.949944  0  0  -0.114905  0  3.9712  0  -0.16345  0  -0.012464  -0.105928  0  3.935903  0
C  C57  1  0.84530598  0.68082447  0.24111884  1  0  -0.128986  0  3.708446  0  0  -0.109234  0  3.949991  0  0  -0.114941  0  3.971261  0  -0.163585  0  -0.012454  -0.105961  0  3.93596  0
C  C58  1  0.04669501  0.27834796  0.82043889  1  0  -0.071295  0  3.761549  0  0  -0.097038  0  4.012771  0  0  -0.097276  0  4.033346  0  0.039471  0  -0.085985  -0.096832  0  3.99858  0
C  C59  1  0.95330454  0.72165338  0.17956023  1  0  -0.071274  0  3.761526  0  0  -0.096988  0  4.01276  0  0  -0.09723  0  4.033324  0  0.039192  0  -0.085979  -0.096789  0  3.998559  0
C  C60  1  0.05478038  0.35603933  0.92473360  1  0  -0.068577  0  3.76522  0  0  -0.08133  0  4.016703  0  0  -0.083542  0  4.036563  0  -0.105729  0  -0.089383  -0.079858  0  4.003428  0
C  C61  1  0.94521942  0.64395996  0.07526587  1  0  -0.068562  0  3.765204  0  0  -0.081277  0  4.016557  0  0  -0.083523  0  4.036552  0  -0.105729  0  -0.089368  -0.07984  0  4.003421  0
C  C62  1  0.17194122  0.47554737  0.96679078  1  0  -0.058444  0  3.757676  0  0  -0.069301  0  4.001517  0  0  -0.06968  0  4.021505  0  -0.029768  0  -0.088116  -0.06867  0  3.987631  0
C  C63  1  0.82805983  0.52444986  0.03320905  1  0  -0.058425  0  3.757546  0  0  -0.069343  0  4.001516  0  0  -0.069685  0  4.021382  0  -0.030034  0  -0.088127  -0.06867  0  3.987503  0
C  C64  1  0.28077352  0.51419745  0.90579049  1  0  -0.082552  0  3.742648  0  0  -0.102954  0  3.987225  0  0  -0.10539  0  4.008986  0  -0.018686  0  -0.089893  -0.101085  0  3.971809  0
C  C65  1  0.71922753  0.48579978  0.09421162  1  0  -0.082586  0  3.742695  0  0  -0.103074  0  3.987522  0  0  -0.10542  0  4.009056  0  -0.019663  0  -0.089871  -0.101117  0  3.971865  0
C  C66  1  0.53342758  0.65195755  0.81477174  1  0  -0.065107  0  3.702765  0  0  -0.029292  0  3.9439  0  0  -0.031621  0  3.96603  0  -0.436811  0  -0.010465  -0.027869  0  3.929008  0
C  C67  1  0.46657259  0.34804276  0.18522795  1  0  -0.065138  0  3.702757  0  0  -0.029341  0  3.943931  0  0  -0.031658  0  3.966031  0  -0.436918  0  -0.01049  -0.027907  0  3.92902  0
C  C68  1  0.50787270  0.77001476  0.80688292  1  0  -0.052388  0  3.683479  0  0  -0.073547  0  3.934758  0  0  -0.0747  0  3.952941  0  -0.055275  0  -0.068257  -0.072616  0  3.922474  0
C  C69  1  0.49212648  0.22998555  0.19311598  1  0  -0.052332  0  3.683416  0  0  -0.073554  0  3.934883  0  0  -0.074633  0  3.95286  0  -0.055269  0  -0.068223  -0.07255  0  3.922392  0
C  C70  1  0.58096142  0.89744339  0.87918365  1  0  -0.057946  0  3.738545  0  0  -0.087483  0  3.995974  0  0  -0.087067  0  4.015637  0  0.043244  0  -0.085019  -0.087688  0  3.98249  0
C  C71  1  0.41903975  0.10255692  0.12081606  1  0  -0.057959  0  3.73861  0  0  -0.087406  0  3.995732  0  0  -0.087078  0  4.015704  0  0.043217  0  -0.085039  -0.087703  0  3.98256  0
C  C72  1  0.68348973  0.90888378  0.95892761  1  0  -0.144693  0  3.830924  0  0  -0.129372  0  4.077445  0  0  -0.136288  0  4.099976  0  -0.039222  0  -0.034074  -0.125078  0  4.062668  0
C  C73  1  0.31651143  0.09111653  0.04107287  1  0  -0.144683  0  3.830798  0  0  -0.129075  0  4.076681  0  0  -0.136272  0  4.099878  0  -0.039208  0  -0.03399  -0.125059  0  4.062558  0
C  C74  1  0.71347284  0.79272818  0.96571224  1  0  -0.052707  0  3.727178  0  0  -0.078696  0  3.979614  0  0  -0.078745  0  3.999734  0  0.013929  0  -0.082228  -0.078925  0  3.966753  0
C  C75  1  0.28652807  0.20727419  0.03428866  1  0  -0.052695  0  3.727146  0  0  -0.078672  0  3.979569  0  0  -0.078725  0  3.999706  0  0.01396  0  -0.082223  -0.078905  0  3.966724  0
C  C76  1  0.63856888  0.66563633  0.89410730  1  0  -0.076351  0  3.730316  0  0  -0.095161  0  3.976944  0  0  -0.097306  0  3.997942  0  -0.087179  0  -0.083292  -0.094107  0  3.96301  0
C  C77  1  0.36143129  0.33436398  0.10589239  1  0  -0.07634  0  3.730348  0  0  -0.095157  0  3.976983  0  0  -0.0973  0  3.997977  0  -0.087103  0  -0.08331  -0.094101  0  3.963042  0
C  C78  1  0.76383995  0.04376345  0.03868074  1  0  0.77724  0  3.642742  0  0  0.695625  0  3.989665  0  0  0.728168  0  3.962176  0  1.644003  0  0.303919  0.672868  0  4.009236  0
C  C79  1  0.23615986  0.95623583  0.96131949  1  0  0.777257  0  3.642516  0  0  0.696284  0  3.988176  0  0  0.728093  0  3.9621  0  1.644014  0  0.303897  0.672815  0  4.009121  0
C  C80  1  0.51938296  0.37611392  0.74272250  1  0  -0.063552  0  3.674357  0  0  -0.032726  0  3.910146  0  0  -0.034186  0  3.93267  0  -0.377554  0  -0.008148  -0.031633  0  3.894891  0
C  C81  1  0.48061821  0.62388639  0.25727721  1  0  -0.063618  0  3.674377  0  0  -0.032773  0  3.910155  0  0  -0.034235  0  3.932667  0  -0.377551  0  -0.008187  -0.03168  0  3.894885  0
C  C82  1  0.49721697  0.31857928  0.82808878  1  0  -0.079132  0  3.742936  0  0  -0.098614  0  3.990049  0  0  -0.101161  0  4.011393  0  -0.078507  0  -0.086485  -0.096568  0  3.974694  0
C  C83  1  0.50278518  0.68142103  0.17191020  1  0  -0.079219  0  3.743068  0  0  -0.098704  0  3.990206  0  0  -0.101257  0  4.011521  0  -0.078639  0  -0.086519  -0.09666  0  3.974822  0
C  C84  1  0.56957312  0.23473236  0.84723543  1  0  -0.06984  0  3.77889  0  0  -0.088378  0  4.03834  0  0  -0.087979  0  4.05584  0  -0.022543  0  -0.092173  -0.088293  0  4.026196  0
C  C85  1  0.43042867  0.76526692  0.15276257  1  0  -0.069657  0  3.778824  0  0  -0.088064  0  4.037866  0  0  -0.087791  0  4.055767  0  -0.022446  0  -0.092092  -0.088106  0  4.026125  0
C  C86  1  0.66740630  0.20625357  0.78096942  1  0  -0.064401  0  3.758096  0  0  -0.0773  0  4.008625  0  0  -0.079526  0  4.028835  0  -0.053284  0  -0.085727  -0.076537  0  3.995225  0
C  C87  1  0.33259586  0.79374674  0.21902880  1  0  -0.064511  0  3.758008  0  0  -0.077367  0  4.008391  0  0  -0.079671  0  4.028792  0  -0.053371  0  -0.085817  -0.076683  0  3.995187  0
C  C88  1  0.69208180  0.26207348  0.69549844  1  0  -0.059951  0  3.729956  0  0  -0.081416  0  3.972066  0  0  -0.081948  0  3.992855  0  -0.010555  0  -0.074964  -0.080737  0  3.958099  0
C  C89  1  0.30792073  0.73792786  0.30450000  1  0  -0.060022  0  3.729947  0  0  -0.081465  0  3.972098  0  0  -0.081999  0  3.99286  0  -0.010828  0  -0.075005  -0.080787  0  3.958104  0
C  C90  1  0.61859305  0.34579513  0.67653370  1  0  -0.127056  0  3.682305  0  0  -0.103267  0  3.916386  0  0  -0.109116  0  3.938261  0  -0.206735  0  -0.004253  -0.100196  0  3.902448  0
C  C91  1  0.38140911  0.65420518  0.32346604  1  0  -0.126995  0  3.682316  0  0  -0.103201  0  3.916383  0  0  -0.109049  0  3.938245  0  -0.206415  0  -0.004241  -0.100132  0  3.902437  0
C  C92  1  0.95022883  0.38990256  0.27518650  1  0  -0.003755  0  3.679805  0  0  -0.093888  0  3.951336  0  0  -0.088324  0  3.955969  0  0.402321  0  -0.146271  -0.097536  0  3.948118  0
C  C93  1  0.04976924  0.61009467  0.72481325  1  0  -0.003815  0  3.679825  0  0  -0.093949  0  3.951312  0  0  -0.088419  0  3.95602  0  0.402422  0  -0.146312  -0.097635  0  3.948181  0
C  C94  1  0.63993703  0.01565635  0.39876037  1  0  -0.007431  0  3.670089  0  0  -0.099197  0  3.937714  0  0  -0.094022  0  3.942864  0  0.376971  0  -0.1497  -0.102599  0  3.934495  0
C  C95  1  0.36006340  0.98434190  0.60123965  1  0  -0.007407  0  3.670064  0  0  -0.099133  0  3.937696  0  0  -0.093976  0  3.942844  0  0.377051  0  -0.149698  -0.102538  0  3.934479  0
C  C96  1  0.12172140  0.12532989  0.25833986  1  0  -0.011257  0  3.679907  0  0  -0.108802  0  3.960731  0  0  -0.102812  0  3.964967  0  0.413194  0  -0.153869  -0.112707  0  3.957917  0
C  C97  1  0.87827815  0.87467144  0.74166078  1  0  -0.011162  0  3.679781  0  0  -0.108721  0  3.960645  0  0  -0.102732  0  3.964874  0  0.413178  0  -0.153848  -0.112625  0  3.95782  0
S  S98  1  0.12039658  0.22208858  0.62231142  1  0  1.345637  0  5.632869  0  0  1.246779  0  6.15375  0  0  1.294357  0  6.128502  0  3.208903  0  0.542303  1.214206  0  6.169831  0
S  S99  1  0.87960260  0.77791173  0.37768976  1  0  1.345707  0  5.632824  0  0  1.246825  0  6.153734  0  0  1.294406  0  6.128481  0  3.209087  0  0.542334  1.214256  0  6.16981  0
S  S100  1  0.64881220  0.40536382  0.56089176  1  0  1.363366  0  5.616723  0  0  1.265923  0  6.138957  0  0  1.312843  0  6.114085  0  3.192063  0  0.555694  1.233592  0  6.155241  0
S  S101  1  0.35118797  0.59463649  0.43910793  1  0  1.363395  0  5.616811  0  0  1.26595  0  6.139049  0  0  1.312874  0  6.114172  0  3.192098  0  0.555698  1.233621  0  6.155327  0
O  O102  1  0.03793555  0.28548100  0.57245277  1  0  -0.717687  0  1.964738  0  0  -0.674226  0  2.225159  0  0  -0.693352  0  2.208566  0  -1.359993  0  -0.385167  -0.660714  0  2.235976  0
O  O103  1  0.96206326  0.71451828  0.42754819  1  0  -0.717714  0  1.964699  0  0  -0.674242  0  2.225119  0  0  -0.69337  0  2.208527  0  -1.360023  0  -0.38519  -0.660731  0  2.235936  0
O  O104  1  0.04123655  0.07874382  0.61946183  1  0  -0.679153  0  2.004387  0  0  -0.619066  0  2.24389  0  0  -0.640681  0  2.229683  0  -1.344535  0  -0.318646  -0.604018  0  2.253298  0
O  O105  1  0.95876387  0.92125444  0.38053820  1  0  -0.679192  0  2.004394  0  0  -0.619061  0  2.243872  0  0  -0.640675  0  2.229659  0  -1.344499  0  -0.318651  -0.604012  0  2.253276  0
O  O106  1  0.25805698  0.23628383  0.58332750  1  0  -0.733724  0  2.054035  0  0  -0.683501  0  2.319084  0  0  -0.704269  0  2.305738  0  -1.356414  0  -0.370252  -0.668767  0  2.327701  0
O  O107  1  0.74194418  0.76371648  0.41667298  1  0  -0.733749  0  2.054078  0  0  -0.683539  0  2.319163  0  0  -0.704308  0  2.305813  0  -1.356476  0  -0.370261  -0.668806  0  2.327778  0
O  O108  1  0.52968561  0.31416515  0.47964621  1  0  -0.721368  0  1.969708  0  0  -0.680407  0  2.233639  0  0  -0.700518  0  2.21863  0  -1.352868  0  -0.376776  -0.666163  0  2.243545  0
O  O109  1  0.47031419  0.68583413  0.52035326  1  0  -0.721415  0  1.969811  0  0  -0.68042  0  2.233668  0  0  -0.700529  0  2.218657  0  -1.352901  0  -0.376771  -0.666176  0  2.243576  0
O  O110  1  0.66065400  0.54992532  0.59349011  1  0  -0.726914  0  1.998513  0  0  -0.679946  0  2.260836  0  0  -0.699971  0  2.246316  0  -1.34881  0  -0.370174  -0.66581  0  2.270205  0
O  O111  1  0.33934518  0.45007499  0.40650955  1  0  -0.726896  0  1.998497  0  0  -0.679929  0  2.26083  0  0  -0.699956  0  2.246305  0  -1.348797  0  -0.370164  -0.665797  0  2.270199  0
O  O112  1  0.78433583  0.39091907  0.53109448  1  0  -0.739796  0  2.01104  0  0  -0.686576  0  2.259324  0  0  -0.705512  0  2.242373  0  -1.360131  0  -0.381266  -0.673199  0  2.270677  0
O  O113  1  0.21566471  0.60908227  0.46890467  1  0  -0.739803  0  2.011061  0  0  -0.686585  0  2.259352  0  0  -0.705524  0  2.242396  0  -1.360121  0  -0.381258  -0.673211  0  2.270704  0
O  O114  1  0.99513041  0.37084140  0.37275561  1  0  -0.601835  0  2.133311  0  0  -0.548134  0  2.36743  0  0  -0.561857  0  2.3547  0  -1.177911  0  -0.482918  -0.538408  0  2.376126  0
O  O115  1  0.00486840  0.62915789  0.62724459  1  0  -0.601809  0  2.133318  0  0  -0.548094  0  2.367432  0  0  -0.561823  0  2.354717  0  -1.177949  0  -0.4829  -0.538368  0  2.376125  0
O  O116  1  0.78978399  0.08823641  0.42221213  1  0  -0.617348  0  2.123036  0  0  -0.562325  0  2.359254  0  0  -0.575856  0  2.345543  0  -1.210236  0  -0.49628  -0.552913  0  2.368921  0
O  O117  1  0.21021619  0.91176390  0.57778908  1  0  -0.617347  0  2.12309  0  0  -0.562322  0  2.359292  0  0  -0.57585  0  2.345585  0  -1.210203  0  -0.49628  -0.552912  0  2.368962  0
O  O118  1  0.19951018  0.12000090  0.35007665  1  0  -0.597091  0  2.061571  0  0  -0.539296  0  2.289425  0  0  -0.553225  0  2.276988  0  -1.177195  0  -0.471512  -0.529593  0  2.298139  0
O  O119  1  0.80048838  0.88000044  0.64992397  1  0  -0.597114  0  2.061564  0  0  -0.539317  0  2.289413  0  0  -0.553241  0  2.276975  0  -1.17721  0  -0.471538  -0.529612  0  2.298131  0
F  F120  1  0.73417302  0.15160419  0.01883325  1  0  -0.270166  0  1.172742  0  0  -0.220631  0  1.339123  0  0  -0.236335  0  1.330101  0  -0.631823  0  -0.092977  -0.213255  0  1.348876  0
F  F121  1  0.26582616  0.84839612  0.98116641  1  0  -0.270172  0  1.172729  0  0  -0.224073  0  1.342817  0  0  -0.236316  0  1.330109  0  -0.631809  0  -0.092981  -0.213251  0  1.348892  0
F  F122  1  0.90774221  0.07661941  0.04185455  1  0  -0.267486  0  1.147162  0  0  -0.220788  0  1.307822  0  0  -0.230548  0  1.292337  0  -0.617723  0  -0.099711  -0.213871  0  1.31829  0
F  F123  1  0.09225635  0.92338193  0.95814759  1  0  -0.267489  0  1.147075  0  0  -0.220377  0  1.307432  0  0  -0.230537  0  1.292283  0  -0.617751  0  -0.099738  -0.213857  0  1.318227  0
F  F124  1  0.73475081  0.04336198  0.14013292  1  0  -0.266755  0  1.131648  0  0  -0.221155  0  1.29002  0  0  -0.232316  0  1.276337  0  -0.615128  0  -0.095121  -0.209139  0  1.294302  0
F  F125  1  0.26524502  0.95663730  0.85986568  1  0  -0.266778  0  1.131597  0  0  -0.220765  0  1.289664  0  0  -0.232278  0  1.27628  0  -0.61513  0  -0.095114  -0.209127  0  1.29426  0
