# generated using pymatgen
data_ZnH16C28N6O7
_symmetry_space_group_name_H-M   'P 1'
_cell_length_a   12.12915998
_cell_length_b   12.92616700
_cell_length_c   15.78875211
_cell_angle_alpha   90.41025591
_cell_angle_beta   86.77891442
_cell_angle_gamma   84.66428939
_symmetry_Int_Tables_number   1
_chemical_formula_structural   ZnH16C28N6O7
_chemical_formula_sum   'Zn2 H32 C56 N12 O14'
_cell_volume   2460.60559277
_cell_formula_units_Z   2
loop_
 _symmetry_equiv_pos_site_id
 _symmetry_equiv_pos_as_xyz
  1  'x, y, z'
loop_
 _atom_site_type_symbol
 _atom_site_label
 _atom_site_symmetry_multiplicity
 _atom_site_fract_x
 _atom_site_fract_y
 _atom_site_fract_z
 _atom_site_occupancy
 _atom_site_pbe_bader_charge
 _atom_site_pbe_bader_spin_density
 _atom_site_pbe_cm5_charge
 _atom_site_pbe_ddec_charge
 _atom_site_pbe_ddec_spin_density
 _atom_site_pbe_ddec_sum_bond_order
 _atom_site_pbe_magmom
Zn  Zn0  1  0.61879070  0.51476993  0.50398965  1  1.305709  0  0.696409  0.87057  0  2.32889  0
Zn  Zn1  1  0.37069810  0.50117955  0.49829268  1  1.317904  0  0.697415  0.873459  0  2.342174  0
H  H2  1  0.77242264  0.52232768  0.36650149  1  0.174033  0  0.132979  0.12369  0  1.000707  0
H  H3  1  0.74580324  0.15172613  0.88298963  1  0.079981  0  0.10186  0.141829  0  0.977514  0
H  H4  1  0.74351734  0.08537232  0.98135586  1  0.031808  0  0.096355  0.126366  0  0.996568  0
H  H5  1  0.61991542  0.10647113  0.92557355  1  0.039671  0  0.090419  0.119046  0  1.003449  0
H  H6  1  0.74229067  0.68760699  0.98446392  1  0.076452  0  0.107242  0.076924  0  0.964062  0
H  H7  1  0.60980541  0.73882644  0.02950212  1  0.074146  0  0.10164  0.062382  0  0.985171  0
H  H8  1  0.58688862  0.86104454  0.90755431  1  0.01442  0  0.090058  0.118823  0  1.007656  0
H  H9  1  0.71131798  0.87898825  0.95851097  1  0.014101  0  0.095426  0.126374  0  0.999332  0
H  H10  1  0.71679532  0.80963837  0.86025344  1  0.027052  0  0.096199  0.135931  0  1.008273  0
H  H11  1  0.40485284  0.25622207  0.97230251  1  0.019901  0  0.101116  0.05978  0  0.983392  0
H  H12  1  0.27592600  0.31280863  0.02017418  1  0.09141  0  0.109572  0.079093  0  0.96158  0
H  H13  1  0.22474821  0.43692483  0.63581771  1  0.158617  0  0.136161  0.125367  0  0.983627  0
H  H14  1  0.30202942  0.19084766  0.14467607  1  0.081346  0  0.101207  0.145023  0  0.987826  0
H  H15  1  0.29491039  0.12261676  0.04682323  1  0.040342  0  0.095048  0.125505  0  0.997707  0
H  H16  1  0.42542220  0.13114877  0.09152293  1  -0.004179  0  0.087598  0.114133  0  1.0098  0
H  H17  1  0.71110870  0.55801194  0.73106820  1  0.084105  0  0.117536  0.098059  0  0.959313  0
H  H18  1  0.70461687  0.62294489  0.63228011  1  0.084417  0  0.099906  0.064186  0  1.03366  0
H  H19  1  0.89361205  0.68600354  0.65118640  1  0.032774  0  0.088397  0.124133  0  0.997445  0
H  H20  1  0.79743986  0.72895965  0.73515778  1  0.081932  0  0.098379  0.144308  0  1.019736  0
H  H21  1  0.89833099  0.62212796  0.75143765  1  0.062336  0  0.098045  0.142253  0  0.987883  0
H  H22  1  0.23985496  0.64513904  0.37567453  1  0.061616  0  0.098353  0.066794  0  1.020461  0
H  H23  1  0.10120074  0.64420953  0.34395311  1  0.059409  0  0.09889  0.057273  0  0.995293  0
H  H24  1  0.27791835  0.71250983  0.99172864  1  0.079062  0  0.105508  0.073208  0  0.977473  0
H  H25  1  0.23634249  0.67990703  0.22174667  1  0.016723  0  0.094051  0.128859  0  0.994052  0
H  H26  1  0.31069690  0.55721093  0.23765611  1  0.109596  0  0.090136  0.135527  0  1.028479  0
H  H27  1  0.17185562  0.56386411  0.20370117  1  0.084361  0  0.095364  0.143378  0  1.012623  0
H  H28  1  0.40571133  0.75799845  0.95288263  1  0.052551  0  0.102557  0.064668  0  0.981367  0
H  H29  1  0.39485089  0.88729033  0.07347555  1  0.004399  0  0.091155  0.121101  0  1.002825  0
H  H30  1  0.27283222  0.90465031  0.01546601  1  0.039251  0  0.098844  0.130702  0  0.991877  0
H  H31  1  0.26935093  0.83998573  0.11447881  1  0.043961  0  0.09724  0.131756  0  0.992082  0
H  H32  1  0.61478133  0.23373698  0.04689744  1  0.056163  0  0.101141  0.061222  0  0.983047  0
H  H33  1  0.74383489  0.27648730  0.00731639  1  0.09123  0  0.10701  0.075142  0  0.968563  0
C  C34  1  0.44943419  0.70662045  0.52614596  1  1.667816  0  0.22197  0.59145  0  4.192144  0
C  C35  1  0.45170638  0.03661948  0.48266456  1  0.093237  0  0.026266  0.023613  0  3.93391  0
C  C36  1  0.05176767  0.44807635  0.60764655  1  0.165789  0  0.024699  0.012762  0  4.047353  0
C  C37  1  0.94543381  0.49700408  0.39210937  1  0.178585  0  0.014601  -0.001091  0  4.070545  0
C  C38  1  0.16432102  0.45021074  0.58763002  1  0.43384  0  0.071652  0.081844  0  3.853403  0
C  C39  1  0.83314612  0.51088459  0.41467938  1  0.445309  0  0.067713  0.084646  0  3.858934  0
C  C40  1  0.13880793  0.48523206  0.44453906  1  1.181349  0  0.254111  0.396989  0  4.0116  0
C  C41  1  0.85905527  0.49221149  0.55922525  1  1.252267  0  0.256838  0.401679  0  4.011336  0
C  C42  1  0.02121818  0.48302427  0.45822941  1  0.019445  0  0.021983  -0.04689  0  3.939091  0
C  C43  1  0.97697149  0.47148085  0.54228735  1  0.068076  0  0.025399  -0.038494  0  3.922626  0
C  C44  1  0.51662734  0.53151453  0.34271537  1  1.646402  0  0.227611  0.668355  0  4.235173  0
C  C45  1  0.53732423  0.31190467  0.47961570  1  1.691701  0  0.219336  0.591325  0  4.215159  0
C  C46  1  0.48385522  0.48276200  0.65940514  1  1.67873  0  0.225301  0.672863  0  4.236167  0
C  C47  1  0.56117962  0.57643987  0.96176340  1  0.64533  0  0.102335  0.140385  0  3.775061  0
C  C48  1  0.46152667  0.41719308  0.04007348  1  0.654897  0  0.104146  0.141953  0  3.771192  0
C  C49  1  0.45982806  0.58965536  0.03107855  1  0.642413  0  0.103625  0.142333  0  3.76987  0
C  C50  1  0.56264001  0.40391974  0.97026039  1  0.627319  0  0.102067  0.140565  0  3.773404  0
C  C51  1  0.52827549  0.52548324  0.25166106  1  0.21068  0  -0.036279  -0.186595  0  3.946939  0
C  C52  1  0.48588495  0.48074331  0.75023192  1  0.262592  0  -0.038588  -0.185827  0  3.958399  0
C  C53  1  0.62314225  0.48990002  0.01915820  1  0.045061  0  0.00432  -0.081909  0  3.773321  0
C  C54  1  0.39958709  0.50391674  0.98247106  1  0.094666  0  0.003972  -0.084175  0  3.766715  0
C  C55  1  0.52061496  0.50341651  0.08682522  1  0.128996  0  0.011993  0.015349  0  3.838661  0
C  C56  1  0.35569243  0.98570983  0.46483836  1  0.088351  0  0.035656  0.013525  0  3.985379  0
C  C57  1  0.50238131  0.49034425  0.91492644  1  0.091974  0  0.011449  0.019837  0  3.840962  0
C  C58  1  0.52723906  0.51402565  0.17516110  1  -0.439647  0  -0.015985  0.011951  0  4.057393  0
C  C59  1  0.49407962  0.48448301  0.82656090  1  -0.504062  0  -0.018539  0.006494  0  4.067412  0
C  C60  1  0.54764884  0.19520319  0.48773850  1  0.031466  0  0.032777  -0.036773  0  3.834406  0
C  C61  1  0.43933350  0.82418181  0.52397408  1  0.02748  0  0.025172  -0.053279  0  3.82742  0
C  C62  1  0.35170847  0.74867438  0.01023180  1  0.365  0  -0.063803  0.08075  0  3.877452  0
C  C63  1  0.32068709  0.85104767  0.05633424  1  -0.022163  0  -0.23831  -0.391009  0  3.979364  0
C  C64  1  0.66843177  0.24266690  0.98925260  1  0.347868  0  -0.062308  0.085685  0  3.874677  0
C  C65  1  0.69572266  0.14066856  0.94174762  1  -0.080744  0  -0.239122  -0.393016  0  3.974576  0
C  C66  1  0.66040443  0.72478071  0.96968213  1  0.335065  0  -0.062973  0.082242  0  3.871232  0
C  C67  1  0.62604725  0.03806247  0.55634885  1  0.120938  0  0.037586  0.013528  0  3.980752  0
C  C68  1  0.66924303  0.82421359  0.92095513  1  0.021736  0  -0.241542  -0.393315  0  3.971868  0
C  C69  1  0.35688268  0.27211522  0.03308974  1  0.37362  0  -0.062763  0.084675  0  3.871048  0
C  C70  1  0.34426325  0.17349449  0.08220362  1  -0.038219  0  -0.240472  -0.393604  0  3.970412  0
C  C71  1  0.28778805  0.51231773  0.95965562  1  0.785942  0  0.16474  0.232052  0  4.059998  0
C  C72  1  0.73577215  0.48318326  0.03965293  1  0.822761  0  0.16053  0.22453  0  4.06225  0
C  C73  1  0.40015271  0.18825634  0.39175186  1  0.854871  0  0.178252  0.217722  0  4.01144  0
C  C74  1  0.57796855  0.83457767  0.62744708  1  0.850267  0  0.184469  0.227217  0  4.019787  0
C  C75  1  0.72399748  0.19591119  0.55793229  1  0.869001  0  0.190483  0.242226  0  3.979426  0
C  C76  1  0.25203613  0.83464278  0.46505271  1  0.896811  0  0.185729  0.241872  0  4.004969  0
C  C77  1  0.25863412  0.04125843  0.43514220  1  0.863399  0  0.176113  0.207679  0  4.032265  0
C  C78  1  0.35140280  0.87983523  0.48317562  1  0.072785  0  0.042088  0.044582  0  3.987921  0
C  C79  1  0.71870168  0.98750649  0.59605570  1  0.851268  0  0.179429  0.210927  0  4.032149  0
C  C80  1  0.76075459  0.58721765  0.67802461  1  0.360854  0  -0.05484  0.100264  0  3.80396  0
C  C81  1  0.84335466  0.65958474  0.70557764  1  -0.089654  0  -0.247795  -0.41458  0  3.95023  0
C  C82  1  0.18588340  0.60567754  0.33524151  1  0.343322  0  -0.061661  0.097571  0  3.833776  0
C  C83  1  0.22851118  0.60025858  0.24385389  1  -0.080848  0  -0.249082  -0.396972  0  3.935058  0
C  C84  1  0.01909741  0.41967444  0.69185995  1  0.886424  0  0.180321  0.223035  0  4.044111  0
C  C85  1  0.97701175  0.49470649  0.30385142  1  0.787882  0  0.179072  0.212275  0  4.045937  0
C  C86  1  0.63155957  0.14306193  0.53460435  1  0.11627  0  0.042985  0.042535  0  3.983101  0
C  C87  1  0.52005725  0.87977687  0.55850488  1  0.128383  0  0.035619  0.038653  0  3.989711  0
C  C88  1  0.46502208  0.14004824  0.45598557  1  0.10823  0  0.032915  0.033799  0  4.001024  0
C  C89  1  0.53317951  0.98469239  0.53426211  1  -0.007207  0  0.026515  0.01983  0  3.917413  0
N  N90  1  0.79096606  0.51264883  0.49643236  1  -1.254387  0  -0.320154  -0.314487  0  3.482748  0
N  N91  1  0.79936094  0.95049593  0.62528452  1  -1.036812  0  -0.263023  -0.283005  0  2.649627  0
N  N92  1  0.00174212  0.39147428  0.76104972  1  -1.065074  0  -0.286876  -0.313706  0  2.658454  0
N  N93  1  0.99521004  0.49211579  0.23037367  1  -1.003364  0  -0.271769  -0.299818  0  2.72034  0
N  N94  1  0.20560667  0.47298181  0.50894955  1  -1.243042  0  -0.313135  -0.290443  0  3.48949  0
N  N95  1  0.19625143  0.52053350  0.93893025  1  -1.097679  0  -0.307418  -0.352943  0  2.680874  0
N  N96  1  0.82897411  0.47755198  0.05624319  1  -1.082542  0  -0.298928  -0.342059  0  2.701167  0
N  N97  1  0.35768881  0.22445360  0.33280497  1  -1.043521  0  -0.259274  -0.27546  0  2.654618  0
N  N98  1  0.61066912  0.80775379  0.69274119  1  -1.055113  0  -0.257872  -0.291665  0  2.729422  0
N  N99  1  0.80144694  0.23636999  0.57661764  1  -1.037969  0  -0.26688  -0.28973  0  2.658185  0
N  N100  1  0.16398071  0.81209072  0.45027356  1  -1.056013  0  -0.274948  -0.311526  0  2.688203  0
N  N101  1  0.17432878  0.08330882  0.41604033  1  -1.031587  0  -0.264309  -0.279476  0  2.636505  0
O  O102  1  0.54374361  0.66400747  0.54323450  1  -1.158254  0  -0.296793  -0.540042  0  2.351999  0
O  O103  1  0.60992491  0.31465177  0.93248525  1  -1.059536  0  -0.193227  -0.216682  0  2.506258  0
O  O104  1  0.60726433  0.65242073  0.91694734  1  -1.061603  0  -0.192139  -0.212668  0  2.490024  0
O  O105  1  0.41566735  0.34118352  0.08469771  1  -1.063014  0  -0.189337  -0.207104  0  2.492421  0
O  O106  1  0.82190794  0.49248170  0.63946478  1  -1.05738  0  -0.151955  -0.210944  0  2.546186  0
O  O107  1  0.18492881  0.49791850  0.36729500  1  -1.063573  0  -0.168309  -0.230835  0  2.503444  0
O  O108  1  0.43912264  0.34976816  0.49998882  1  -1.145728  0  -0.299699  -0.534985  0  2.358107  0
O  O109  1  0.36565351  0.66313184  0.50500048  1  -1.140397  0  -0.288936  -0.515095  0  2.340402  0
O  O110  1  0.62159828  0.35818231  0.45935054  1  -1.154623  0  -0.298931  -0.520707  0  2.279098  0
O  O111  1  0.59761820  0.56020028  0.38276880  1  -1.158644  0  -0.313709  -0.552516  0  2.306471  0
O  O112  1  0.39079719  0.50472089  0.62734758  1  -1.146891  0  -0.305138  -0.542113  0  2.294651  0
O  O113  1  0.42480463  0.50672533  0.37527931  1  -1.138327  0  -0.293323  -0.520183  0  2.344375  0
O  O114  1  0.57790023  0.46301521  0.61908835  1  -1.143523  0  -0.30789  -0.544449  0  2.345807  0
O  O115  1  0.41123447  0.67906895  0.06824826  1  -1.061925  0  -0.193018  -0.218265  0  2.506975  0
