# generated using pymatgen
data_ZnH10C9NO5
_symmetry_space_group_name_H-M   'P 1'
_cell_length_a   7.17807668
_cell_length_b   7.46399210
_cell_length_c   23.01388466
_cell_angle_alpha   89.99957964
_cell_angle_beta   89.99950050
_cell_angle_gamma   89.01767394
_symmetry_Int_Tables_number   1
_chemical_formula_structural   ZnH10C9NO5
_chemical_formula_sum   'Zn4 H40 C36 N4 O20'
_cell_volume   1232.83616031
_cell_formula_units_Z   4
loop_
 _symmetry_equiv_pos_site_id
 _symmetry_equiv_pos_as_xyz
  1  'x, y, z'
loop_
 _atom_site_type_symbol
 _atom_site_label
 _atom_site_symmetry_multiplicity
 _atom_site_fract_x
 _atom_site_fract_y
 _atom_site_fract_z
 _atom_site_occupancy
 _atom_site_hle17_bader_spin_density
 _atom_site_hle17_ddec_charge
 _atom_site_hle17_ddec_spin_density
 _atom_site_hle17_ddec_sum_bond_order
 _atom_site_hle17_magmom
 _atom_site_hse06_10hf_bader_spin_density
 _atom_site_hse06_10hf_ddec_charge
 _atom_site_hse06_10hf_ddec_spin_density
 _atom_site_hse06_10hf_ddec_sum_bond_order
 _atom_site_hse06_10hf_magmom
 _atom_site_hse06_bader_spin_density
 _atom_site_hse06_ddec_charge
 _atom_site_hse06_ddec_spin_density
 _atom_site_hse06_ddec_sum_bond_order
 _atom_site_hse06_magmom
 _atom_site_pbe_bader_spin_density
 _atom_site_pbe_cm5_charge
 _atom_site_pbe_ddec_charge
 _atom_site_pbe_ddec_spin_density
 _atom_site_pbe_ddec_sum_bond_order
 _atom_site_pbe_magmom
Zn  Zn0  1  0.42701735  0.40834929  0.78333870  1  0  1.0948  0  1.768604  0  0  0.923723  0  2.213278  0  0  0.97227  0  2.157418  0  0  0.667694  0.889691  0  2.251556  0
Zn  Zn1  1  0.07296944  0.09164247  0.28333484  1  0  1.094671  0  1.76871  0  0  0.923612  0  2.213367  0  0  0.97216  0  2.157512  0  0  0.667604  0.889573  0  2.251645  0
Zn  Zn2  1  0.57297770  0.59164497  0.21665822  1  0  1.094655  0  1.768718  0  0  0.923625  0  2.21338  0  0  0.972185  0  2.157524  0  0  0.667654  0.889583  0  2.251661  0
Zn  Zn3  1  0.92702421  0.90835315  0.71666382  1  0  1.094667  0  1.76875  0  0  0.923572  0  2.21344  0  0  0.972117  0  2.157586  0  0  0.667607  0.88954  0  2.251703  0
H  H4  1  0.53990318  0.14670672  0.72647882  1  0  0.414593  0  0.894113  0  0  0.382399  0  0.959791  0  0  0.394162  0  0.942791  0  0  0.284523  0.37411  0  0.971749  0
H  H5  1  0.96010400  0.35329528  0.22647726  1  0  0.414657  0  0.894032  0  0  0.382432  0  0.95975  0  0  0.394195  0  0.942751  0  0  0.284531  0.37415  0  0.971696  0
H  H6  1  0.46008770  0.85328626  0.27351680  1  0  0.414497  0  0.894245  0  0  0.38231  0  0.959913  0  0  0.394074  0  0.942912  0  0  0.284476  0.37403  0  0.971852  0
H  H7  1  0.03988548  0.64669905  0.77352053  1  0  0.414663  0  0.894039  0  0  0.382437  0  0.959752  0  0  0.394199  0  0.942754  0  0  0.284519  0.374153  0  0.971703  0
H  H8  1  0.31683075  0.14739835  0.72581821  1  0  0.414105  0  0.893864  0  0  0.382312  0  0.958482  0  0  0.393994  0  0.941571  0  0  0.284802  0.374055  0  0.970421  0
H  H9  1  0.18317858  0.35259052  0.22581522  1  0  0.414123  0  0.893839  0  0  0.382371  0  0.95839  0  0  0.394052  0  0.941482  0  0  0.284823  0.374112  0  0.970333  0
H  H10  1  0.68316154  0.85259058  0.27418002  1  0  0.413998  0  0.894032  0  0  0.382186  0  0.958684  0  0  0.393871  0  0.941768  0  0  0.284717  0.373925  0  0.970629  0
H  H11  1  0.81681094  0.64739711  0.77417953  1  0  0.413999  0  0.894015  0  0  0.382252  0  0.958545  0  0  0.393934  0  0.941635  0  0  0.284751  0.374001  0  0.970471  0
H  H12  1  0.43236890  0.46043517  0.64910532  1  0  0.157919  0  0.926706  0  0  0.168227  0  0.98583  0  0  0.172522  0  0.983053  0  0  0.112389  0.165239  0  0.987846  0
H  H13  1  0.06761881  0.03957187  0.14910246  1  0  0.157938  0  0.92683  0  0  0.168242  0  0.985948  0  0  0.172537  0  0.983171  0  0  0.112407  0.165253  0  0.987966  0
H  H14  1  0.56762056  0.53956318  0.35089117  1  0  0.157939  0  0.926801  0  0  0.16817  0  0.985901  0  0  0.172462  0  0.983128  0  0  0.11236  0.165182  0  0.987928  0
H  H15  1  0.93237900  0.96042772  0.85089402  1  0  0.157912  0  0.926861  0  0  0.168211  0  0.985986  0  0  0.172506  0  0.983208  0  0  0.112401  0.165221  0  0.988001  0
H  H16  1  0.43155937  0.67995371  0.61514124  1  0  0.136304  0  0.92131  0  0  0.146833  0  0.977243  0  0  0.151424  0  0.973632  0  0  0.10251  0.143555  0  0.979916  0
H  H17  1  0.06844603  0.82005113  0.11513906  1  0  0.136299  0  0.921303  0  0  0.146813  0  0.977256  0  0  0.151391  0  0.973659  0  0  0.102496  0.143537  0  0.979929  0
H  H18  1  0.56843567  0.32004323  0.38485438  1  0  0.136368  0  0.921419  0  0  0.146832  0  0.977308  0  0  0.151409  0  0.973712  0  0  0.102487  0.143553  0  0.979987  0
H  H19  1  0.93154346  0.17994052  0.88486003  1  0  0.136268  0  0.921345  0  0  0.146804  0  0.97727  0  0  0.151366  0  0.973693  0  0  0.102504  0.143527  0  0.979946  0
H  H20  1  0.35343739  0.61369101  0.99659940  1  0  0.104601  0  0.951467  0  0  0.116026  0  1.008914  0  0  0.118932  0  1.00903  0  0  0.106131  0.113962  0  1.008972  0
H  H21  1  0.14655024  0.88632626  0.49659556  1  0  0.104651  0  0.951504  0  0  0.116042  0  1.008977  0  0  0.118946  0  1.009095  0  0  0.10615  0.113976  0  1.00904  0
H  H22  1  0.64652697  0.38631030  0.00339927  1  0  0.104622  0  0.951556  0  0  0.116026  0  1.009005  0  0  0.118931  0  1.009123  0  0  0.106154  0.113955  0  1.009066  0
H  H23  1  0.85346406  0.11371601  0.50340658  1  0  0.104761  0  0.951455  0  0  0.116125  0  1.008927  0  0  0.11903  0  1.009044  0  0  0.106258  0.114037  0  1.009018  0
H  H24  1  0.37224233  0.40109354  0.91233395  1  0  0.080344  0  0.942018  0  0  0.087555  0  1.008676  0  0  0.090578  0  1.005006  0  0  0.11625  0.08533  0  1.011333  0
H  H25  1  0.12772406  0.09891009  0.41232820  1  0  0.08033  0  0.941949  0  0  0.087512  0  1.008656  0  0  0.090528  0  1.00499  0  0  0.116296  0.085282  0  1.01132  0
H  H26  1  0.62771791  0.59889845  0.08766558  1  0  0.080294  0  0.942046  0  0  0.087597  0  1.00862  0  0  0.090628  0  1.004942  0  0  0.11631  0.085367  0  1.01128  0
H  H27  1  0.87226249  0.90111107  0.58767046  1  0  0.080377  0  0.941923  0  0  0.087614  0  1.008594  0  0  0.090631  0  1.004926  0  0  0.116284  0.085386  0  1.011251  0
H  H28  1  0.45126054  0.81529530  0.79599797  1  0  0.0861  0  0.936706  0  0  0.093506  0  1.000785  0  0  0.095807  0  0.998919  0  0  0.119553  0.091812  0  1.00213  0
H  H29  1  0.04874407  0.68468777  0.29600049  1  0  0.086119  0  0.936686  0  0  0.093558  0  1.000725  0  0  0.09586  0  0.99886  0  0  0.119589  0.091862  0  1.002069  0
H  H30  1  0.54876803  0.18468518  0.20400113  1  0  0.086111  0  0.93675  0  0  0.09351  0  1.000833  0  0  0.095811  0  0.998967  0  0  0.119546  0.091817  0  1.002176  0
H  H31  1  0.95126633  0.31530231  0.70400817  1  0  0.085895  0  0.93679  0  0  0.093362  0  1.000803  0  0  0.095661  0  0.99894  0  0  0.119523  0.09167  0  1.002137  0
H  H32  1  0.43561296  0.04433474  0.87418295  1  0  0.117895  0  0.970069  0  0  0.126176  0  1.033538  0  0  0.129112  0  1.033782  0  0  0.107173  0.124026  0  1.033649  0
H  H33  1  0.06440331  0.45565985  0.37418961  1  0  0.117914  0  0.970062  0  0  0.126189  0  1.033534  0  0  0.129084  0  1.033824  0  0  0.107148  0.124037  0  1.033645  0
H  H34  1  0.56441698  0.95564975  0.12581528  1  0  0.117923  0  0.970043  0  0  0.126212  0  1.033502  0  0  0.129116  0  1.033783  0  0  0.107172  0.124061  0  1.033611  0
H  H35  1  0.93562509  0.54435011  0.62582426  1  0  0.118004  0  0.970032  0  0  0.126271  0  1.033457  0  0  0.129205  0  1.033707  0  0  0.10723  0.12412  0  1.033567  0
H  H36  1  0.32981970  0.10710756  0.97772182  1  0  0.084016  0  0.919223  0  0  0.103777  0  0.973427  0  0  0.104879  0  0.973217  0  0  0.100003  0.102972  0  0.973603  0
H  H37  1  0.17019636  0.39290196  0.47772877  1  0  0.084065  0  0.919279  0  0  0.103878  0  0.973384  0  0  0.104981  0  0.973172  0  0  0.100072  0.103075  0  0.973561  0
H  H38  1  0.67018369  0.89288929  0.02227206  1  0  0.08407  0  0.919168  0  0  0.103814  0  0.973395  0  0  0.104912  0  0.973186  0  0  0.10002  0.103011  0  0.973572  0
H  H39  1  0.82983476  0.60712137  0.52228032  1  0  0.084043  0  0.919303  0  0  0.103827  0  0.973494  0  0  0.104931  0  0.97329  0  0  0.10006  0.10303  0  0.973669  0
H  H40  1  0.32285355  0.93007542  0.02925306  1  0  0.085648  0  0.923624  0  0  0.104379  0  0.979929  0  0  0.105468  0  0.979731  0  0  0.099467  0.103538  0  0.980166  0
H  H41  1  0.17715841  0.56993677  0.52925528  1  0  0.085747  0  0.923625  0  0  0.104495  0  0.979878  0  0  0.105584  0  0.979678  0  0  0.099549  0.103655  0  0.980113  0
H  H42  1  0.67714425  0.06992685  0.97074430  1  0  0.085836  0  0.923665  0  0  0.104574  0  0.979935  0  0  0.105661  0  0.979731  0  0  0.099556  0.103731  0  0.980173  0
H  H43  1  0.82286855  0.43008259  0.47075467  1  0  0.085676  0  0.923661  0  0  0.104469  0  0.979904  0  0  0.105561  0  0.979709  0  0  0.099473  0.103635  0  0.980134  0
C  C44  1  0.60305350  0.65116206  0.69153405  1  0  0.738696  0  3.807485  0  0  0.68929  0  4.107275  0  0  0.72398  0  4.099562  0  0  0.220371  0.665645  0  4.111853  0
C  C45  1  0.89693239  0.84883685  0.19152876  1  0  0.7384  0  3.807766  0  0  0.689197  0  4.107272  0  0  0.72389  0  4.099555  0  0  0.220361  0.665573  0  4.111828  0
C  C46  1  0.39693739  0.34882823  0.30846287  1  0  0.738856  0  3.80755  0  0  0.689485  0  4.107178  0  0  0.724179  0  4.099459  0  0  0.220484  0.665854  0  4.111739  0
C  C47  1  0.10306262  0.15116545  0.80847120  1  0  0.738444  0  3.807734  0  0  0.689132  0  4.107378  0  0  0.723824  0  4.099661  0  0  0.220363  0.665499  0  4.111943  0
C  C48  1  0.43011108  0.60632596  0.65619349  1  0  -0.441988  0  3.648274  0  0  -0.480643  0  3.892516  0  0  -0.491669  0  3.892329  0  0  -0.172905  -0.473083  0  3.892528  0
C  C49  1  0.06989316  0.89367924  0.15619289  1  0  -0.442045  0  3.648538  0  0  -0.480708  0  3.892722  0  0  -0.491722  0  3.892533  0  0  -0.17295  -0.473156  0  3.892741  0
C  C50  1  0.56989093  0.39367091  0.34380256  1  0  -0.442418  0  3.648815  0  0  -0.480698  0  3.892631  0  0  -0.491712  0  3.892448  0  0  -0.172901  -0.473153  0  3.892667  0
C  C51  1  0.93010464  0.10632169  0.84380577  1  0  -0.441984  0  3.648503  0  0  -0.480618  0  3.892699  0  0  -0.491621  0  3.892521  0  0  -0.172942  -0.473074  0  3.892727  0
C  C52  1  0.25275578  0.65257264  0.68987291  1  0  0.740336  0  3.807201  0  0  0.691154  0  4.106317  0  0  0.725927  0  4.098425  0  0  0.220401  0.667465  0  4.111021  0
C  C53  1  0.24724335  0.84742912  0.18987237  1  0  0.740465  0  3.807531  0  0  0.691232  0  4.106702  0  0  0.726009  0  4.098803  0  0  0.220448  0.667543  0  4.111404  0
C  C54  1  0.74724344  0.34742425  0.31012401  1  0  0.740696  0  3.807523  0  0  0.691402  0  4.106649  0  0  0.726174  0  4.09875  0  0  0.220487  0.667725  0  4.11134  0
C  C55  1  0.75275582  0.15257581  0.81012585  1  0  0.740637  0  3.807428  0  0  0.691405  0  4.106622  0  0  0.726176  0  4.098721  0  0  0.22051  0.667731  0  4.111309  0
C  C56  1  0.37604389  0.66403420  0.95269451  1  0  -0.196378  0  3.743269  0  0  -0.212495  0  3.985734  0  0  -0.222243  0  4.009166  0  0  -0.090914  -0.206176  0  3.969902  0
C  C57  1  0.12394782  0.83597337  0.45269432  1  0  -0.19651  0  3.743378  0  0  -0.212578  0  3.98586  0  0  -0.222327  0  4.009294  0  0  -0.090953  -0.206265  0  3.970042  0
C  C58  1  0.62393166  0.33595895  0.04730415  1  0  -0.196588  0  3.743528  0  0  -0.212663  0  3.986007  0  0  -0.222413  0  4.009445  0  0  -0.090975  -0.206344  0  3.970179  0
C  C59  1  0.87606795  0.16405549  0.54731129  1  0  -0.196473  0  3.743676  0  0  -0.212477  0  3.986141  0  0  -0.222225  0  4.009572  0  0  -0.090944  -0.20614  0  3.970331  0
C  C60  1  0.38686075  0.54494979  0.90633088  1  0  0.142214  0  3.720492  0  0  0.110473  0  3.972054  0  0  0.118795  0  3.988945  0  0  0.049581  0.10511  0  3.960582  0
C  C61  1  0.11312115  0.95505097  0.40632828  1  0  0.142256  0  3.720271  0  0  0.110578  0  3.971838  0  0  0.11891  0  3.988723  0  0  0.04958  0.105207  0  3.960363  0
C  C62  1  0.61311899  0.45504197  0.09366822  1  0  0.142352  0  3.720255  0  0  0.110571  0  3.971882  0  0  0.118892  0  3.988784  0  0  0.049575  0.105203  0  3.960399  0
C  C63  1  0.88687937  0.04496199  0.59367472  1  0  0.14203  0  3.720333  0  0  0.110222  0  3.971995  0  0  0.118552  0  3.988873  0  0  0.049441  0.104866  0  3.960513  0
C  C64  1  0.43002746  0.77556483  0.84098349  1  0  0.159218  0  3.67274  0  0  0.126347  0  3.925702  0  0  0.134479  0  3.943732  0  0  0.054066  0.12109  0  3.913548  0
C  C65  1  0.06997307  0.72442390  0.34098543  1  0  0.159092  0  3.672506  0  0  0.12622  0  3.925485  0  0  0.134354  0  3.943506  0  0  0.053986  0.120956  0  3.91332  0
C  C66  1  0.56998715  0.22442117  0.15901604  1  0  0.159114  0  3.672411  0  0  0.126292  0  3.925385  0  0  0.134431  0  3.943404  0  0  0.054061  0.121021  0  3.913229  0
C  C67  1  0.93003588  0.27557825  0.65902192  1  0  0.159578  0  3.672553  0  0  0.126636  0  3.925573  0  0  0.134766  0  3.943602  0  0  0.054078  0.121375  0  3.913413  0
C  C68  1  0.42147957  0.90300624  0.88495334  1  0  -0.176371  0  3.682987  0  0  -0.19183  0  3.925217  0  0  -0.202004  0  3.948761  0  0  -0.08687  -0.185348  0  3.909616  0
C  C69  1  0.07853081  0.59699069  0.38495815  1  0  -0.176288  0  3.683021  0  0  -0.191693  0  3.925244  0  0  -0.201832  0  3.948815  0  0  -0.086807  -0.185217  0  3.909647  0
C  C70  1  0.57853363  0.09698112  0.11504489  1  0  -0.176425  0  3.682985  0  0  -0.191846  0  3.925127  0  0  -0.201991  0  3.948689  0  0  -0.086864  -0.185362  0  3.909529  0
C  C71  1  0.92149062  0.40302069  0.61505224  1  0  -0.17676  0  3.682953  0  0  -0.192131  0  3.925218  0  0  -0.202308  0  3.948759  0  0  -0.086974  -0.185648  0  3.90962  0
C  C72  1  0.39456383  0.84773106  0.94238051  1  0  0.15161  0  3.748862  0  0  0.169074  0  3.984938  0  0  0.173848  0  4.009194  0  0  0.010422  0.16614  0  3.968311  0
C  C73  1  0.10544070  0.65227661  0.44238295  1  0  0.151625  0  3.748961  0  0  0.168978  0  3.985156  0  0  0.173751  0  4.009402  0  0  0.010372  0.166045  0  3.968527  0
C  C74  1  0.60543263  0.15225917  0.05761815  1  0  0.151795  0  3.7492  0  0  0.169242  0  3.985237  0  0  0.174014  0  4.00948  0  0  0.010446  0.166307  0  3.968607  0
C  C75  1  0.89457648  0.34774822  0.55762527  1  0  0.151767  0  3.749101  0  0  0.16918  0  3.985228  0  0  0.173962  0  4.009485  0  0  0.010396  0.166245  0  3.968608  0
C  C76  1  0.39812669  0.98068051  0.99117959  1  0  -0.148752  0  3.686459  0  0  -0.192326  0  3.940036  0  0  -0.193667  0  3.951293  0  0  -0.14926  -0.19121  0  3.93199  0
C  C77  1  0.10189871  0.51933646  0.49118190  1  0  -0.149053  0  3.68633  0  0  -0.192589  0  3.9399  0  0  -0.193909  0  3.951139  0  0  -0.149382  -0.191469  0  3.931857  0
C  C78  1  0.60187669  0.01931902  0.00881646  1  0  -0.149169  0  3.686708  0  0  -0.192751  0  3.940312  0  0  -0.194071  0  3.951544  0  0  -0.149408  -0.191635  0  3.932269  0
C  C79  1  0.89813519  0.48068817  0.50882632  1  0  -0.148837  0  3.68638  0  0  -0.192547  0  3.940122  0  0  -0.193905  0  3.951401  0  0  -0.149337  -0.191437  0  3.932087  0
N  N80  1  0.41406500  0.59916722  0.85133224  1  0  -0.317657  0  3.264245  0  0  -0.239283  0  3.526561  0  0  -0.258398  0  3.542103  0  0  -0.319814  -0.226442  0  3.515916  0
N  N81  1  0.08591570  0.90082551  0.35133071  1  0  -0.317557  0  3.26386  0  0  -0.239295  0  3.526292  0  0  -0.258418  0  3.541846  0  0  -0.319841  -0.22642  0  3.515604  0
N  N82  1  0.58592450  0.40082176  0.14866729  1  0  -0.317491  0  3.263774  0  0  -0.239291  0  3.526311  0  0  -0.258424  0  3.541882  0  0  -0.319834  -0.22642  0  3.515635  0
N  N83  1  0.91407927  0.09918349  0.64867360  1  0  -0.317511  0  3.264003  0  0  -0.239152  0  3.52642  0  0  -0.258259  0  3.541952  0  0  -0.319709  -0.226305  0  3.515761  0
O  O84  1  0.63075661  0.56705994  0.73945952  1  0  -0.663411  0  2.073974  0  0  -0.588457  0  2.318594  0  0  -0.618083  0  2.307581  0  0  -0.308891  -0.567862  0  2.325656  0
O  O85  1  0.86923498  0.93292435  0.23946021  1  0  -0.663321  0  2.07398  0  0  -0.588349  0  2.318463  0  0  -0.617978  0  2.307448  0  0  -0.30885  -0.567771  0  2.325545  0
O  O86  1  0.36924129  0.43292357  0.26053349  1  0  -0.663445  0  2.073769  0  0  -0.588621  0  2.318513  0  0  -0.618249  0  2.307497  0  0  -0.30898  -0.568022  0  2.325573  0
O  O87  1  0.13076147  0.06706856  0.76054106  1  0  -0.663372  0  2.073902  0  0  -0.588415  0  2.318476  0  0  -0.618043  0  2.307464  0  0  -0.308884  -0.567827  0  2.325545  0
O  O88  1  0.70949827  0.76957043  0.67160885  1  0  -0.637398  0  2.015659  0  0  -0.580477  0  2.274921  0  0  -0.606647  0  2.261558  0  0  -0.314048  -0.562158  0  2.283478  0
O  O89  1  0.79049653  0.73043021  0.17160324  1  0  -0.637205  0  2.015902  0  0  -0.580393  0  2.275121  0  0  -0.606563  0  2.261752  0  0  -0.314043  -0.562073  0  2.283662  0
O  O90  1  0.29049818  0.23042248  0.32838938  1  0  -0.637369  0  2.015796  0  0  -0.580503  0  2.27507  0  0  -0.606671  0  2.261698  0  0  -0.314055  -0.562185  0  2.283616  0
O  O91  1  0.20949290  0.26957350  0.82839542  1  0  -0.63726  0  2.015883  0  0  -0.580383  0  2.275121  0  0  -0.606553  0  2.261757  0  0  -0.314068  -0.562075  0  2.28369  0
O  O92  1  0.22438276  0.56898593  0.73763856  1  0  -0.664098  0  2.088233  0  0  -0.589013  0  2.333803  0  0  -0.618936  0  2.323055  0  0  -0.309131  -0.568253  0  2.340698  0
O  O93  1  0.27560386  0.93101884  0.23763689  1  0  -0.664042  0  2.088434  0  0  -0.58896  0  2.334032  0  0  -0.618882  0  2.323279  0  0  -0.309099  -0.568201  0  2.340925  0
O  O94  1  0.77561503  0.43101768  0.26235967  1  0  -0.66419  0  2.088257  0  0  -0.58908  0  2.333842  0  0  -0.619005  0  2.323094  0  0  -0.309147  -0.568325  0  2.340737  0
O  O95  1  0.72438838  0.06897947  0.76236178  1  0  -0.664189  0  2.088381  0  0  -0.589055  0  2.333904  0  0  -0.618981  0  2.32316  0  0  -0.309137  -0.568299  0  2.340793  0
O  O96  1  0.14326679  0.77068765  0.66897685  1  0  -0.636554  0  1.994484  0  0  -0.581605  0  2.251957  0  0  -0.607268  0  2.238069  0  0  -0.318717  -0.563678  0  2.2609  0
O  O97  1  0.35673149  0.72932267  0.16897280  1  0  -0.636603  0  1.994632  0  0  -0.581621  0  2.252104  0  0  -0.607298  0  2.238223  0  0  -0.318749  -0.5637  0  2.261061  0
O  O98  1  0.85672817  0.22932270  0.33102051  1  0  -0.636602  0  1.994828  0  0  -0.581669  0  2.252354  0  0  -0.607321  0  2.238448  0  0  -0.318743  -0.563752  0  2.261305  0
O  O99  1  0.64326216  0.27067429  0.83102239  1  0  -0.636655  0  1.994696  0  0  -0.581732  0  2.252233  0  0  -0.607382  0  2.238324  0  0  -0.318787  -0.563816  0  2.261183  0
O  O100  1  0.42761364  0.21950210  0.71446701  1  0  -0.825701  0  1.893985  0  0  -0.765052  0  2.0857  0  0  -0.787198  0  2.050117  0  0  -0.584733  -0.749456  0  2.110366  0
O  O101  1  0.07238761  0.28049384  0.21446404  1  0  -0.825783  0  1.893877  0  0  -0.765123  0  2.085614  0  0  -0.787271  0  2.050042  0  0  -0.58474  -0.749529  0  2.110281  0
O  O102  1  0.57237725  0.78048954  0.28553122  1  0  -0.825498  0  1.894115  0  0  -0.764847  0  2.085821  0  0  -0.786995  0  2.050242  0  0  -0.584626  -0.749253  0  2.110487  0
O  O103  1  0.92760190  0.71949513  0.78553288  1  0  -0.82565  0  1.89402  0  0  -0.764995  0  2.085788  0  0  -0.787139  0  2.050215  0  0  -0.584643  -0.749398  0  2.110435  0
