# generated using pymatgen
data_Gd2H28C36S6N6O17
_symmetry_space_group_name_H-M   'P 1'
_cell_length_a   12.74788472
_cell_length_b   12.74792025
_cell_length_c   34.15702034
_cell_angle_alpha   82.77927079
_cell_angle_beta   82.77900014
_cell_angle_gamma   63.05479059
_symmetry_Int_Tables_number   1
_chemical_formula_structural   Gd2H28C36S6N6O17
_chemical_formula_sum   'Gd8 H112 C144 S24 N24 O68'
_cell_volume   4894.13298739
_cell_formula_units_Z   4
loop_
 _symmetry_equiv_pos_site_id
 _symmetry_equiv_pos_as_xyz
  1  'x, y, z'
loop_
 _atom_site_type_symbol
 _atom_site_label
 _atom_site_symmetry_multiplicity
 _atom_site_fract_x
 _atom_site_fract_y
 _atom_site_fract_z
 _atom_site_occupancy
 _atom_site_pbe_bader_charge
 _atom_site_pbe_bader_spin_density
 _atom_site_pbe_cm5_charge
 _atom_site_pbe_ddec_charge
 _atom_site_pbe_ddec_spin_density
 _atom_site_pbe_ddec_sum_bond_order
 _atom_site_pbe_magmom
Gd  Gd0  1  0.19846457  0.36632008  0.05626818  1  2.192442  0  1.463552  2.071374  0  2.21033  0
Gd  Gd1  1  0.63368277  0.80153244  0.44373172  1  2.192476  0  1.463572  2.071347  0  2.210445  0
Gd  Gd2  1  0.80152737  0.63368182  0.94373030  1  2.192562  0  1.463564  2.071449  0  2.210275  0
Gd  Gd3  1  0.36631799  0.19846878  0.55626989  1  2.192515  0  1.463591  2.071514  0  2.210064  0
Gd  Gd4  1  0.12262089  0.35679738  0.18545303  1  2.20927  0  1.445994  2.113958  0  2.177214  0
Gd  Gd5  1  0.64321353  0.87737249  0.31454818  1  2.209469  0  1.445988  2.113947  0  2.177002  0
Gd  Gd6  1  0.87737633  0.64320618  0.81454747  1  2.209239  0  1.446009  2.113891  0  2.17715  0
Gd  Gd7  1  0.35679347  0.12261888  0.68545507  1  2.209198  0  1.446001  2.113987  0  2.177152  0
H  H8  1  0.23789286  0.43443729  0.74008294  1  0.106444  0  0.120598  0.092681  0  1.004315  0
H  H9  1  0.56556290  0.76210768  0.75991820  1  0.106411  0  0.120593  0.092697  0  1.004262  0
H  H10  1  0.76211499  0.56555606  0.25991724  1  0.106799  0  0.120571  0.092695  0  1.00431  0
H  H11  1  0.43443440  0.23788398  0.24008432  1  0.106358  0  0.120594  0.092711  0  1.004259  0
H  H12  1  0.42723390  0.07992949  0.19344280  1  0.102077  0  0.107758  0.098923  0  1.036277  0
H  H13  1  0.92006623  0.57276521  0.30655926  1  0.102182  0  0.10774  0.098936  0  1.036271  0
H  H14  1  0.57276510  0.92007012  0.80655751  1  0.10212  0  0.10772  0.098884  0  1.036272  0
H  H15  1  0.07991953  0.42724180  0.69344425  1  0.101987  0  0.107676  0.098888  0  1.036079  0
H  H16  1  0.59379492  0.12339881  0.07927806  1  0.0786  0  0.113522  0.089003  0  0.981131  0
H  H17  1  0.87660862  0.40619429  0.42072440  1  0.078774  0  0.113524  0.089044  0  0.981094  0
H  H18  1  0.40619527  0.87660228  0.92072259  1  0.078709  0  0.113547  0.089046  0  0.981001  0
H  H19  1  0.12340631  0.59379359  0.57927864  1  0.078337  0  0.113586  0.089103  0  0.981175  0
H  H20  1  0.98598461  0.09936632  0.17923924  1  0.109421  0  0.106858  0.078722  0  1.008673  0
H  H21  1  0.90064816  0.01399949  0.32075840  1  0.10926  0  0.106855  0.078792  0  1.008653  0
H  H22  1  0.01400462  0.90064547  0.82075744  1  0.109219  0  0.106847  0.078773  0  1.008631  0
H  H23  1  0.09936236  0.98598873  0.67923927  1  0.109393  0  0.106798  0.078649  0  1.008635  0
H  H24  1  0.19804026  0.67071116  0.18506000  1  0.151564  0  0.120487  0.103982  0  0.977549  0
H  H25  1  0.32929045  0.80196438  0.31494219  1  0.150524  0  0.120511  0.103927  0  0.977609  0
H  H26  1  0.80196488  0.32929128  0.81493842  1  0.15143  0  0.120466  0.103889  0  0.9777  0
H  H27  1  0.67069079  0.19806043  0.68506245  1  0.150409  0  0.120504  0.103916  0  0.977676  0
H  H28  1  0.33203065  0.59970664  0.06428765  1  0.116627  0  0.114818  0.121202  0  0.989537  0
H  H29  1  0.40029813  0.66797514  0.43571358  1  0.116066  0  0.114797  0.121195  0  0.989482  0
H  H30  1  0.66798600  0.40028681  0.93571123  1  0.116511  0  0.114818  0.12117  0  0.989569  0
H  H31  1  0.59970792  0.33202375  0.56428672  1  0.116558  0  0.114812  0.121216  0  0.989523  0
H  H32  1  0.13282861  0.05550167  0.05867949  1  0.088762  0  0.111937  0.114423  0  0.982536  0
H  H33  1  0.94450025  0.86718024  0.44132174  1  0.088793  0  0.111909  0.114369  0  0.982584  0
H  H34  1  0.86717478  0.94450155  0.94132073  1  0.088751  0  0.111894  0.114296  0  0.982674  0
H  H35  1  0.05550491  0.13282062  0.55867734  1  0.088526  0  0.111893  0.114334  0  0.982539  0
H  H36  1  0.06736568  0.89681813  0.05785528  1  0.070457  0  0.107321  0.12259  0  0.979545  0
H  H37  1  0.10318644  0.93263974  0.44214438  1  0.070224  0  0.107307  0.122517  0  0.979653  0
H  H38  1  0.93263951  0.10317877  0.94214487  1  0.070668  0  0.10734  0.122614  0  0.979645  0
H  H39  1  0.89682489  0.06735920  0.55785420  1  0.070417  0  0.107329  0.122597  0  0.979593  0
H  H40  1  0.75437882  0.60494048  0.16689074  1  0.128734  0  0.109021  0.112143  0  1.015506  0
H  H41  1  0.39506006  0.24562625  0.33310863  1  0.128646  0  0.109019  0.112131  0  1.01563  0
H  H42  1  0.24561914  0.39508251  0.83310763  1  0.128889  0  0.109027  0.112129  0  1.01559  0
H  H43  1  0.60491869  0.75437670  0.66689131  1  0.128869  0  0.109011  0.11208  0  1.015616  0
H  H44  1  0.86328199  0.65019705  0.04413649  1  0.160417  0  0.125125  0.106712  0  1.027806  0
H  H45  1  0.34978136  0.13673098  0.45586204  1  0.159482  0  0.125071  0.106729  0  1.027778  0
H  H46  1  0.13672762  0.34979472  0.95586047  1  0.160491  0  0.125144  0.106747  0  1.027769  0
H  H47  1  0.65021326  0.86326660  0.54413887  1  0.159542  0  0.125098  0.106691  0  1.027834  0
H  H48  1  0.12699338  0.60543662  0.92975608  1  0.11031  0  0.118258  0.085374  0  1.027994  0
H  H49  1  0.39456475  0.87300694  0.57024671  1  0.11031  0  0.118224  0.085431  0  1.027948  0
H  H50  1  0.87299324  0.39457316  0.07024316  1  0.110506  0  0.118259  0.085423  0  1.027916  0
H  H51  1  0.60543608  0.12698317  0.42975425  1  0.110145  0  0.118216  0.085372  0  1.027918  0
H  H52  1  0.55400338  0.77165911  0.15380016  1  0.098882  0  0.096182  0.105723  0  1.065025  0
H  H53  1  0.22834588  0.44599916  0.34620029  1  0.098867  0  0.096163  0.10564  0  1.065099  0
H  H54  1  0.44599725  0.22835954  0.84619682  1  0.098809  0  0.096154  0.105594  0  1.065218  0
H  H55  1  0.77164083  0.55399794  0.65380131  1  0.098759  0  0.096165  0.105589  0  1.065297  0
H  H56  1  0.39828854  0.75998065  0.06154755  1  0.085921  0  0.099289  0.110951  0  1.030626  0
H  H57  1  0.24002508  0.60170924  0.43845409  1  0.085867  0  0.099255  0.11091  0  1.030621  0
H  H58  1  0.60172281  0.24001513  0.93845294  1  0.085944  0  0.099248  0.110848  0  1.030662  0
H  H59  1  0.75998189  0.39828450  0.56154612  1  0.085819  0  0.099255  0.110891  0  1.030636  0
H  H60  1  0.56649448  0.31288884  0.79261546  1  0.148865  0  0.112049  0.116785  0  1.009347  0
H  H61  1  0.68711517  0.43351566  0.70738030  1  0.148667  0  0.111945  0.116602  0  1.00948  0
H  H62  1  0.43351059  0.68712470  0.20738127  1  0.148591  0  0.112018  0.116713  0  1.009317  0
H  H63  1  0.31288559  0.56648475  0.29261725  1  0.148641  0  0.111987  0.116706  0  1.009464  0
H  H64  1  0.49029024  0.51416676  0.81773922  1  0.101658  0  0.100259  0.110411  0  1.034812  0
H  H65  1  0.48584001  0.50971989  0.68225399  1  0.101868  0  0.100224  0.110379  0  1.034811  0
H  H66  1  0.50971309  0.48584280  0.18225602  1  0.101954  0  0.100242  0.110372  0  1.034831  0
H  H67  1  0.51416339  0.49028015  0.31774169  1  0.101978  0  0.100252  0.110436  0  1.034818  0
H  H68  1  0.50059803  0.63814809  0.90905200  1  0.103567  0  0.114081  0.138257  0  0.991567  0
H  H69  1  0.36184941  0.49940314  0.59094568  1  0.103989  0  0.11406  0.138235  0  0.991533  0
H  H70  1  0.49940014  0.36184397  0.09094754  1  0.10386  0  0.114082  0.138267  0  0.991511  0
H  H71  1  0.63815406  0.50058659  0.40905371  1  0.103823  0  0.114087  0.138276  0  0.991509  0
H  H72  1  0.45792979  0.53949733  0.97231175  1  0.097215  0  0.111447  0.112909  0  1.010107  0
H  H73  1  0.46050174  0.54207730  0.52768845  1  0.097299  0  0.111468  0.112875  0  1.010184  0
H  H74  1  0.54206491  0.46048913  0.02768762  1  0.097101  0  0.111448  0.112828  0  1.010215  0
H  H75  1  0.53949552  0.45792070  0.47231318  1  0.09727  0  0.111497  0.112926  0  1.010132  0
H  H76  1  0.62380102  0.91227426  0.21114751  1  0.117524  0  0.106602  0.11806  0  1.052341  0
H  H77  1  0.08771963  0.37620716  0.28885004  1  0.117437  0  0.106561  0.117976  0  1.052398  0
H  H78  1  0.37620240  0.08772420  0.78885177  1  0.117518  0  0.106581  0.118003  0  1.052452  0
H  H79  1  0.91226255  0.62380773  0.71114800  1  0.117432  0  0.106575  0.118036  0  1.052383  0
H  H80  1  0.88784365  0.36249475  0.23273015  1  0.640724  0  0.283241  0.34847  0  1.015111  0
H  H81  1  0.63750461  0.11215099  0.26727093  1  0.640765  0  0.283265  0.348465  0  1.015122  0
H  H82  1  0.11215799  0.63750528  0.76727031  1  0.640736  0  0.283259  0.348494  0  1.015108  0
H  H83  1  0.36249533  0.88784189  0.73273112  1  0.640726  0  0.283224  0.348408  0  1.0152  0
H  H84  1  0.00837425  0.25190098  0.24778774  1  0.628424  0  0.323896  0.416375  0  0.877386  0
H  H85  1  0.74809996  0.99162484  0.25221191  1  0.628387  0  0.323902  0.416387  0  0.877361  0
H  H86  1  0.99163181  0.74809632  0.75221117  1  0.628436  0  0.323891  0.416418  0  0.877369  0
H  H87  1  0.25189910  0.00836842  0.74779133  1  0.628339  0  0.323901  0.416433  0  0.877329  0
H  H88  1  0.06012815  0.26711912  0.03670378  1  0.619573  0  0.311265  0.389942  0  0.927369  0
H  H89  1  0.73288223  0.93987078  0.46329671  1  0.619562  0  0.311276  0.389955  0  0.927356  0
H  H90  1  0.93986734  0.73287966  0.96329702  1  0.619623  0  0.311246  0.389934  0  0.927405  0
H  H91  1  0.26712382  0.06012970  0.53670380  1  0.619672  0  0.311303  0.390003  0  0.927296  0
H  H92  1  0.98171461  0.38878219  0.01320118  1  0.664994  0  0.302842  0.409545  0  0.917561  0
H  H93  1  0.61121635  0.01828541  0.48679728  1  0.664996  0  0.302795  0.409488  0  0.91767  0
H  H94  1  0.01828618  0.61121426  0.98679685  1  0.664985  0  0.302821  0.409512  0  0.917618  0
H  H95  1  0.38878796  0.98171187  0.51320347  1  0.664976  0  0.302816  0.409482  0  0.917641  0
H  H96  1  0.22075269  0.08709754  0.21406629  1  0.618598  0  0.336002  0.426198  0  0.854263  0
H  H97  1  0.91291567  0.77924071  0.28593333  1  0.618351  0  0.336088  0.426388  0  0.853979  0
H  H98  1  0.77924808  0.91290129  0.78593221  1  0.61864  0  0.336004  0.426184  0  0.85432  0
H  H99  1  0.08708065  0.22076561  0.71406620  1  0.618275  0  0.336116  0.426417  0  0.854058  0
H  H100  1  0.26897056  0.12592343  0.24699745  1  0.628682  0  0.313079  0.406981  0  0.90303  0
H  H101  1  0.87408023  0.73102459  0.25300253  1  0.636124  0  0.313113  0.407024  0  0.902976  0
H  H102  1  0.73102757  0.87407497  0.75300120  1  0.636085  0  0.313114  0.407076  0  0.902912  0
H  H103  1  0.12591523  0.26897894  0.74699746  1  0.63619  0  0.313094  0.407011  0  0.902958  0
H  H104  1  0.32157519  0.20326501  0.98708887  1  0.620441  0  0.28057  0.345442  0  1.017914  0
H  H105  1  0.79673794  0.67842369  0.51291138  1  0.620444  0  0.280519  0.3454  0  1.017964  0
H  H106  1  0.67842025  0.79673930  0.01290641  1  0.620649  0  0.280518  0.345418  0  1.017998  0
H  H107  1  0.20326017  0.32158028  0.48709169  1  0.620622  0  0.280518  0.345463  0  1.017911  0
H  H108  1  0.39484962  0.16374111  0.02600487  1  0.63253  0  0.314961  0.398119  0  0.906894  0
H  H109  1  0.83625888  0.60515237  0.47399431  1  0.632529  0  0.314981  0.398142  0  0.906865  0
H  H110  1  0.60515016  0.83627158  0.97398951  1  0.632449  0  0.315013  0.398078  0  0.90692  0
H  H111  1  0.16372957  0.39484872  0.52600994  1  0.632483  0  0.315016  0.39815  0  0.906822  0
H  H112  1  0.05027025  0.55467784  0.23617948  1  0.645556  0  0.281587  0.367105  0  0.992502  0
H  H113  1  0.44533510  0.94972596  0.26382142  1  0.644951  0  0.28161  0.367109  0  0.992509  0
H  H114  1  0.94972608  0.44532929  0.76382381  1  0.645387  0  0.281583  0.367072  0  0.992551  0
H  H115  1  0.55467537  0.05026940  0.73617855  1  0.645619  0  0.281624  0.367142  0  0.99246  0
H  H116  1  0.95823732  0.50160195  0.24421155  1  0.570832  0  0.295532  0.367622  0  0.967524  0
H  H117  1  0.49840981  0.04175941  0.25578948  1  0.57079  0  0.295424  0.367467  0  0.967704  0
H  H118  1  0.04175990  0.49840240  0.75578949  1  0.570882  0  0.295479  0.367525  0  0.967685  0
H  H119  1  0.50159979  0.95823714  0.74421310  1  0.570788  0  0.295505  0.367533  0  0.967577  0
C  C120  1  0.21711982  0.53204039  0.12662626  1  1.622981  0  0.231424  0.64966  0  4.196776  0
C  C121  1  0.46796478  0.78288127  0.37337257  1  1.622394  0  0.231358  0.649531  0  4.197276  0
C  C122  1  0.78289417  0.46795420  0.87336888  1  1.622802  0  0.231377  0.649649  0  4.197104  0
C  C123  1  0.53203861  0.21712116  0.62662827  1  1.623017  0  0.231308  0.649596  0  4.196566  0
C  C124  1  0.25990083  0.62421470  0.12473109  1  -0.065898  0  -0.021905  -0.111492  0  3.975099  0
C  C125  1  0.37578631  0.74009976  0.37527152  1  -0.065857  0  -0.021986  -0.111665  0  3.975296  0
C  C126  1  0.74010260  0.37578218  0.87526826  1  -0.065918  0  -0.021961  -0.111575  0  3.975162  0
C  C127  1  0.62421092  0.25990460  0.62473362  1  -0.067116  0  -0.021973  -0.11161  0  3.975124  0
C  C128  1  0.10235578  0.18255600  0.12252113  1  1.57026  0  0.228986  0.648485  0  4.18987  0
C  C129  1  0.81744874  0.89763987  0.37747428  1  1.569832  0  0.228965  0.648374  0  4.19006  0
C  C130  1  0.89763966  0.81744832  0.87747473  1  1.56962  0  0.228994  0.6484  0  4.190006  0
C  C131  1  0.18255637  0.10236495  0.62252081  1  1.570416  0  0.228954  0.648466  0  4.190182  0
C  C132  1  0.06348079  0.08998264  0.11925905  1  -0.02373  0  -0.026894  -0.113357  0  3.989008  0
C  C133  1  0.91003229  0.93650481  0.38073982  1  -0.022798  0  -0.026808  -0.113224  0  3.988969  0
C  C134  1  0.93651201  0.91002364  0.88074035  1  -0.023217  0  -0.026868  -0.113252  0  3.988895  0
C  C135  1  0.08997733  0.06348538  0.61925897  1  -0.023554  0  -0.026886  -0.113358  0  3.988803  0
C  C136  1  0.44388754  0.24024387  0.75037923  1  1.595234  0  0.220146  0.608893  0  4.207735  0
C  C137  1  0.75975580  0.55611452  0.74962154  1  1.595202  0  0.220084  0.608681  0  4.207762  0
C  C138  1  0.55612118  0.75975227  0.24962136  1  1.595641  0  0.22017  0.608992  0  4.207483  0
C  C139  1  0.24024411  0.44388152  0.25037977  1  1.595516  0  0.220245  0.609124  0  4.207805  0
C  C140  1  0.40706632  0.35924030  0.76446200  1  -0.031424  0  -0.01719  -0.096677  0  3.956948  0
C  C141  1  0.64076019  0.59293728  0.73553586  1  -0.031592  0  -0.017219  -0.096742  0  3.956882  0
C  C142  1  0.59294241  0.64075425  0.23553750  1  -0.031526  0  -0.017229  -0.096926  0  3.957107  0
C  C143  1  0.35923440  0.40706346  0.26446256  1  -0.031399  0  -0.017224  -0.096748  0  3.956802  0
C  C144  1  0.70960417  0.93618442  0.15410181  1  0.414591  0  0.118343  0.196163  0  4.057213  0
C  C145  1  0.06382090  0.29038706  0.34589507  1  0.402731  0  0.118405  0.196248  0  4.05704  0
C  C146  1  0.29038777  0.06381748  0.84589521  1  0.403066  0  0.118392  0.196227  0  4.05717  0
C  C147  1  0.93618076  0.70960979  0.65410202  1  0.403608  0  0.118382  0.196157  0  4.057341  0
C  C148  1  0.60663582  0.79496989  0.09186336  1  0.402721  0  0.12032  0.203865  0  4.021429  0
C  C149  1  0.20502592  0.39336367  0.40813619  1  0.402663  0  0.120315  0.203766  0  4.021533  0
C  C150  1  0.39336225  0.20503644  0.90813346  1  0.402893  0  0.120308  0.203707  0  4.021626  0
C  C151  1  0.79496782  0.60663429  0.59186562  1  0.402731  0  0.120345  0.203877  0  4.021378  0
C  C152  1  0.29557140  0.45009361  0.75713175  1  0.50631  0  0.060295  0.097099  0  3.920352  0
C  C153  1  0.54990480  0.70443118  0.74286789  1  0.506046  0  0.060342  0.097127  0  3.920188  0
C  C154  1  0.70443467  0.54990211  0.24286899  1  0.505526  0  0.060322  0.097137  0  3.920205  0
C  C155  1  0.45009423  0.29556446  0.25713144  1  0.506284  0  0.060342  0.097135  0  3.919992  0
C  C156  1  0.82262288  0.61389089  0.10634664  1  -0.01646  0  -0.019908  -0.111251  0  3.98124  0
C  C157  1  0.38610371  0.17737669  0.39365087  1  -0.006617  0  -0.019937  -0.111201  0  3.980845  0
C  C158  1  0.17737610  0.38611188  0.89365176  1  -0.01548  0  -0.020015  -0.111511  0  3.981245  0
C  C159  1  0.61388828  0.82261967  0.60635109  1  0.020501  0  -0.019988  -0.11147  0  3.981252  0
C  C160  1  0.50571445  0.05486740  0.17285745  1  -0.085444  0  -0.074173  -0.047868  0  3.981654  0
C  C161  1  0.94513216  0.49427825  0.32714348  1  -0.085351  0  -0.074072  -0.047784  0  3.98173  0
C  C162  1  0.49428016  0.94513255  0.82714217  1  -0.085185  0  -0.074062  -0.047761  0  3.981503  0
C  C163  1  0.05486242  0.50572567  0.67285713  1  -0.08547  0  -0.074033  -0.047756  0  3.98159  0
C  C164  1  0.49653453  0.11460849  0.13515275  1  0.004776  0  -0.03204  -0.127133  0  4.023448  0
C  C165  1  0.88539657  0.50345752  0.36484946  1  0.005121  0  -0.032175  -0.127405  0  4.02352  0
C  C166  1  0.50345918  0.88539344  0.86484828  1  0.004812  0  -0.03214  -0.127389  0  4.023342  0
C  C167  1  0.11460599  0.49653975  0.63515401  1  0.004956  0  -0.032126  -0.127286  0  4.023503  0
C  C168  1  0.59814160  0.07901755  0.10895958  1  0.558377  0  0.045654  0.083521  0  3.999678  0
C  C169  1  0.92098337  0.40184862  0.39104134  1  0.558153  0  0.045611  0.083415  0  3.999427  0
C  C170  1  0.40185035  0.92098435  0.89103978  1  0.558445  0  0.0456  0.083471  0  3.999441  0
C  C171  1  0.07902361  0.59814354  0.60895865  1  0.558469  0  0.04559  0.083359  0  3.999638  0
C  C172  1  0.99212962  0.91767243  0.11881117  1  0.407007  0  0.121597  0.205715  0  4.049668  0
C  C173  1  0.08233348  0.00787501  0.38118743  1  0.406487  0  0.121399  0.205484  0  4.049771  0
C  C174  1  0.00787379  0.08232762  0.88118949  1  0.406688  0  0.12155  0.20571  0  4.049804  0
C  C175  1  0.91767520  0.99212429  0.61880891  1  0.406214  0  0.121523  0.205536  0  4.04982  0
C  C176  1  0.32772650  0.79917019  0.12217027  1  0.412754  0  0.116538  0.186404  0  4.062353  0
C  C177  1  0.20083596  0.67227152  0.37783230  1  0.412919  0  0.116649  0.18651  0  4.062069  0
C  C178  1  0.67227426  0.20082943  0.87782878  1  0.412872  0  0.116399  0.186154  0  4.062487  0
C  C179  1  0.79916212  0.32773561  0.62216886  1  0.412377  0  0.116542  0.186255  0  4.062355  0
C  C180  1  0.00461387  0.05598012  0.15190004  1  0.519385  0  0.052604  0.110287  0  3.952069  0
C  C181  1  0.94403076  0.99537583  0.34809797  1  0.519342  0  0.052575  0.11005  0  3.952398  0
C  C182  1  0.99537626  0.94402969  0.84809727  1  0.519322  0  0.052589  0.110091  0  3.952181  0
C  C183  1  0.05597181  0.00461667  0.65190046  1  0.518631  0  0.052625  0.110245  0  3.952138  0
C  C184  1  0.94257255  0.51597302  0.11214590  1  1.603363  0  0.238941  0.663476  0  4.170387  0
C  C185  1  0.48404087  0.05741925  0.38785060  1  1.602679  0  0.239091  0.663666  0  4.170392  0
C  C186  1  0.05741841  0.48404275  0.88784875  1  1.602767  0  0.239064  0.663733  0  4.170514  0
C  C187  1  0.51595640  0.94257795  0.61214844  1  1.602615  0  0.238961  0.663487  0  4.170775  0
C  C188  1  0.33462470  0.67081752  0.88626893  1  0.42944  0  0.120741  0.198572  0  4.035243  0
C  C189  1  0.32917380  0.66538306  0.61373124  1  0.429621  0  0.12076  0.198615  0  4.035276  0
C  C190  1  0.66537165  0.32918404  0.11373141  1  0.42935  0  0.120804  0.198783  0  4.034889  0
C  C191  1  0.67082525  0.33461099  0.38626962  1  0.429587  0  0.12086  0.198707  0  4.035072  0
C  C192  1  0.32373031  0.57882646  0.79157567  1  0.399009  0  0.122138  0.192705  0  4.029819  0
C  C193  1  0.42117681  0.67627275  0.70842145  1  0.399349  0  0.122108  0.192742  0  4.029778  0
C  C194  1  0.67626867  0.42117632  0.20842303  1  0.398884  0  0.122117  0.192813  0  4.029769  0
C  C195  1  0.57882400  0.32372131  0.29157727  1  0.399218  0  0.122078  0.192724  0  4.029833  0
C  C196  1  0.38176583  0.20996769  0.12290586  1  1.563476  0  0.226685  0.647501  0  4.18404  0
C  C197  1  0.79003825  0.61822358  0.37709866  1  1.563267  0  0.226783  0.64778  0  4.183846  0
C  C198  1  0.61822702  0.79003145  0.87709447  1  1.563223  0  0.226819  0.647838  0  4.183774  0
C  C199  1  0.20996522  0.38176855  0.62290706  1  1.56348  0  0.226742  0.647671  0  4.183927  0
C  C200  1  0.24157168  0.68912729  0.15726564  1  0.51587  0  0.058762  0.102776  0  3.918589  0
C  C201  1  0.31087294  0.75843448  0.34273593  1  0.51726  0  0.058798  0.102935  0  3.918421  0
C  C202  1  0.75843172  0.31087196  0.84273184  1  0.515891  0  0.058793  0.102894  0  3.918643  0
C  C203  1  0.68912069  0.24158015  0.65726655  1  0.518353  0  0.058837  0.102971  0  3.918856  0
C  C204  1  0.31739233  0.64961645  0.08980872  1  -0.035534  0  -0.063444  -0.028627  0  3.936978  0
C  C205  1  0.35039582  0.68260569  0.41019257  1  -0.032345  0  -0.063486  -0.028666  0  3.93693  0
C  C206  1  0.68261990  0.35038052  0.91019050  1  -0.035365  0  -0.063503  -0.028707  0  3.936796  0
C  C207  1  0.64961116  0.31738726  0.58980914  1  -0.035318  0  -0.063494  -0.028689  0  3.936749  0
C  C208  1  0.08557410  0.03256084  0.08456627  1  -0.035403  0  -0.070841  -0.049269  0  3.976746  0
C  C209  1  0.96745167  0.91442207  0.41543156  1  -0.035539  0  -0.070845  -0.04931  0  3.976929  0
C  C210  1  0.91442576  0.96744155  0.91543240  1  -0.035219  0  -0.070753  -0.049071  0  3.976736  0
C  C211  1  0.03255878  0.08557646  0.58456708  1  -0.035251  0  -0.070778  -0.049092  0  3.976696  0
C  C212  1  0.05035248  0.94443901  0.08412412  1  0.036304  0  -0.093455  -0.170856  0  3.96491  0
C  C213  1  0.05556860  0.94965185  0.41587403  1  0.03618  0  -0.093369  -0.170645  0  3.964937  0
C  C214  1  0.94965267  0.05556264  0.91587550  1  0.036066  0  -0.093497  -0.170968  0  3.965032  0
C  C215  1  0.94444272  0.05034788  0.58412334  1  0.036325  0  -0.093514  -0.170936  0  3.964929  0
C  C216  1  0.26177755  0.49871978  0.99213951  1  1.536385  0  0.196925  0.572621  0  4.249205  0
C  C217  1  0.50128558  0.73822114  0.50786356  1  1.536148  0  0.196965  0.572777  0  4.249353  0
C  C218  1  0.73821530  0.50127936  0.00786023  1  1.535597  0  0.197145  0.572951  0  4.249133  0
C  C219  1  0.49872052  0.26177220  0.49214081  1  1.536341  0  0.197019  0.572759  0  4.248977  0
C  C220  1  0.28831110  0.56449195  0.95621412  1  -0.02765  0  -0.021261  -0.094636  0  3.977306  0
C  C221  1  0.43550786  0.71169110  0.54378820  1  -0.027782  0  -0.021298  -0.094782  0  3.977422  0
C  C222  1  0.71168176  0.43550401  0.04378343  1  -0.027566  0  -0.021137  -0.094742  0  3.977106  0
C  C223  1  0.56449560  0.28830341  0.45621506  1  -0.027598  0  -0.021343  -0.094892  0  3.977287  0
C  C224  1  0.73453965  0.64925439  0.13746037  1  -0.021863  0  -0.060211  -0.020975  0  3.948368  0
C  C225  1  0.35074324  0.26545780  0.36253720  1  -0.021573  0  -0.060219  -0.021045  0  3.948368  0
C  C226  1  0.26546277  0.35075873  0.86253650  1  -0.021598  0  -0.060164  -0.02088  0  3.948178  0
C  C227  1  0.64924964  0.73453817  0.63746298  1  -0.04868  0  -0.060234  -0.020804  0  3.948465  0
C  C228  1  0.79679470  0.67392983  0.06905418  1  0.490999  0  0.062531  0.10013  0  3.895508  0
C  C229  1  0.32606469  0.20320411  0.43094433  1  0.482323  0  0.062637  0.10023  0  3.89532  0
C  C230  1  0.20320338  0.32607491  0.93094300  1  0.490433  0  0.062562  0.100312  0  3.895574  0
C  C231  1  0.67393254  0.79679866  0.56905796  1  0.482316  0  0.062673  0.100417  0  3.895495  0
C  C232  1  0.21018972  0.61190627  0.92621876  1  0.524499  0  0.053286  0.093453  0  3.941796  0
C  C233  1  0.38809336  0.78981503  0.57378267  1  0.523982  0  0.053287  0.093281  0  3.941562  0
C  C234  1  0.78980397  0.38809724  0.07377985  1  0.524125  0  0.05316  0.093346  0  3.941613  0
C  C235  1  0.61190656  0.21018022  0.42621839  1  0.524509  0  0.053317  0.093371  0  3.941459  0
C  C236  1  0.62439244  0.74088390  0.13029162  1  0.003959  0  -0.098742  -0.189166  0  3.997765  0
C  C237  1  0.25911518  0.37561011  0.36970757  1  0.003784  0  -0.098737  -0.18901  0  3.997567  0
C  C238  1  0.37561264  0.25912726  0.86970522  1  0.003336  0  -0.09872  -0.188985  0  3.997714  0
C  C239  1  0.74087593  0.62438664  0.63029471  1  0.003469  0  -0.098776  -0.189151  0  3.997818  0
C  C240  1  0.35331331  0.73799520  0.08821236  1  -0.010619  0  -0.097368  -0.183996  0  3.998284  0
C  C241  1  0.26201047  0.64668580  0.41179128  1  -0.013608  0  -0.097326  -0.183926  0  3.997909  0
C  C242  1  0.64669364  0.26200092  0.91178597  1  -0.010717  0  -0.09724  -0.183677  0  3.997846  0
C  C243  1  0.73799031  0.35331303  0.58821132  1  -0.010604  0  -0.097254  -0.183764  0  3.998023  0
C  C244  1  0.47886627  0.38245835  0.78645953  1  -0.071643  0  -0.056422  -0.018728  0  3.90438  0
C  C245  1  0.61754600  0.52113958  0.71353742  1  -0.071262  0  -0.056312  -0.01832  0  3.904239  0
C  C246  1  0.52113710  0.61754566  0.21353919  1  -0.071213  0  -0.056327  -0.018373  0  3.904246  0
C  C247  1  0.38245299  0.47886240  0.28646132  1  -0.071407  0  -0.056402  -0.018584  0  3.904347  0
C  C248  1  0.43689776  0.49327172  0.80048912  1  0.036907  0  -0.089731  -0.170123  0  3.958369  0
C  C249  1  0.50673535  0.56310718  0.69950669  1  0.037159  0  -0.089709  -0.17028  0  3.958271  0
C  C250  1  0.56310736  0.50673469  0.19950999  1  0.036895  0  -0.089722  -0.170241  0  3.958536  0
C  C251  1  0.49326541  0.43689323  0.30049174  1  0.037173  0  -0.089737  -0.170293  0  3.958174  0
C  C252  1  0.41827543  0.63009329  0.91459076  1  -0.003776  0  -0.086136  -0.171256  0  3.93902  0
C  C253  1  0.36990514  0.58173151  0.58540871  1  -0.004898  0  -0.086134  -0.171378  0  3.93909  0
C  C254  1  0.58172271  0.36990431  0.08540734  1  -0.004386  0  -0.086127  -0.171364  0  3.939043  0
C  C255  1  0.63009479  0.41826216  0.41459242  1  -0.004724  0  -0.086124  -0.171291  0  3.938999  0
C  C256  1  0.39410591  0.57513636  0.94992247  1  -0.025313  0  -0.059759  -0.027775  0  3.926693  0
C  C257  1  0.42486427  0.60589574  0.55007830  1  -0.024524  0  -0.059753  -0.027607  0  3.926826  0
C  C258  1  0.60589229  0.42485172  0.05007462  1  -0.02508  0  -0.05977  -0.027561  0  3.926679  0
C  C259  1  0.57514273  0.39409484  0.44992557  1  -0.024724  0  -0.05985  -0.02769  0  3.926771  0
C  C260  1  0.61322347  0.96343129  0.18263022  1  -0.004487  0  -0.097939  -0.179565  0  3.96402  0
C  C261  1  0.03656036  0.38677269  0.31736952  1  0.00695  0  -0.097879  -0.179413  0  3.964139  0
C  C262  1  0.38677293  0.03656313  0.81736958  1  0.006653  0  -0.097899  -0.179452  0  3.964251  0
C  C263  1  0.96342542  0.61323035  0.68263038  1  0.006712  0  -0.097837  -0.17941  0  3.964191  0
S  S264  1  0.84501483  0.81714717  0.16778420  1  0.110976  0  0.06675  0.040165  0  2.826074  0
S  S265  1  0.18286425  0.15498049  0.33221170  1  0.11079  0  0.066682  0.040044  0  2.826038  0
S  S266  1  0.15498237  0.18285876  0.83221385  1  0.110833  0  0.066721  0.040088  0  2.826091  0
S  S267  1  0.81713824  0.84502152  0.66778393  1  0.110983  0  0.066748  0.040154  0  2.826004  0
S  S268  1  0.35877109  0.92075704  0.12555955  1  0.085831  0  0.073514  0.035409  0  2.8036  0
S  S269  1  0.07924622  0.64123477  0.37444082  1  0.086036  0  0.073451  0.035297  0  2.803721  0
S  S270  1  0.64123225  0.07924934  0.87443643  1  0.085858  0  0.07352  0.035428  0  2.803764  0
S  S271  1  0.92075454  0.35876644  0.62555992  1  0.086048  0  0.073499  0.035404  0  2.803742  0
S  S272  1  0.25407736  0.72570943  0.80525351  1  0.129905  0  0.070804  0.022175  0  2.885339  0
S  S273  1  0.27429070  0.74592422  0.69474606  1  0.130089  0  0.070842  0.022223  0  2.885399  0
S  S274  1  0.74592252  0.27429137  0.19474553  1  0.130244  0  0.070884  0.022269  0  2.885271  0
S  S275  1  0.72570745  0.25407259  0.30525384  1  0.129845  0  0.070809  0.022192  0  2.885393  0
S  S276  1  0.36809176  0.73441457  0.83938222  1  0.058926  0  0.055443  0.011412  0  2.786899  0
S  S277  1  0.26558529  0.63190842  0.66061997  1  0.058882  0  0.055462  0.011421  0  2.786841  0
S  S278  1  0.63190105  0.26559013  0.16061872  1  0.059063  0  0.055379  0.011276  0  2.786774  0
S  S279  1  0.73441554  0.36808327  0.33938150  1  0.059026  0  0.055438  0.011385  0  2.786874  0
S  S280  1  0.47164594  0.91338655  0.07733323  1  0.067095  0  0.061011  0.007197  0  2.757504  0
S  S281  1  0.08661260  0.52836132  0.42266775  1  0.066971  0  0.061029  0.007267  0  2.757391  0
S  S282  1  0.52835389  0.08661980  0.92266262  1  0.067059  0  0.061  0.007246  0  2.757483  0
S  S283  1  0.91338636  0.47164463  0.57733314  1  0.06702  0  0.061004  0.007232  0  2.75741  0
S  S284  1  0.95095943  0.80198210  0.11764157  1  0.091131  0  0.057182  0.014264  0  2.790754  0
S  S285  1  0.19802661  0.04904027  0.38235532  1  0.091897  0  0.057256  0.014361  0  2.790838  0
S  S286  1  0.04903868  0.19802027  0.88235748  1  0.091375  0  0.057201  0.014302  0  2.790768  0
S  S287  1  0.80198028  0.95096298  0.61764005  1  0.091749  0  0.057178  0.0143  0  2.790728  0
N  N288  1  0.25424823  0.55712692  0.77044267  1  -1.248982  0  -0.31171  -0.286728  0  3.454011  0
N  N289  1  0.44287151  0.74575730  0.72955606  1  -1.248669  0  -0.311658  -0.286667  0  3.453973  0
N  N290  1  0.74576051  0.44286605  0.22955749  1  -1.24852  0  -0.311638  -0.286709  0  3.453707  0
N  N291  1  0.55712309  0.25424345  0.27044381  1  -1.249006  0  -0.311623  -0.286685  0  3.45421  0
N  N292  1  0.23301741  0.66313175  0.89181764  1  -1.18675  0  -0.317786  -0.286966  0  3.368214  0
N  N293  1  0.33685896  0.76698711  0.60818484  1  -1.186422  0  -0.317743  -0.28681  0  3.368171  0
N  N294  1  0.76697628  0.33687176  0.10818215  1  -1.186499  0  -0.317839  -0.287057  0  3.36812  0
N  N295  1  0.66313923  0.23300496  0.39181733  1  -1.186833  0  -0.317782  -0.286894  0  3.368055  0
N  N296  1  0.96809669  0.97287340  0.15180959  1  -1.179796  0  -0.326648  -0.313397  0  3.373022  0
N  N297  1  0.02713638  0.03189643  0.34818740  1  -1.179665  0  -0.326582  -0.313212  0  3.373132  0
N  N298  1  0.03189343  0.02713721  0.84818857  1  -1.179591  0  -0.326606  -0.313293  0  3.373075  0
N  N299  1  0.97286792  0.96810006  0.65180988  1  -1.178995  0  -0.32657  -0.313221  0  3.373147  0
N  N300  1  0.69050124  0.76242285  0.06175183  1  -1.248556  0  -0.307238  -0.272994  0  3.385232  0
N  N301  1  0.23757097  0.30949809  0.43824508  1  -1.248463  0  -0.307257  -0.273038  0  3.385376  0
N  N302  1  0.30950124  0.23758233  0.93824307  1  -1.248551  0  -0.30725  -0.273011  0  3.385389  0
N  N303  1  0.76242276  0.69050226  0.56175690  1  -1.248485  0  -0.307243  -0.273105  0  3.38538  0
N  N304  1  0.27480816  0.77544971  0.15610336  1  -1.194233  0  -0.324295  -0.298749  0  3.324343  0
N  N305  1  0.22455797  0.72518825  0.34389807  1  -1.194442  0  -0.324282  -0.298729  0  3.32406  0
N  N306  1  0.72519347  0.22455111  0.84389501  1  -1.194259  0  -0.324183  -0.298635  0  3.324329  0
N  N307  1  0.77543744  0.27482402  0.65610473  1  -1.194089  0  -0.32433  -0.298752  0  3.324194  0
N  N308  1  0.70320897  0.99279441  0.11820821  1  -1.210863  0  -0.324836  -0.306453  0  3.387254  0
N  N309  1  0.00721553  0.29678308  0.38179052  1  -1.210928  0  -0.324829  -0.306441  0  3.387001  0
N  N310  1  0.29678385  0.00720869  0.88179076  1  -1.210976  0  -0.324834  -0.306429  0  3.387081  0
N  N311  1  0.99279496  0.70320911  0.61820872  1  -1.210903  0  -0.324888  -0.306461  0  3.387285  0
O  O312  1  0.09964388  0.21078309  0.15720836  1  -1.190473  0  -0.397785  -0.677254  0  2.32671  0
O  O313  1  0.78922485  0.90035029  0.34279285  1  -1.190457  0  -0.397733  -0.677055  0  2.327208  0
O  O314  1  0.90035333  0.78922284  0.84279261  1  -1.190446  0  -0.397761  -0.677153  0  2.327103  0
O  O315  1  0.21077764  0.09965412  0.65720677  1  -1.190519  0  -0.397713  -0.677138  0  2.326931  0
O  O316  1  0.36309740  0.22619278  0.73583710  1  -1.202006  0  -0.422902  -0.698766  0  2.307628  0
O  O317  1  0.77380686  0.63689764  0.76416406  1  -1.202062  0  -0.422909  -0.698652  0  2.307748  0
O  O318  1  0.63690518  0.77379973  0.26416425  1  -1.202186  0  -0.422965  -0.69884  0  2.307649  0
O  O319  1  0.22619043  0.36309639  0.23583776  1  -1.20209  0  -0.422942  -0.698875  0  2.307642  0
O  O320  1  0.22656520  0.48634159  0.09460000  1  -1.204474  0  -0.40328  -0.684271  0  2.362593  0
O  O321  1  0.51366527  0.77343299  0.40540090  1  -1.204023  0  -0.403383  -0.684326  0  2.36262  0
O  O322  1  0.77343998  0.51365689  0.90539919  1  -1.204211  0  -0.403327  -0.684285  0  2.362186  0
O  O323  1  0.48633291  0.22656147  0.59460467  1  -1.204435  0  -0.403266  -0.684301  0  2.362692  0
O  O324  1  0.13623140  0.22641415  0.09073534  1  -1.213865  0  -0.383849  -0.688272  0  2.327857  0
O  O325  1  0.77359349  0.86376368  0.40926465  1  -1.213889  0  -0.383915  -0.688347  0  2.32759  0
O  O326  1  0.86376404  0.77359176  0.90926542  1  -1.213753  0  -0.38388  -0.688292  0  2.327601  0
O  O327  1  0.22639842  0.13624378  0.59073474  1  -1.213975  0  -0.383912  -0.688369  0  2.328223  0
O  O328  1  0.17457526  0.50574303  0.15990525  1  -1.190713  0  -0.397662  -0.663874  0  2.32035  0
O  O329  1  0.49426212  0.82542182  0.34009730  1  -1.190708  0  -0.397508  -0.663603  0  2.320701  0
O  O330  1  0.82543792  0.49424245  0.84009476  1  -1.190799  0  -0.397516  -0.663713  0  2.321092  0
O  O331  1  0.50574928  0.17456842  0.65990755  1  -1.190833  0  -0.397549  -0.663785  0  2.320168  0
O  O332  1  0.97717974  0.33042267  0.23409419  1  -1.285513  0  -0.629208  -0.847902  0  2.142797  0
O  O333  1  0.66957938  0.02281920  0.26590734  1  -1.28553  0  -0.629216  -0.847854  0  2.142757  0
O  O334  1  0.02282456  0.66957541  0.76590623  1  -1.285495  0  -0.629196  -0.847916  0  2.142752  0
O  O335  1  0.33041700  0.97717998  0.73409429  1  -1.28544  0  -0.629208  -0.847907  0  2.142698  0
O  O336  1  0.34280665  0.42988126  0.01401028  1  -1.177672  0  -0.352908  -0.604495  0  2.151759  0
O  O337  1  0.57011977  0.65718606  0.48599072  1  -1.177453  0  -0.35288  -0.604521  0  2.151547  0
O  O338  1  0.65718261  0.57012816  0.98599003  1  -1.17752  0  -0.352958  -0.604616  0  2.151415  0
O  O339  1  0.42988370  0.34280528  0.51401240  1  -1.17762  0  -0.352942  -0.604536  0  2.15158  0
O  O340  1  0.06455748  0.33015807  0.01812043  1  -1.268136  0  -0.615615  -0.806244  0  2.050189  0
O  O341  1  0.66984402  0.93544254  0.48187886  1  -1.268165  0  -0.615606  -0.806203  0  2.050283  0
O  O342  1  0.93544154  0.66983836  0.98187798  1  -1.268242  0  -0.615618  -0.80624  0  2.05023  0
O  O343  1  0.33016116  0.06455594  0.51812062  1  -1.268239  0  -0.615643  -0.80628  0  2.050259  0
O  O344  1  0.20910641  0.15449622  0.22778048  1  -1.221392  0  -0.58631  -0.811373  0  2.051914  0
O  O345  1  0.84551269  0.79088469  0.27221981  1  -1.22855  0  -0.586417  -0.81162  0  2.051666  0
O  O346  1  0.79088996  0.84550295  0.77221822  1  -1.228796  0  -0.58633  -0.811451  0  2.05183  0
O  O347  1  0.15448631  0.20911570  0.72777928  1  -1.228557  0  -0.586433  -0.811619  0  2.051744  0
O  O348  1  0.37287793  0.23862293  0.08588998  1  -1.189942  0  -0.395174  -0.663567  0  2.305233  0
O  O349  1  0.76138948  0.62711330  0.41411388  1  -1.190127  0  -0.395096  -0.663473  0  2.305296  0
O  O350  1  0.62710870  0.76138447  0.91411113  1  -1.189832  0  -0.395255  -0.663777  0  2.305142  0
O  O351  1  0.23861929  0.37287731  0.58589430  1  -1.189834  0  -0.395274  -0.663674  0  2.305432  0
O  O352  1  0.31542613  0.19837946  0.01722439  1  -1.261336  0  -0.636419  -0.831537  0  2.112148  0
O  O353  1  0.80161842  0.68457512  0.48277589  1  -1.26135  0  -0.636415  -0.831535  0  2.112143  0
O  O354  1  0.68457280  0.80162966  0.98277195  1  -1.261553  0  -0.636432  -0.831453  0  2.112437  0
O  O355  1  0.19837620  0.31542484  0.51722665  1  -1.261507  0  -0.636399  -0.831555  0  2.112253  0
O  O356  1  0.29965331  0.25657537  0.14961779  1  -1.214638  0  -0.403243  -0.697947  0  2.374272  0
O  O357  1  0.74342135  0.70033907  0.35039123  1  -1.214269  0  -0.403383  -0.698217  0  2.373933  0
O  O358  1  0.70034668  0.74341117  0.85038806  1  -1.214471  0  -0.403319  -0.698085  0  2.374269  0
O  O359  1  0.25657687  0.29965144  0.64961950  1  -1.214684  0  -0.403221  -0.697963  0  2.373927  0
O  O360  1  0.01265800  0.48674028  0.08119635  1  -1.202618  0  -0.411195  -0.689347  0  2.366045  0
O  O361  1  0.51326997  0.98733662  0.41880297  1  -1.202589  0  -0.411306  -0.689453  0  2.365986  0
O  O362  1  0.98733743  0.51326802  0.91880459  1  -1.202586  0  -0.411272  -0.689478  0  2.365715  0
O  O363  1  0.48673265  0.01265034  0.58120040  1  -1.202415  0  -0.411062  -0.689182  0  2.366248  0
O  O364  1  0.98347929  0.54914219  0.22428362  1  -1.234454  0  -0.604887  -0.809003  0  2.024155  0
O  O365  1  0.45086653  0.01651838  0.27571606  1  -1.233815  0  -0.604828  -0.808894  0  2.024259  0
O  O366  1  0.01651790  0.45086533  0.77571727  1  -1.234298  0  -0.604848  -0.808925  0  2.024346  0
O  O367  1  0.54914132  0.98347577  0.72428496  1  -1.234444  0  -0.604901  -0.808969  0  2.024243  0
O  O368  1  0.96648783  0.46823910  0.14686966  1  -1.189563  0  -0.397832  -0.658482  0  2.281038  0
O  O369  1  0.53176851  0.03352207  0.35313062  1  -1.189183  0  -0.397839  -0.658619  0  2.281645  0
O  O370  1  0.03351465  0.53176768  0.85312985  1  -1.189335  0  -0.397827  -0.658543  0  2.281838  0
O  O371  1  0.46823136  0.96648113  0.64687416  1  -1.189281  0  -0.397912  -0.658612  0  2.281262  0
O  O372  1  0.15504984  0.51013696  0.99992581  1  -1.19205  0  -0.378814  -0.647724  0  2.244395  0
O  O373  1  0.48988282  0.84493898  0.50007685  1  -1.191958  0  -0.378899  -0.647786  0  2.244631  0
O  O374  1  0.84493683  0.48986329  0.00007154  1  -1.191525  0  -0.379038  -0.647929  0  2.244506  0
O  O375  1  0.51013035  0.15505047  0.49992737  1  -1.19206  0  -0.378833  -0.647757  0  2.244396  0
O  O376  1  0.54802409  0.16168430  0.75453468  1  -1.18077  0  -0.311749  -0.533889  0  2.128635  0
O  O377  1  0.83831956  0.45197482  0.74546648  1  -1.180776  0  -0.311702  -0.533824  0  2.128645  0
O  O378  1  0.45198458  0.83831819  0.24546679  1  -1.181026  0  -0.311746  -0.533913  0  2.128582  0
O  O379  1  0.16168301  0.54802007  0.25453593  1  -1.181077  0  -0.311801  -0.533996  0  2.128698  0
