# generated using pymatgen
data_Cd2H22C29(NO4)2
_symmetry_space_group_name_H-M   'P 1'
_cell_length_a   9.69281619
_cell_length_b   10.26507040
_cell_length_c   14.82050000
_cell_angle_alpha   88.93126325
_cell_angle_beta   71.70399184
_cell_angle_gamma   75.78908805
_symmetry_Int_Tables_number   1
_chemical_formula_structural   Cd2H22C29(NO4)2
_chemical_formula_sum   'Cd4 H44 C58 N4 O16'
_cell_volume   1354.47689153
_cell_formula_units_Z   2
loop_
 _symmetry_equiv_pos_site_id
 _symmetry_equiv_pos_as_xyz
  1  'x, y, z'
loop_
 _atom_site_type_symbol
 _atom_site_label
 _atom_site_symmetry_multiplicity
 _atom_site_fract_x
 _atom_site_fract_y
 _atom_site_fract_z
 _atom_site_occupancy
 _atom_site_pbe_bader_charge
 _atom_site_pbe_bader_spin_density
 _atom_site_pbe_cm5_charge
 _atom_site_pbe_ddec_charge
 _atom_site_pbe_ddec_spin_density
 _atom_site_pbe_ddec_sum_bond_order
 _atom_site_pbe_magmom
Cd  Cd0  1  0.03368726  0.90207887  0.19742051  1  1.304838  0  0.77778  0.954346  0  2.182771  0
Cd  Cd1  1  0.96631272  0.09792080  0.80257930  1  1.304845  0  0.777759  0.9543  0  2.182778  0
Cd  Cd2  1  0.91099617  0.10835290  0.41407226  1  1.275399  0  0.770796  0.929124  0  2.13323  0
Cd  Cd3  1  0.08900380  0.89164676  0.58592755  1  1.2754  0  0.770785  0.929102  0  2.133254  0
H  H4  1  0.37147457  0.74041248  0.12196919  1  0.117905  0  0.116307  0.088916  0  0.996017  0
H  H5  1  0.62852403  0.25958819  0.87803088  1  0.117898  0  0.116297  0.088901  0  0.996036  0
H  H6  1  0.14139018  0.05538379  0.00311189  1  0.138906  0  0.118954  0.100385  0  1.005435  0
H  H7  1  0.85860979  0.94461587  0.99688859  1  0.138909  0  0.118963  0.100391  0  1.005433  0
H  H8  1  0.59543862  0.69560479  0.97491710  1  0.082564  0  0.106206  0.112672  0  1.025353  0
H  H9  1  0.40456026  0.30439488  0.02508293  1  0.082549  0  0.106229  0.11273  0  1.025314  0
H  H10  1  0.35461011  0.02670055  0.85434699  1  0.104498  0  0.110824  0.129104  0  0.998255  0
H  H11  1  0.64538821  0.97330113  0.14565313  1  0.104535  0  0.110806  0.129083  0  0.998266  0
H  H12  1  0.42231608  0.04611272  0.39907257  1  0.092394  0  0.105757  0.107682  0  1.022542  0
H  H13  1  0.57768309  0.95388594  0.60092741  1  0.092382  0  0.105748  0.107646  0  1.022561  0
H  H14  1  0.38913631  0.66555409  0.30172837  1  0.076207  0  0.103046  0.103081  0  1.010559  0
H  H15  1  0.61086366  0.33444558  0.69827076  1  0.076249  0  0.103059  0.103091  0  1.010525  0
H  H16  1  0.01513601  0.43823091  0.21407906  1  0.098536  0  0.102997  0.108179  0  1.027314  0
H  H17  1  0.98486613  0.56176876  0.78592030  1  0.098517  0  0.103007  0.108174  0  1.027314  0
H  H18  1  0.75259296  0.26235028  0.08975589  1  0.101095  0  0.099462  0.097609  0  1.054096  0
H  H19  1  0.24740890  0.73765039  0.91024419  1  0.101073  0  0.099431  0.097574  0  1.054099  0
H  H20  1  0.65356730  0.56179695  0.29609409  1  0.05236  0  0.098561  0.096585  0  1.023353  0
H  H21  1  0.34643267  0.43820271  0.70390572  1  0.052367  0  0.098567  0.096599  0  1.023351  0
H  H22  1  0.68431285  0.47574620  0.01265305  1  0.050897  0  0.095915  0.09063  0  1.016637  0
H  H23  1  0.31568576  0.52425447  0.98734702  1  0.05089  0  0.095934  0.090647  0  1.016696  0
H  H24  1  0.61438836  0.91750348  0.76724353  1  0.040785  0  0.093185  0.096686  0  1.014364  0
H  H25  1  0.38561298  0.08249518  0.23275601  1  0.040743  0  0.093191  0.096692  0  1.014361  0
H  H26  1  0.73069757  0.81400412  0.82493842  1  0.049139  0  0.096658  0.108496  0  0.978419  0
H  H27  1  0.26930240  0.18599554  0.17506139  1  0.049133  0  0.096659  0.108506  0  0.978392  0
H  H28  1  0.80539183  0.70643464  0.33170227  1  0.078658  0  0.104063  0.104986  0  1.02863  0
H  H29  1  0.19460814  0.29356502  0.66829686  1  0.078654  0  0.104061  0.10498  0  1.028629  0
H  H30  1  0.78268723  0.67278809  0.03924779  1  0.078983  0  0.10206  0.100356  0  1.019306  0
H  H31  1  0.21731383  0.32721158  0.96075180  1  0.078978  0  0.102063  0.100368  0  1.019295  0
H  H32  1  0.64942511  0.61385677  0.79090307  1  0.030522  0  0.090056  0.084577  0  0.982892  0
H  H33  1  0.35057377  0.38614289  0.20909764  1  0.030532  0  0.090055  0.084587  0  0.982872  0
H  H34  1  0.52211532  0.71420132  0.73844598  1  0.015466  0  0.091258  0.090303  0  0.977459  0
H  H35  1  0.47788465  0.28579834  0.26155382  1  0.015467  0  0.091265  0.090299  0  0.977469  0
H  H36  1  0.86088296  0.69309746  0.66884363  1  0.072018  0  0.096916  0.111034  0  1.013061  0
H  H37  1  0.13911592  0.30690221  0.33115775  1  0.072032  0  0.096922  0.111046  0  1.013114  0
H  H38  1  0.73050462  0.77036450  0.61090262  1  0.044628  0  0.094538  0.101241  0  0.996931  0
H  H39  1  0.26949507  0.22963617  0.38909790  1  0.044629  0  0.094541  0.101249  0  0.996897  0
H  H40  1  0.63285050  0.62537539  0.52051397  1  0.101299  0  0.110125  0.125143  0  1.000281  0
H  H41  1  0.36715028  0.37462528  0.47948634  1  0.101311  0  0.110122  0.125131  0  1.000301  0
H  H42  1  0.94769147  0.44441465  0.66693411  1  0.112297  0  0.108817  0.127618  0  1.02189  0
H  H43  1  0.05230770  0.55558401  0.33306655  1  0.112314  0  0.108823  0.127614  0  1.021884  0
H  H44  1  0.69554434  0.40233380  0.43272594  1  0.112409  0  0.118826  0.088826  0  0.986874  0
H  H45  1  0.30445426  0.59766687  0.56727414  1  0.112423  0  0.11881  0.088806  0  0.986925  0
H  H46  1  0.00314244  0.23254830  0.57110379  1  0.144873  0  0.116705  0.101282  0  1.023085  0
H  H47  1  0.99685753  0.76745137  0.42889535  1  0.144867  0  0.116714  0.101263  0  1.023127  0
C  C48  1  0.23185315  0.92180018  0.35202791  1  1.545019  0  0.212444  0.587052  0  4.215743  0
C  C49  1  0.76814573  0.07819949  0.64797145  1  1.544957  0  0.212488  0.58714  0  4.2156  0
C  C50  1  0.92290029  0.21102856  0.20675531  1  1.539879  0  0.206938  0.582525  0  4.212754  0
C  C51  1  0.07710077  0.78897110  0.79324427  1  1.53988  0  0.206977  0.582605  0  4.212746  0
C  C52  1  0.37288178  0.80030746  0.06026887  1  0.470595  0  0.042458  0.09523  0  3.975675  0
C  C53  1  0.62711790  0.19969321  0.93973098  1  0.4706  0  0.042461  0.095233  0  3.975679  0
C  C54  1  0.24423881  0.97713966  0.99511735  1  0.444533  0  0.049909  0.103501  0  3.938131  0
C  C55  1  0.75576087  0.02286101  0.00488250  1  0.444545  0  0.049895  0.103452  0  3.938113  0
C  C56  1  0.38905401  0.86156888  0.35139140  1  0.02651  0  -0.02093  -0.04781  0  4.001099  0
C  C57  1  0.61094624  0.13842978  0.64860769  1  0.026486  0  -0.020944  -0.047858  0  4.001097  0
C  C58  1  0.88585533  0.33771920  0.15785109  1  -0.048809  0  -0.022961  -0.04409  0  3.983823  0
C  C59  1  0.11414790  0.66228046  0.84214737  1  -0.048868  0  -0.022982  -0.04412  0  3.98393  0
C  C60  1  0.49686921  0.77659960  0.97844886  1  -0.077455  0  -0.088487  -0.196988  0  3.960353  0
C  C61  1  0.50312939  0.22340107  0.02155121  1  -0.077102  0  -0.088513  -0.197036  0  3.960343  0
C  C62  1  0.36496505  0.96001732  0.91122200  1  0.013903  0  -0.078831  -0.169613  0  3.904677  0
C  C63  1  0.63503464  0.03998335  0.08877786  1  0.013894  0  -0.078798  -0.169519  0  3.904582  0
C  C64  1  0.47256029  0.94062629  0.37487360  1  0.012215  0  -0.072514  -0.092604  0  3.931819  0
C  C65  1  0.52743860  0.05937337  0.62512575  1  0.012262  0  -0.07249  -0.092537  0  3.931805  0
C  C66  1  0.45522881  0.72540778  0.32135065  1  -0.084693  0  -0.081246  -0.084615  0  3.959531  0
C  C67  1  0.54477144  0.27459088  0.67864911  1  -0.0847  0  -0.081219  -0.084559  0  3.959479  0
C  C68  1  0.94271049  0.44639433  0.16997026  1  -0.029495  0  -0.07842  -0.10903  0  3.939382  0
C  C69  1  0.05729274  0.55360534  0.83002888  1  -0.029386  0  -0.078387  -0.109001  0  3.939319  0
C  C70  1  0.79381529  0.34858732  0.10009402  1  -0.008275  0  -0.078675  -0.075896  0  3.943446  0
C  C71  1  0.20618685  0.65141234  0.89990534  1  -0.008243  0  -0.078638  -0.075862  0  3.94352  0
C  C72  1  0.49452885  0.85656831  0.90082937  1  -0.004032  0  0.015508  0.167514  0  3.944187  0
C  C73  1  0.50546947  0.14343336  0.09917143  1  -0.00439  0  0.015499  0.167485  0  3.944135  0
C  C74  1  0.62427079  0.88591314  0.36435009  1  -0.040552  0  -0.016935  -0.032106  0  3.967692  0
C  C75  1  0.37572809  0.11408653  0.63564994  1  -0.040572  0  -0.016956  -0.032146  0  3.967736  0
C  C76  1  0.60287313  0.66815506  0.31783763  1  -0.011783  0  -0.093151  -0.089648  0  4.014358  0
C  C77  1  0.39712684  0.33184460  0.68216150  1  -0.012136  0  -0.09315  -0.089685  0  4.014335  0
C  C78  1  0.90624717  0.56610171  0.12653125  1  -0.040231  0  -0.019378  -0.032025  0  3.993512  0
C  C79  1  0.09375635  0.43389695  0.87346784  1  -0.040432  0  -0.019367  -0.031892  0  3.993448  0
C  C80  1  0.75587907  0.46859376  0.05747040  1  -0.099848  0  -0.093831  -0.09207  0  4.020584  0
C  C81  1  0.24412308  0.53140590  0.94252963  1  -0.099905  0  -0.093899  -0.092151  0  4.020678  0
C  C82  1  0.62392628  0.82897862  0.80971490  1  -0.008795  0  -0.157024  -0.198144  0  3.919302  0
C  C83  1  0.37607261  0.17102104  0.19028581  1  -0.00878  0  -0.157057  -0.198214  0  3.919343  0
C  C84  1  0.71739873  0.97436650  0.37905148  1  1.529303  0  0.198676  0.57081  0  4.184284  0
C  C85  1  0.28260016  0.02563317  0.62094990  1  1.529303  0  0.198678  0.570792  0  4.184291  0
C  C86  1  0.68799732  0.74851348  0.33793047  1  -0.030532  0  -0.078009  -0.079562  0  3.94611  0
C  C87  1  0.31200266  0.25148619  0.66206867  1  -0.030173  0  -0.078021  -0.079547  0  3.946108  0
C  C88  1  0.81107381  0.57745820  0.07103798  1  0.026959  0  -0.076814  -0.080079  0  3.956908  0
C  C89  1  0.18892833  0.42254147  0.92896138  1  0.027038  0  -0.076804  -0.080117  0  3.956998  0
C  C90  1  0.96072828  0.68393513  0.14457062  1  1.555024  0  0.186494  0.548481  0  4.254961  0
C  C91  1  0.03927358  0.31606554  0.85542946  1  1.555152  0  0.186473  0.548413  0  4.254919  0
C  C92  1  0.63050874  0.70430693  0.75071019  1  0.001751  0  -0.155279  -0.119375  0  3.897658  0
C  C93  1  0.36949123  0.29569273  0.24929029  1  0.001758  0  -0.155264  -0.119334  0  3.897641  0
C  C94  1  0.75771131  0.68657840  0.65488134  1  -0.036349  0  -0.16107  -0.215676  0  3.929088  0
C  C95  1  0.24228729  0.31342227  0.34511941  1  -0.036372  0  -0.161069  -0.215696  0  3.929079  0
C  C96  1  0.78732278  0.55525574  0.60064233  1  0.008184  0  0.017943  0.174502  0  3.943146  0
C  C97  1  0.21267720  0.44474392  0.39935815  1  0.008182  0  0.017931  0.174482  0  3.943146  0
C  C98  1  0.71481487  0.54041013  0.53444899  1  -0.085492  0  -0.084588  -0.191449  0  3.934966  0
C  C99  1  0.28518373  0.45959054  0.46555176  1  -0.08553  0  -0.084576  -0.191436  0  3.934961  0
C  C100  1  0.89094626  0.44139477  0.61442470  1  -0.052067  0  -0.080184  -0.173208  0  3.90855  0
C  C101  1  0.10905343  0.55860590  0.38557583  1  -0.052068  0  -0.080209  -0.173214  0  3.908597  0
C  C102  1  0.74967419  0.41678568  0.48483046  1  0.461473  0  0.046715  0.095292  0  3.972826  0
C  C103  1  0.25032550  0.58321499  0.51517007  1  0.461496  0  0.046705  0.095294  0  3.972871  0
C  C104  1  0.92121550  0.32141451  0.56178191  1  0.467809  0  0.043544  0.096201  0  3.933403  0
C  C105  1  0.07878338  0.67858515  0.43821812  1  0.467765  0  0.043586  0.096283  0  3.933548  0
N  N106  1  0.24731022  0.89830277  0.06840291  1  -1.254953  0  -0.335117  -0.263855  0  3.523365  0
N  N107  1  0.75268947  0.10169790  0.93159694  1  -1.25495  0  -0.33509  -0.26381  0  3.523327  0
N  N108  1  0.85206097  0.30880737  0.49757418  1  -1.227763  0  -0.339701  -0.26306  0  3.551727  0
N  N109  1  0.14793763  0.69119330  0.50242590  1  -1.227739  0  -0.339717  -0.263089  0  3.551816  0
O  O110  1  0.05529691  0.66768985  0.19052144  1  -1.17856  0  -0.341941  -0.576969  0  2.184215  0
O  O111  1  0.94470221  0.33231284  0.80948053  1  -1.178523  0  -0.34195  -0.57697  0  2.1842  0
O  O112  1  0.90630333  0.79818781  0.11763973  1  -1.165742  0  -0.326939  -0.554593  0  2.196249  0
O  O113  1  0.09369910  0.20181085  0.88235959  1  -1.165748  0  -0.326921  -0.554564  0  2.196199  0
O  O114  1  0.19896921  0.88950395  0.28147724  1  -1.176485  0  -0.314933  -0.554713  0  2.352995  0
O  O115  1  0.80103048  0.11049672  0.71852194  1  -1.176453  0  -0.314938  -0.554749  0  2.352922  0
O  O116  1  0.86072295  0.92018501  0.36035593  1  -1.163576  0  -0.339824  -0.594609  0  2.350433  0
O  O117  1  0.13927566  0.07981566  0.63964415  1  -1.163595  0  -0.339842  -0.594609  0  2.3504  0
O  O118  1  0.90213860  0.10536726  0.17516627  1  -1.145774  0  -0.32464  -0.547961  0  2.28769  0
O  O119  1  0.09786218  0.89463341  0.82483336  1  -1.14578  0  -0.324661  -0.547994  0  2.287643  0
O  O120  1  0.14220143  0.00197465  0.42407052  1  -1.164701  0  -0.331918  -0.574597  0  2.310391  0
O  O121  1  0.85779746  0.99802502  0.57592951  1  -1.164693  0  -0.33195  -0.574641  0  2.31039  0
O  O122  1  0.97331977  0.21779029  0.27608074  1  -1.185971  0  -0.337663  -0.592255  0  2.309964  0
O  O123  1  0.02668021  0.78220937  0.72391974  1  -1.185966  0  -0.337661  -0.592263  0  2.310007  0
O  O124  1  0.65997329  0.09622105  0.40831826  1  -1.157907  0  -0.319442  -0.533371  0  2.131205  0
O  O125  1  0.34002560  0.90377862  0.59168178  1  -1.157901  0  -0.319432  -0.533348  0  2.131251  0
