# generated using pymatgen
data_ZnH15C37Br2N2O6F
_symmetry_space_group_name_H-M   'P 1'
_cell_length_a   14.74402302
_cell_length_b   15.67675301
_cell_length_c   28.12184835
_cell_angle_alpha   89.58883790
_cell_angle_beta   73.47418646
_cell_angle_gamma   80.77782862
_symmetry_Int_Tables_number   1
_chemical_formula_structural   ZnH15C37Br2N2O6F
_chemical_formula_sum   'Zn2 H30 C74 Br4 N4 O12 F2'
_cell_volume   6145.91762320
_cell_formula_units_Z   2
loop_
 _symmetry_equiv_pos_site_id
 _symmetry_equiv_pos_as_xyz
  1  'x, y, z'
loop_
 _atom_site_type_symbol
 _atom_site_label
 _atom_site_symmetry_multiplicity
 _atom_site_fract_x
 _atom_site_fract_y
 _atom_site_fract_z
 _atom_site_occupancy
 _atom_site_pbe_bader_charge
 _atom_site_pbe_bader_spin_density
 _atom_site_pbe_cm5_charge
 _atom_site_pbe_ddec_charge
 _atom_site_pbe_ddec_spin_density
 _atom_site_pbe_ddec_sum_bond_order
 _atom_site_pbe_magmom
Zn  Zn0  1  0.59399441  0.51650968  0.48822687  1  1.285792  0  0.666264  0.818661  0  2.429349  0
Zn  Zn1  1  0.40544917  0.48422843  0.51400296  1  1.292282  0  0.66716  0.819873  0  2.438334  0
H  H2  1  0.34798590  0.47250576  0.67196155  1  0.076246  0  0.105354  0.107887  0  1.001529  0
H  H3  1  0.65095994  0.52786045  0.33008165  1  0.081141  0  0.105325  0.108813  0  1.001113  0
H  H4  1  0.53677338  0.78126623  0.47203246  1  0.046772  0  0.103424  0.107172  0  1.03535  0
H  H5  1  0.46037269  0.22248687  0.49493256  1  0.105293  0  0.103966  0.109477  0  1.033852  0
H  H6  1  0.24364586  0.75440902  0.53563531  1  0.096982  0  0.098309  0.119701  0  1.017909  0
H  H7  1  0.75569700  0.24815002  0.44083891  1  0.071625  0  0.099794  0.119378  0  1.012353  0
H  H8  1  0.62631191  0.85392945  0.43269946  1  0.025203  0  0.101458  0.101691  0  1.012523  0
H  H9  1  0.36061282  0.15410110  0.49510836  1  0.052021  0  0.102658  0.103805  0  1.012012  0
H  H10  1  0.00161693  0.30120143  0.56634737  1  0.100552  0  0.114231  0.13114  0  0.980105  0
H  H11  1  0.00293181  0.69275658  0.42695287  1  0.084105  0  0.114038  0.131131  0  0.979649  0
H  H12  1  0.76362233  0.46713039  0.51894932  1  0.156121  0  0.112691  0.092978  0  1.052084  0
H  H13  1  0.23980730  0.53193398  0.48079900  1  0.154674  0  0.110877  0.091411  0  1.067743  0
H  H14  1  0.69386343  0.64322422  0.42054468  1  0.128658  0  0.129387  0.106108  0  0.973609  0
H  H15  1  0.30322923  0.35589873  0.58064595  1  0.130895  0  0.131445  0.109379  0  0.964238  0
H  H16  1  0.14533228  0.30233602  0.59462810  1  0.104385  0  0.117454  0.12759  0  0.976705  0
H  H17  1  0.85375886  0.69480346  0.40269433  1  0.092878  0  0.116656  0.12628  0  0.977815  0
H  H18  1  0.33956321  0.47206088  0.76233197  1  0.068104  0  0.109779  0.117597  0  0.979553  0
H  H19  1  0.66025980  0.52787654  0.23955679  1  0.065665  0  0.109831  0.117756  0  0.979399  0
H  H20  1  0.47941455  0.28763667  0.88290028  1  0.153243  0  0.126872  0.154845  0  0.965082  0
H  H21  1  0.52071544  0.71217717  0.11879176  1  0.154988  0  0.127  0.155629  0  0.964466  0
H  H22  1  0.36503841  0.47057374  0.36576616  1  0.09406  0  0.104575  0.107564  0  0.999668  0
H  H23  1  0.63459887  0.52836614  0.63562978  1  0.076374  0  0.104621  0.107367  0  0.999164  0
H  H24  1  0.37361043  0.46963439  0.27536540  1  0.073716  0  0.108705  0.115358  0  0.981514  0
H  H25  1  0.62642953  0.52985312  0.72594275  1  0.067958  0  0.108555  0.115189  0  0.981821  0
H  H26  1  0.52520553  0.28342127  0.12099535  1  0.138396  0  0.118688  0.125161  0  0.97403  0
H  H27  1  0.47427444  0.71655663  0.88077593  1  0.126135  0  0.118513  0.124885  0  0.973781  0
H  H28  1  0.51372646  0.28168741  0.03553189  1  0.127771  0  0.103194  0.114178  0  1.039941  0
H  H29  1  0.48573101  0.71825270  0.96623424  1  0.127715  0  0.103334  0.114525  0  1.040856  0
H  H30  1  0.74983158  0.94595752  0.41050103  1  0.05379  0  0.089321  0.09351  0  1.040866  0
H  H31  1  0.23755903  0.06183233  0.51736651  1  0.105373  0  0.089793  0.094727  0  1.039961  0
C  C32  1  0.57535351  0.33672446  0.48537902  1  1.560751  0  0.213946  0.594507  0  4.167054  0
C  C33  1  0.42616281  0.66477906  0.50568437  1  1.560762  0  0.214946  0.595664  0  4.167339  0
C  C34  1  0.48508438  0.50144997  0.90129592  1  0.004884  0  -5e-06  0.023481  0  4.005189  0
C  C35  1  0.51453444  0.49847720  0.10044825  1  -0.024236  0  -6.7e-05  0.021381  0  4.008344  0
C  C36  1  0.48221749  0.42399144  0.87658254  1  -0.007978  0  -0.007901  -0.044864  0  4.018306  0
C  C37  1  0.51764264  0.57590184  0.12512673  1  0.016023  0  -0.008679  -0.045262  0  4.019783  0
C  C38  1  0.48297263  0.34746350  0.90127808  1  0.053687  0  -0.076751  -0.193148  0  3.982272  0
C  C39  1  0.51694582  0.65240714  0.10042102  1  -0.009178  0  -0.076774  -0.194178  0  3.982314  0
C  C40  1  0.48032706  0.57974106  0.87605846  1  -0.06088  0  -0.011572  -0.067588  0  4.007867  0
C  C41  1  0.51924967  0.42019374  0.12567651  1  -0.014157  0  -0.0112  -0.069  0  4.011805  0
C  C42  1  0.49176878  0.50000222  0.64858310  1  -0.017262  0  -0.01446  -0.032318  0  3.959214  0
C  C43  1  0.50746330  0.49969036  0.35306391  1  0.077755  0  -0.014458  -0.026461  0  3.953304  0
C  C44  1  0.50492027  0.41955138  0.02683182  1  -0.00835  0  0.003868  0.058642  0  3.954078  0
C  C45  1  0.49451037  0.58041226  0.97495163  1  -0.02041  0  0.004149  0.060292  0  3.952763  0
C  C46  1  0.50391988  0.57961339  0.02535462  1  -0.028155  0  -0.004413  -0.074696  0  3.96111  0
C  C47  1  0.49559469  0.42034795  0.97641346  1  0.041996  0  -0.003441  -0.072841  0  3.961538  0
C  C48  1  0.50746940  0.49957323  0.05058726  1  0.060999  0  0.00813  0.01983  0  3.89881  0
C  C49  1  0.49201061  0.50038724  0.95118763  1  0.044576  0  0.0079  0.017941  0  3.898117  0
C  C50  1  0.51297179  0.34322742  0.05296596  1  -0.060639  0  -0.084911  -0.128553  0  3.955434  0
C  C51  1  0.48646378  0.65671617  0.94880902  1  0.009419  0  -0.084924  -0.128931  0  3.959285  0
C  C52  1  0.51982092  0.34342253  0.10142205  1  -0.026954  0  -0.068467  -0.064338  0  3.974095  0
C  C53  1  0.47963754  0.65653692  0.90034351  1  0.000658  0  -0.068404  -0.064946  0  3.975747  0
C  C54  1  0.49547426  0.49987238  0.59468101  1  1.566345  0  0.216746  0.595623  0  4.167555  0
C  C55  1  0.50299159  0.50006379  0.40703020  1  1.57406  0  0.21408  0.589538  0  4.174734  0
C  C56  1  0.48871996  0.34728094  0.94977495  1  0.3833  0  0.108331  0.249029  0  4.016289  0
C  C57  1  0.51098701  0.65265549  0.05196495  1  0.453761  0  0.108885  0.249738  0  4.015023  0
C  C58  1  0.60425552  0.24268907  0.46986047  1  -0.009656  0  -0.016847  -0.010327  0  3.978889  0
C  C59  1  0.39412407  0.75998513  0.50304702  1  0.045478  0  -0.016606  -0.007767  0  3.97877  0
C  C60  1  0.72415969  0.11989684  0.43348792  1  -0.191068  0  -0.014117  0.071427  0  3.932884  0
C  C61  1  0.26950373  0.88468636  0.51952554  1  -0.14557  0  -0.014378  0.072455  0  3.930781  0
C  C62  1  0.70106959  0.20673911  0.44725835  1  0.126477  0  -0.094384  -0.151921  0  3.976917  0
C  C63  1  0.29612476  0.79639426  0.52046998  1  0.017664  0  -0.097527  -0.156443  0  3.980562  0
C  C64  1  0.53363376  0.19138668  0.47727145  1  -0.035671  0  -0.081525  -0.137145  0  3.942972  0
C  C65  1  0.46213349  0.81237012  0.48415126  1  -0.051996  0  -0.081961  -0.140785  0  3.947165  0
C  C66  1  0.55566471  0.10264612  0.46371724  1  0.04446  0  0.000201  0.044132  0  3.948574  0
C  C67  1  0.43647957  0.90265906  0.48303139  1  0.059602  0  0.001753  0.048311  0  3.948506  0
C  C68  1  0.65395011  0.06464794  0.44149664  1  -0.001238  0  -0.010151  0.034717  0  3.990045  0
C  C69  1  0.33748086  0.94102439  0.50216282  1  0.013748  0  -0.010833  0.033082  0  3.990162  0
C  C70  1  0.48193155  0.04852109  0.47375937  1  0.075556  0  0.000479  0.038289  0  3.953313  0
C  C71  1  0.50836341  0.95778001  0.46603898  1  -0.105889  0  -0.000552  0.037206  0  3.956708  0
C  C72  1  0.60629613  0.92302288  0.44202069  1  0.022475  0  -0.089161  -0.120224  0  4.005623  0
C  C73  1  0.38247882  0.08414187  0.49179774  1  -0.113738  0  -0.087848  -0.119161  0  4.005529  0
C  C74  1  0.67589499  0.97422807  0.42941292  1  -0.014951  0  -0.096615  -0.12409  0  4.022158  0
C  C75  1  0.31299784  0.03280881  0.50433829  1  0.002894  0  -0.09806  -0.126093  0  4.026224  0
C  C76  1  0.47946248  0.42189943  0.82432379  1  1.334961  0  0.24214  0.439977  0  4.100037  0
C  C77  1  0.52058708  0.57794058  0.17735566  1  1.34821  0  0.242873  0.435975  0  4.100138  0
C  C78  1  0.16221829  0.35637412  0.57095570  1  -0.028978  0  -0.079999  -0.179116  0  3.963724  0
C  C79  1  0.83772012  0.64106241  0.42675926  1  -0.085283  0  -0.079147  -0.177757  0  3.958859  0
C  C80  1  0.24904265  0.38394496  0.56297378  1  0.421738  0  0.051295  0.086131  0  3.954221  0
C  C81  1  0.74987085  0.61480149  0.43694209  1  0.472026  0  0.051441  0.088585  0  3.948081  0
C  C82  1  0.21146536  0.48629079  0.50796541  1  0.529559  0  0.061911  0.06867  0  3.877755  0
C  C83  1  0.79073546  0.51208152  0.49097858  1  0.547537  0  0.063759  0.070663  0  3.880802  0
C  C84  1  0.11686286  0.46919388  0.51706557  1  -0.005847  0  -0.000768  -0.01014  0  3.932341  0
C  C85  1  0.88624656  0.52772180  0.47940109  1  -0.025803  0  -0.000903  -0.011088  0  3.941378  0
C  C86  1  0.09531093  0.39701742  0.54695170  1  0.047501  0  0.009405  0.124134  0  4.017484  0
C  C87  1  0.90682161  0.59953949  0.44918124  1  0.053753  0  0.009332  0.125684  0  4.023073  0
C  C88  1  0.04512531  0.51580101  0.49600943  1  0.041761  0  0.007409  0.009707  0  3.890379  0
C  C89  1  0.95953530  0.48041123  0.49900316  1  0.029131  0  0.00604  0.008999  0  3.897698  0
C  C90  1  0.95160185  0.39777944  0.52161233  1  -0.145523  0  -0.001633  0.073265  0  3.930114  0
C  C91  1  0.05359075  0.59729970  0.47200289  1  -0.123703  0  -0.001688  0.073059  0  3.921647  0
C  C92  1  0.01233147  0.36167809  0.54787675  1  0.044458  0  -0.089598  -0.184904  0  3.980852  0
C  C93  1  0.99155855  0.63320723  0.44633661  1  0.054011  0  -0.089239  -0.184404  0  3.982303  0
C  C94  1  0.47649044  0.58172679  0.82400173  1  1.318282  0  0.241247  0.434952  0  4.105565  0
C  C95  1  0.52323225  0.41815143  0.17767631  1  1.324512  0  0.241623  0.432953  0  4.105524  0
C  C96  1  0.56594322  0.51669075  0.71379475  1  0.057963  0  -0.084902  -0.153085  0  3.978091  0
C  C97  1  0.43391484  0.48281043  0.28766528  1  0.026704  0  -0.085221  -0.153887  0  3.981355  0
C  C98  1  0.57040856  0.51606076  0.66367746  1  -0.045887  0  -0.07985  -0.07543  0  3.974592  0
C  C99  1  0.42917890  0.48318492  0.33779415  1  -0.063896  0  -0.080519  -0.077663  0  3.971373  0
C  C100  1  0.40860683  0.48448776  0.68431153  1  0.046133  0  -0.078784  -0.074228  0  3.972645  0
C  C101  1  0.59066441  0.51556620  0.31752928  1  -0.092212  0  -0.07978  -0.078037  0  3.971046  0
C  C102  1  0.40384181  0.48469349  0.73445863  1  -0.01188  0  -0.083621  -0.151001  0  3.978885  0
C  C103  1  0.59588411  0.51518070  0.26732493  1  0.061492  0  -0.083836  -0.15161  0  3.977479  0
C  C104  1  0.48264620  0.50093081  0.74889879  1  0.260668  0  0.091375  0.20045  0  4.010706  0
C  C105  1  0.51727425  0.49882565  0.25272816  1  0.246908  0  0.091365  0.196105  0  4.008938  0
Br  Br106  1  0.85653982  0.07385151  0.40347467  1  -0.094704  0  -0.007256  -0.106329  0  1.33063  0
Br  Br107  1  0.13586461  0.93112467  0.54432678  1  -0.090172  0  -0.006867  -0.106788  0  1.340921  0
Br  Br108  1  0.86489725  0.32482648  0.51299750  1  -0.008576  0  0.082018  -0.009886  0  1.465406  0
Br  Br109  1  0.14341311  0.66986712  0.47668408  1  -0.004505  0  0.086062  -0.010047  0  1.520272  0
N  N110  1  0.47911135  0.50140807  0.80074600  1  -1.174254  0  -0.229426  -0.224243  0  3.591918  0
N  N111  1  0.52099265  0.49840680  0.20088332  1  -1.184235  0  -0.229372  -0.208932  0  3.575055  0
N  N112  1  0.27369677  0.44636938  0.53035305  1  -1.252148  0  -0.321134  -0.187293  0  3.531096  0
N  N113  1  0.72634959  0.55310976  0.47028957  1  -1.239408  0  -0.321536  -0.186818  0  3.529141  0
O  O114  1  0.64063482  0.38356042  0.47784509  1  -1.154216  0  -0.319514  -0.542637  0  2.296451  0
O  O115  1  0.36203895  0.61650159  0.51528290  1  -1.167458  0  -0.318544  -0.541811  0  2.31277  0
O  O116  1  0.48587360  0.36256339  0.50463400  1  -1.184135  0  -0.321116  -0.560595  0  2.3602  0
O  O117  1  0.51585341  0.63998054  0.49798104  1  -1.162841  0  -0.318687  -0.554374  0  2.341536  0
O  O118  1  0.57506214  0.50771134  0.56330289  1  -1.174873  0  -0.318901  -0.549762  0  2.322584  0
O  O119  1  0.42585804  0.48490053  0.43780665  1  -1.173562  0  -0.317991  -0.549164  0  2.322027  0
O  O120  1  0.41829716  0.49214968  0.58445897  1  -1.163715  0  -0.318677  -0.549103  0  2.32784  0
O  O121  1  0.57722125  0.51541626  0.41789005  1  -1.164104  0  -0.319412  -0.552478  0  2.331332  0
O  O122  1  0.47895534  0.35462764  0.80223191  1  -1.096007  0  -0.281266  -0.438198  0  2.058893  0
O  O123  1  0.52115189  0.64518778  0.19945383  1  -1.100937  0  -0.28161  -0.438405  0  2.060528  0
O  O124  1  0.52734475  0.35092939  0.20029485  1  -1.088137  0  -0.278739  -0.436111  0  2.066935  0
O  O125  1  0.47218233  0.64897637  0.80140829  1  -1.092465  0  -0.278496  -0.434749  0  2.062418  0
F  F126  1  0.48723476  0.26846380  0.97069152  1  -0.627978  0  -0.085489  -0.132119  0  1.363184  0
F  F127  1  0.51251814  0.73145593  0.03104389  1  -0.628134  0  -0.085462  -0.132087  0  1.36383  0
