# generated using pymatgen
data_ZnH24(C11N2)4
_symmetry_space_group_name_H-M   'P 1'
_cell_length_a   9.03850745
_cell_length_b   19.28885972
_cell_length_c   19.28884256
_cell_angle_alpha   117.60738795
_cell_angle_beta   98.98565900
_cell_angle_gamma   98.99082436
_symmetry_Int_Tables_number   1
_chemical_formula_structural   ZnH24(C11N2)4
_chemical_formula_sum   'Zn3 H72 C132 N24'
_cell_volume   2841.19708697
_cell_formula_units_Z   3
loop_
 _symmetry_equiv_pos_site_id
 _symmetry_equiv_pos_as_xyz
  1  'x, y, z'
loop_
 _atom_site_type_symbol
 _atom_site_label
 _atom_site_symmetry_multiplicity
 _atom_site_fract_x
 _atom_site_fract_y
 _atom_site_fract_z
 _atom_site_occupancy
 _atom_site_pbe_bader_charge
 _atom_site_pbe_bader_spin_density
 _atom_site_pbe_cm5_charge
 _atom_site_pbe_ddec_charge
 _atom_site_pbe_ddec_spin_density
 _atom_site_pbe_ddec_sum_bond_order
 _atom_site_pbe_magmom
Zn  Zn0  1  0.50000096  0.50000010  0.00000041  1  1.245387  0  0.700362  0.593893  0  2.619944  0
Zn  Zn1  1  0.99999390  0.49999662  0.49999913  1  1.246461  0  0.700781  0.594608  0  2.616133  0
Zn  Zn2  1  0.49999740  0.00000319  0.50000421  1  1.24476  0  0.700886  0.594539  0  2.6185  0
H  H3  1  0.94238840  0.50416040  0.84872496  1  0.092262  0  0.096395  0.10919  0  1.062811  0
H  H4  1  0.43824129  0.34458342  0.49582866  1  0.085479  0  0.096502  0.110302  0  1.060607  0
H  H5  1  0.09371962  0.15129874  0.65542027  1  0.094062  0  0.096629  0.109781  0  1.062365  0
H  H6  1  0.05761099  0.49583846  0.15127388  1  0.092261  0  0.096402  0.109224  0  1.062763  0
H  H7  1  0.56175982  0.65541665  0.50417191  1  0.085467  0  0.096522  0.110339  0  1.060635  0
H  H8  1  0.90628150  0.84870133  0.34458030  1  0.094091  0  0.096643  0.109826  0  1.062331  0
H  H9  1  0.76298690  0.35086987  0.76469790  1  0.092206  0  0.100452  0.119188  0  1.018999  0
H  H10  1  0.41222062  0.41381853  0.64913923  1  0.057492  0  0.10049  0.118955  0  1.02007  0
H  H11  1  0.99828028  0.23531021  0.58615589  1  0.08185  0  0.10035  0.118841  0  1.019809  0
H  H12  1  0.23701504  0.64912960  0.23530090  1  0.092247  0  0.100452  0.119227  0  1.019002  0
H  H13  1  0.58778110  0.58618276  0.35086142  1  0.057493  0  0.100497  0.119001  0  1.020005  0
H  H14  1  0.00172308  0.76468986  0.41384432  1  0.081853  0  0.100348  0.118844  0  1.019793  0
H  H15  1  0.25468820  0.18903901  0.78537926  1  0.089384  0  0.099181  0.115573  0  1.046047  0
H  H16  1  0.06558799  0.59631313  0.81096089  1  0.081015  0  0.099302  0.115997  0  1.045453  0
H  H17  1  0.46926020  0.21460927  0.40367965  1  0.085538  0  0.099334  0.115932  0  1.044793  0
H  H18  1  0.74531179  0.81096106  0.21462071  1  0.089403  0  0.099193  0.115583  0  1.046034  0
H  H19  1  0.93441404  0.40368876  0.18904007  1  0.081072  0  0.099313  0.116023  0  1.04543  0
H  H20  1  0.53074061  0.78539020  0.59631854  1  0.085547  0  0.099345  0.115953  0  1.044786  0
H  H21  1  0.06040015  0.22560918  0.88089724  1  0.091129  0  0.104459  0.123236  0  1.017297  0
H  H22  1  0.83481176  0.65529977  0.77439867  1  0.096979  0  0.104415  0.123707  0  1.016721  0
H  H23  1  0.17948812  0.11909102  0.34472062  1  0.107074  0  0.104306  0.123599  0  1.017681  0
H  H24  1  0.93960015  0.77439150  0.11910303  1  0.091093  0  0.10445  0.123207  0  1.017316  0
H  H25  1  0.16518996  0.34470152  0.22560250  1  0.096778  0  0.104405  0.123671  0  1.016705  0
H  H26  1  0.82051300  0.88090905  0.65527891  1  0.10703  0  0.10432  0.123613  0  1.017686  0
H  H27  1  0.33720268  0.27269313  0.68352426  1  0.070289  0  0.107278  0.118509  0  0.993772  0
H  H28  1  0.06438944  0.41078515  0.72729663  1  0.081098  0  0.107127  0.118672  0  0.993476  0
H  H29  1  0.65366469  0.31647939  0.58918067  1  0.07633  0  0.107232  0.118548  0  0.992914  0
H  H30  1  0.66279589  0.72730634  0.31647532  1  0.070286  0  0.107275  0.118501  0  0.993772  0
H  H31  1  0.93561055  0.58921492  0.27270386  1  0.081096  0  0.107123  0.118663  0  0.993486  0
H  H32  1  0.34633388  0.68352008  0.41081943  1  0.076349  0  0.107211  0.1185  0  0.992943  0
H  H33  1  0.32173013  0.14227835  0.55887662  1  0.104988  0  0.114475  0.085272  0  1.009771  0
H  H34  1  0.17945728  0.41658791  0.85773128  1  0.10451  0  0.113977  0.084512  0  1.009651  0
H  H35  1  0.76285295  0.44111172  0.58339460  1  0.100615  0  0.114404  0.084961  0  1.009658  0
H  H36  1  0.67826986  0.85772173  0.44112334  1  0.104989  0  0.114475  0.085277  0  1.009774  0
H  H37  1  0.82054383  0.58341216  0.14226929  1  0.104508  0  0.113982  0.084519  0  1.009682  0
H  H38  1  0.23714562  0.55888775  0.41660551  1  0.10043  0  0.114398  0.084975  0  1.00962  0
H  H39  1  0.64578298  0.08589477  0.68704319  1  0.108874  0  0.11299  0.076723  0  1.034119  0
H  H40  1  0.55987165  0.60115788  0.91408879  1  0.133756  0  0.112833  0.076776  0  1.032268  0
H  H41  1  0.95869113  0.31294028  0.39883084  1  0.124212  0  0.113682  0.078272  0  1.032569  0
H  H42  1  0.35421813  0.91410531  0.31295634  1  0.108878  0  0.112981  0.076729  0  1.034075  0
H  H43  1  0.44012916  0.39884159  0.08591096  1  0.133754  0  0.112833  0.076738  0  1.032283  0
H  H44  1  0.04130887  0.68705979  0.60116913  1  0.124232  0  0.113665  0.078262  0  1.03259  0
H  H45  1  0.67531838  0.21338313  0.81675824  1  0.100254  0  0.110144  0.125005  0  0.992795  0
H  H46  1  0.46185738  0.60332555  0.78658162  1  0.098198  0  0.110285  0.125177  0  0.992536  0
H  H47  1  0.85856155  0.18324432  0.39663686  1  0.096744  0  0.110199  0.125043  0  0.992669  0
H  H48  1  0.32468019  0.78661633  0.18324134  1  0.100358  0  0.110144  0.124986  0  0.992784  0
H  H49  1  0.53814262  0.39667452  0.21341783  1  0.098192  0  0.110275  0.125183  0  0.992562  0
H  H50  1  0.14143956  0.81675575  0.60336319  1  0.096743  0  0.110204  0.125038  0  0.992687  0
H  H51  1  0.88378020  0.73242195  0.95858140  1  0.103707  0  0.109536  0.117387  0  0.985165  0
H  H52  1  0.15127190  0.22617731  0.26757849  1  0.072222  0  0.109123  0.116432  0  0.986158  0
H  H53  1  0.92514937  0.04142197  0.77384277  1  0.075542  0  0.109515  0.117512  0  0.985477  0
H  H54  1  0.11621980  0.26757813  0.04141856  1  0.103708  0  0.109537  0.117383  0  0.985163  0
H  H55  1  0.84872697  0.77382276  0.73242139  1  0.072239  0  0.10912  0.116426  0  0.986181  0
H  H56  1  0.07485175  0.95857811  0.22615780  1  0.075529  0  0.109507  0.117514  0  0.985491  0
H  H57  1  0.12992227  0.80314180  0.95026260  1  0.105511  0  0.119096  0.128239  0  0.970535  0
H  H58  1  0.32668673  0.14712631  0.19686906  1  0.11916  0  0.119139  0.128213  0  0.970385  0
H  H59  1  0.17960982  0.04973376  0.85286393  1  0.111398  0  0.119247  0.127693  0  0.970566  0
H  H60  1  0.87007660  0.19685827  0.04973677  1  0.105452  0  0.119101  0.128252  0  0.970512  0
H  H61  1  0.67331326  0.85287377  0.80313091  1  0.119168  0  0.119139  0.128212  0  0.970382  0
H  H62  1  0.82039130  0.95026631  0.14713612  1  0.111488  0  0.119273  0.127759  0  0.970495  0
H  H63  1  0.36863645  0.65222153  0.00857152  1  0.104686  0  0.105749  0.108893  0  1.048341  0
H  H64  1  0.71642362  0.35633586  0.34773471  1  0.096666  0  0.105923  0.108678  0  1.047519  0
H  H65  1  0.36007328  0.99141889  0.64365225  1  0.0962  0  0.105475  0.107711  0  1.047061  0
H  H66  1  0.63136497  0.34777915  0.99142831  1  0.104683  0  0.105748  0.108904  0  1.04833  0
H  H67  1  0.28357668  0.64366482  0.65226505  1  0.096666  0  0.105919  0.108642  0  1.047575  0
H  H68  1  0.63992641  0.00858058  0.35634793  1  0.096202  0  0.105463  0.107697  0  1.047055  0
H  H69  1  0.12274253  0.57920842  0.01199617  1  0.095438  0  0.101358  0.108902  0  1.03315  0
H  H70  1  0.54361110  0.43277228  0.42080901  1  0.096269  0  0.101108  0.108357  0  1.033703  0
H  H71  1  0.11076999  0.98801970  0.56721491  1  0.094589  0  0.101319  0.108751  0  1.03339  0
H  H72  1  0.87725889  0.42079227  0.98800418  1  0.095575  0  0.101372  0.1089  0  1.033172  0
H  H73  1  0.45638808  0.56722840  0.57919118  1  0.096268  0  0.101107  0.108351  0  1.033708  0
H  H74  1  0.88923001  0.01198038  0.43278557  1  0.094561  0  0.101345  0.108777  0  1.033337  0
C  C75  1  0.78586703  0.52158589  0.93294362  1  0.478019  0  0.091124  0.178907  0  4.031743  0
C  C76  1  0.26427366  0.41139196  0.47844662  1  0.41673  0  0.090565  0.179636  0  4.03534  0
C  C77  1  0.85300272  0.06706924  0.58862721  1  0.421921  0  0.090496  0.178754  0  4.033148  0
C  C78  1  0.21413378  0.47841358  0.06705509  1  0.477957  0  0.091085  0.178846  0  4.031806  0
C  C79  1  0.73572461  0.58860690  0.52155370  1  0.416308  0  0.090563  0.17967  0  4.035345  0
C  C80  1  0.14699645  0.93293144  0.41137350  1  0.421924  0  0.090445  0.178678  0  4.03316  0
C  C81  1  0.84575811  0.47815402  0.86371450  1  -0.068062  0  -0.107799  -0.183905  0  3.978646  0
C  C82  1  0.36768613  0.38560453  0.52186858  1  -0.122193  0  -0.107229  -0.185412  0  3.98244  0
C  C83  1  0.98213623  0.13628303  0.61438540  1  -0.050864  0  -0.107879  -0.184984  0  3.981266  0
C  C84  1  0.15424382  0.52184545  0.13628429  1  -0.068007  0  -0.107758  -0.183899  0  3.978682  0
C  C85  1  0.63231386  0.61439554  0.47813190  1  -0.121692  0  -0.107234  -0.185449  0  3.982463  0
C  C86  1  0.01786377  0.86371704  0.38561560  1  -0.05088  0  -0.107905  -0.185047  0  3.981385  0
C  C87  1  0.75367025  0.40037835  0.82057128  1  -0.116766  0  -0.109993  -0.191157  0  3.976824  0
C  C88  1  0.35345582  0.42022327  0.59964745  1  0.013394  0  -0.109097  -0.188793  0  3.978713  0
C  C89  1  0.93312048  0.17941977  0.57976857  1  -0.088009  0  -0.109815  -0.189844  0  3.978278  0
C  C90  1  0.24633026  0.59962052  0.17942764  1  -0.116812  0  -0.109998  -0.191212  0  3.976888  0
C  C91  1  0.64654560  0.57977741  0.40035291  1  0.013345  0  -0.109125  -0.188902  0  3.978651  0
C  C92  1  0.06687982  0.82058091  0.42023171  1  -0.087996  0  -0.109784  -0.18981  0  3.978276  0
C  C93  1  0.63711789  0.39589297  0.86331750  1  0.449926  0  0.089647  0.182676  0  4.053888  0
C  C94  1  0.24127752  0.46741203  0.60414390  1  0.463265  0  0.088424  0.180083  0  4.050873  0
C  C95  1  0.77377239  0.13667953  0.53257647  1  0.422295  0  0.089526  0.182083  0  4.054013  0
C  C96  1  0.36288262  0.60410589  0.13668142  1  0.449904  0  0.08963  0.182667  0  4.053921  0
C  C97  1  0.75872075  0.53258684  0.39585589  1  0.463247  0  0.088456  0.180125  0  4.050839  0
C  C98  1  0.22622821  0.86332175  0.46742463  1  0.422321  0  0.089518  0.182081  0  4.053969  0
C  C99  1  0.51390298  0.32720237  0.83618004  1  -0.010113  0  -0.000389  -0.082976  0  3.928212  0
C  C100  1  0.18663304  0.50891971  0.67278983  1  -0.009217  0  0.000357  -0.080145  0  3.921246  0
C  C101  1  0.67765163  0.16379932  0.49102955  1  0.054885  0  -0.000557  -0.083133  0  3.927488  0
C  C102  1  0.48609783  0.67279710  0.16381970  1  -0.010024  0  -0.000365  -0.082895  0  3.928108  0
C  C103  1  0.81336665  0.49107976  0.32720983  1  -0.009222  0  0.000348  -0.080182  0  3.921303  0
C  C104  1  0.32234979  0.83620136  0.50897184  1  0.055045  0  -0.000558  -0.083169  0  3.927456  0
C  C105  1  0.39087935  0.31971306  0.87117620  1  0.419442  0  0.089122  0.176532  0  4.057856  0
C  C106  1  0.07105920  0.55138093  0.68026616  1  0.448925  0  0.088486  0.173994  0  4.05494  0
C  C107  1  0.51961720  0.12881337  0.44855808  1  0.399218  0  0.089296  0.176239  0  4.056449  0
C  C108  1  0.60912146  0.68028641  0.12882355  1  0.419389  0  0.089074  0.176355  0  4.057903  0
C  C109  1  0.92893937  0.44861854  0.31973394  1  0.448929  0  0.088468  0.174  0  4.054993  0
C  C110  1  0.48038228  0.87118792  0.55144294  1  0.39895  0  0.089318  0.176316  0  4.056329  0
C  C111  1  0.26580246  0.24694406  0.83835029  1  -0.064107  0  -0.105743  -0.181953  0  3.972289  0
C  C112  1  0.01873103  0.59132195  0.75303666  1  -0.076486  0  -0.104875  -0.180405  0  3.971688  0
C  C113  1  0.42738087  0.16165530  0.40863865  1  -0.053499  0  -0.105242  -0.181226  0  3.970938  0
C  C114  1  0.73419611  0.75305540  0.16164774  1  -0.064104  0  -0.105762  -0.18191  0  3.972334  0
C  C115  1  0.98126927  0.40867873  0.24696413  1  -0.076987  0  -0.104875  -0.18042  0  3.971679  0
C  C116  1  0.57262024  0.83834478  0.59136089  1  -0.053606  0  -0.105227  -0.181209  0  3.970783  0
C  C117  1  0.16745829  0.26528912  0.88756354  1  -0.058353  0  -0.103486  -0.17897  0  3.970653  0
C  C118  1  0.90214421  0.62227158  0.73471416  1  -0.097929  0  -0.103915  -0.180496  0  3.971542  0
C  C119  1  0.27983025  0.11241696  0.37774510  1  -0.100535  0  -0.103977  -0.180411  0  3.971989  0
C  C120  1  0.83253916  0.73471034  0.11243596  1  -0.058297  0  -0.103504  -0.178966  0  3.970766  0
C  C121  1  0.09785609  0.37772910  0.26528715  1  -0.097321  0  -0.103933  -0.180542  0  3.971523  0
C  C122  1  0.72017229  0.88758372  0.62225482  1  -0.100352  0  -0.104003  -0.180486  0  3.972006  0
C  C123  1  0.23163332  0.34938864  0.95074588  1  0.4175  0  0.091044  0.176626  0  4.043218  0
C  C124  1  0.88226960  0.60137009  0.65062701  1  0.464253  0  0.090081  0.175185  0  4.045917  0
C  C125  1  0.28082598  0.04924368  0.39866522  1  0.417227  0  0.09047  0.175719  0  4.043702  0
C  C126  1  0.76836749  0.65061083  0.04925386  1  0.417493  0  0.091023  0.176624  0  4.043299  0
C  C127  1  0.11772866  0.39862877  0.34937330  1  0.464362  0  0.090105  0.175352  0  4.04581  0
C  C128  1  0.71917574  0.95075760  0.60133543  1  0.417228  0  0.090451  0.175733  0  4.04369  0
C  C129  1  0.84014283  0.60582757  0.98903324  1  -0.029537  0  -0.000385  -0.080271  0  3.917221  0
C  C130  1  0.23427785  0.38320813  0.39419842  1  -0.032601  0  8.3e-05  -0.081126  0  3.919528  0
C  C131  1  0.85117355  0.01100225  0.61679547  1  -0.008567  0  -0.000296  -0.079701  0  3.918814  0
C  C132  1  0.15985798  0.39417189  0.01096599  1  -0.029093  0  -0.000395  -0.080203  0  3.917153  0
C  C133  1  0.76571930  0.61679074  0.60580130  1  -0.032621  0  0.000157  -0.080973  0  3.919415  0
C  C134  1  0.14882705  0.98899904  0.38320614  1  -0.008499  0  -0.000339  -0.079723  0  3.918912  0
C  C135  1  0.50837773  0.25324042  0.75997913  1  0.014474  0  0.012886  0.130391  0  4.017376  0
C  C136  1  0.25502750  0.50668572  0.74675172  1  0.027238  0  0.012897  0.129396  0  4.015622  0
C  C137  1  0.74835958  0.24000583  0.49326509  1  -0.097588  0  0.012575  0.128411  0  4.015327  0
C  C138  1  0.49162227  0.74675966  0.24002084  1  0.014473  0  0.012883  0.130394  0  4.01731  0
C  C139  1  0.74497249  0.49331435  0.25324824  1  0.027172  0  0.012903  0.12942  0  4.01553  0
C  C140  1  0.25164041  0.75999425  0.50673488  1  -0.097755  0  0.012601  0.128462  0  4.015319  0
C  C141  1  0.40838811  0.23285397  0.68632925  1  -0.073099  0  -0.087149  -0.191357  0  3.955823  0
C  C142  1  0.17542708  0.45341993  0.76713400  1  -0.03805  0  -0.086782  -0.191139  0  3.95529  0
C  C143  1  0.72204596  0.31366693  0.54653478  1  -0.029237  0  -0.087087  -0.190197  0  3.953327  0
C  C144  1  0.59161158  0.76714550  0.31367042  1  -0.073101  0  -0.087155  -0.191381  0  3.955837  0
C  C145  1  0.82457291  0.54658014  0.23286597  1  -0.037901  0  -0.086771  -0.19112  0  3.955291  0
C  C146  1  0.27795292  0.68633315  0.45346563  1  -0.029216  0  -0.087117  -0.190207  0  3.953346  0
C  C147  1  0.39936009  0.16053564  0.61719481  1  0.491972  0  0.045293  0.096065  0  3.966548  0
C  C148  1  0.23880069  0.45664239  0.83946127  1  0.456501  0  0.04514  0.096366  0  3.964965  0
C  C149  1  0.78214610  0.38279228  0.54332855  1  0.510918  0  0.044972  0.095368  0  3.964678  0
C  C150  1  0.60063960  0.83946382  0.38280486  1  0.491972  0  0.045273  0.096036  0  3.966553  0
C  C151  1  0.76120043  0.54335768  0.16053878  1  0.456349  0  0.045126  0.096357  0  3.964967  0
C  C152  1  0.21785136  0.61720719  0.45667147  1  0.511109  0  0.045004  0.095387  0  3.964691  0
C  C153  1  0.58067023  0.12938211  0.68855911  1  0.483359  0  0.046529  0.100364  0  3.959117  0
C  C154  1  0.45124419  0.55918863  0.87061215  1  0.472333  0  0.047323  0.101045  0  3.957794  0
C  C155  1  0.89202514  0.31141746  0.44078839  1  0.49213  0  0.046056  0.098449  0  3.960287  0
C  C156  1  0.41933088  0.87061796  0.31144146  1  0.483386  0  0.046552  0.100333  0  3.959147  0
C  C157  1  0.54875580  0.44081144  0.12938730  1  0.472282  0  0.047334  0.101129  0  3.95773  0
C  C158  1  0.10797455  0.68858201  0.55921128  1  0.492142  0  0.04604  0.098404  0  3.960359  0
C  C159  1  0.59736985  0.20030118  0.76054484  1  -0.034526  0  -0.080897  -0.175379  0  3.924757  0
C  C160  1  0.39698899  0.56019808  0.79967296  1  -0.077978  0  -0.081355  -0.17574  0  3.923987  0
C  C161  1  0.83679775  0.23944908  0.43976213  1  -0.025086  0  -0.08077  -0.174231  0  3.923823  0
C  C162  1  0.40263015  0.79969889  0.23945461  1  -0.034647  0  -0.080904  -0.175349  0  3.924725  0
C  C163  1  0.60300958  0.43980139  0.20032714  1  -0.07783  0  -0.081342  -0.175759  0  3.923925  0
C  C164  1  0.16320225  0.76055100  0.56023836  1  -0.025104  0  -0.080792  -0.174252  0  3.923832  0
C  C165  1  0.98578312  0.65037773  0.98519466  1  -0.012123  0  0.001074  0.093193  0  3.992694  0
C  C166  1  0.33539006  0.33481472  0.34966862  1  0.00583  0  0.000747  0.090432  0  3.994045  0
C  C167  1  0.00056526  0.01480757  0.66517484  1  -0.037306  0  0.001514  0.092383  0  3.994121  0
C  C168  1  0.01421687  0.34962235  0.01480479  1  -0.012563  0  0.001069  0.093104  0  3.992728  0
C  C169  1  0.66460993  0.66518536  0.65033187  1  0.005694  0  0.000761  0.090407  0  3.994059  0
C  C170  1  0.99943503  0.98519312  0.33482595  1  -0.037323  0  0.001489  0.092322  0  3.994081  0
C  C171  1  0.99030012  0.71467786  0.96907359  1  -0.048951  0  -0.083898  -0.131605  0  3.956912  0
C  C172  1  0.27554422  0.25440757  0.28532746  1  -0.02133  0  -0.082936  -0.128536  0  3.954142  0
C  C173  1  0.02116383  0.03091373  0.74559823  1  -0.011346  0  -0.083571  -0.131378  0  3.956036  0
C  C174  1  0.00969957  0.28532161  0.03092556  1  -0.048889  0  -0.083891  -0.131563  0  3.956889  0
C  C175  1  0.72445435  0.74559190  0.71467212  1  -0.021345  0  -0.082947  -0.128529  0  3.954161  0
C  C176  1  0.97883759  0.96908695  0.25440212  1  -0.011265  0  -0.083585  -0.131399  0  3.955984  0
C  C177  1  0.12798454  0.75489568  0.96492937  1  -0.015266  0  -0.068429  -0.096727  0  3.942069  0
C  C178  1  0.37298233  0.21004211  0.24511331  1  0.014259  0  -0.068755  -0.097227  0  3.938685  0
C  C179  1  0.16298365  0.03506052  0.78994850  1  -0.005023  0  -0.068596  -0.095464  0  3.94183  0
C  C180  1  0.87201546  0.24510439  0.03507008  1  -0.015256  0  -0.068424  -0.096743  0  3.942014  0
C  C181  1  0.62701767  0.78995797  0.75488666  1  0.01424  0  -0.068755  -0.097223  0  3.938648  0
C  C182  1  0.83701746  0.96493955  0.21005207  1  -0.005198  0  -0.068614  -0.095525  0  3.941861  0
C  C183  1  0.26539700  0.73213884  0.97869473  1  0.061012  0  0.003148  0.049347  0  4.087512  0
C  C184  1  0.53316956  0.24654449  0.26785601  1  -0.000325  0  0.003834  0.050336  0  4.089325  0
C  C185  1  0.28666268  0.02131872  0.75344192  1  0.007943  0  0.003225  0.048227  0  4.088242  0
C  C186  1  0.73460300  0.26786124  0.02130420  1  0.0611  0  0.003134  0.049366  0  4.087453  0
C  C187  1  0.46683156  0.75345558  0.73214352  1  -0.000309  0  0.003823  0.050321  0  4.089314  0
C  C188  1  0.71333843  0.97868136  0.24655813  1  0.007963  0  0.003243  0.048226  0  4.088258  0
C  C189  1  0.26233349  0.66911940  0.99659248  1  -0.040614  0  -0.080139  -0.110577  0  3.967488  0
C  C190  1  0.59321261  0.32746197  0.33085339  1  -0.027261  0  -0.080704  -0.110778  0  3.965007  0
C  C191  1  0.26574545  0.00340399  0.67252832  1  0.005869  0  -0.079604  -0.107539  0  3.963152  0
C  C192  1  0.73766681  0.33088128  0.00340727  1  -0.040684  0  -0.080177  -0.110678  0  3.967525  0
C  C193  1  0.40678627  0.67253811  0.66914650  1  -0.027292  0  -0.080711  -0.110762  0  3.964998  0
C  C194  1  0.73425596  0.99659669  0.32747255  1  0.00595  0  -0.079578  -0.107522  0  3.96311  0
C  C195  1  0.12375457  0.62830654  0.99866984  1  -0.043623  0  -0.088941  -0.129889  0  3.96394  0
C  C196  1  0.49549313  0.37033342  0.37172848  1  -0.063074  0  -0.088067  -0.127648  0  3.960884  0
C  C197  1  0.12509337  0.00134155  0.62963952  1  -0.03735  0  -0.089416  -0.13076  0  3.962543  0
C  C198  1  0.87624573  0.37169414  0.00133043  1  -0.043786  0  -0.088906  -0.129776  0  3.963914  0
C  C199  1  0.50450574  0.62966665  0.62827193  1  -0.062901  0  -0.088045  -0.127606  0  3.960852  0
C  C200  1  0.87490581  0.99865913  0.37036067  1  -0.037435  0  -0.089435  -0.130732  0  3.962585  0
C  C201  1  0.40889966  0.76936198  0.97281093  1  0.817556  0  0.181416  0.248935  0  4.009585  0
C  C202  1  0.63943621  0.20341325  0.23067267  1  0.838737  0  0.18023  0.247291  0  4.011296  0
C  C203  1  0.43605043  0.02722819  0.79655799  1  0.839184  0  0.181351  0.249389  0  4.005983  0
C  C204  1  0.59110176  0.23063870  0.02718891  1  0.817768  0  0.18141  0.248936  0  4.009497  0
C  C205  1  0.36056378  0.79658683  0.76932781  1  0.838755  0  0.180263  0.247306  0  4.011344  0
C  C206  1  0.56395038  0.97277128  0.20344175  1  0.839179  0  0.181347  0.249408  0  4.005951  0
N  N207  1  0.66171859  0.46954688  0.93166973  1  -1.21964  0  -0.36192  -0.356431  0  3.4467  0
N  N208  1  0.19215946  0.46211893  0.53049234  1  -1.211472  0  -0.362193  -0.3564  0  3.446646  0
N  N209  1  0.73006433  0.06833644  0.53789757  1  -1.208498  0  -0.361364  -0.356004  0  3.445684  0
N  N210  1  0.33828192  0.53045199  0.06832920  1  -1.219643  0  -0.361931  -0.356433  0  3.446826  0
N  N211  1  0.80783626  0.53787933  0.46950699  1  -1.211498  0  -0.362241  -0.356426  0  3.446576  0
N  N212  1  0.26993545  0.93166546  0.46210478  1  -1.208532  0  -0.361312  -0.355922  0  3.445591  0
N  N213  1  0.36855171  0.37999439  0.93993034  1  -1.210493  0  -0.364181  -0.362152  0  3.460196  0
N  N214  1  0.98852985  0.55991226  0.62001215  1  -1.200217  0  -0.364089  -0.360319  0  3.45933  0
N  N215  1  0.42855343  0.06006118  0.44008158  1  -1.197468  0  -0.364206  -0.361114  0  3.459193  0
N  N216  1  0.63145023  0.62000508  0.06007001  1  -1.210468  0  -0.364107  -0.362045  0  3.460126  0
N  N217  1  0.01146699  0.44008600  0.37998778  1  -1.200253  0  -0.364043  -0.360331  0  3.459185  0
N  N218  1  0.57144636  0.93994072  0.55992077  1  -1.197296  0  -0.364242  -0.361193  0  3.459223  0
N  N219  1  0.48326228  0.10935453  0.61817661  1  -1.228395  0  -0.315235  -0.229867  0  3.491417  0
N  N220  1  0.37389253  0.50882422  0.89064290  1  -1.247217  0  -0.315165  -0.229987  0  3.491617  0
N  N221  1  0.86503475  0.38180750  0.49114740  1  -1.239116  0  -0.315114  -0.229446  0  3.493241  0
N  N222  1  0.51673883  0.89064554  0.38182344  1  -1.22842  0  -0.315224  -0.229828  0  3.491396  0
N  N223  1  0.62610828  0.49117525  0.10935685  1  -1.247161  0  -0.315182  -0.230045  0  3.491547  0
N  N224  1  0.13496351  0.61819136  0.50885188  1  -1.239162  0  -0.315041  -0.22936  0  3.493246  0
N  N225  1  0.52895235  0.79564292  0.96693622  1  -1.140406  0  -0.323959  -0.383013  0  2.696421  0
N  N226  1  0.73322395  0.17126699  0.20437606  1  -1.142964  0  -0.323597  -0.382565  0  2.696941  0
N  N227  1  0.56196021  0.03305826  0.82869783  1  -1.148525  0  -0.324183  -0.383584  0  2.693841  0
N  N228  1  0.47104795  0.20435776  0.03306405  1  -1.140632  0  -0.323967  -0.383035  0  2.696346  0
N  N229  1  0.26677523  0.82873369  0.79562412  1  -1.142979  0  -0.323613  -0.382572  0  2.696982  0
N  N230  1  0.43804090  0.96694181  0.17130170  1  -1.148502  0  -0.324178  -0.383588  0  2.693792  0
