# generated using pymatgen
data_Ni2H28C40N8O9
_symmetry_space_group_name_H-M   'P 1'
_cell_length_a   13.01840878
_cell_length_b   13.19402943
_cell_length_c   20.83763804
_cell_angle_alpha   81.13331659
_cell_angle_beta   71.78581214
_cell_angle_gamma   60.41670586
_symmetry_Int_Tables_number   1
_chemical_formula_structural   Ni2H28C40N8O9
_chemical_formula_sum   'Ni4 H56 C80 N16 O18'
_cell_volume   2956.63866873
_cell_formula_units_Z   2
loop_
 _symmetry_equiv_pos_site_id
 _symmetry_equiv_pos_as_xyz
  1  'x, y, z'
loop_
 _atom_site_type_symbol
 _atom_site_label
 _atom_site_symmetry_multiplicity
 _atom_site_fract_x
 _atom_site_fract_y
 _atom_site_fract_z
 _atom_site_occupancy
 _atom_site_pbe_bader_charge
 _atom_site_pbe_bader_spin_density
 _atom_site_pbe_cm5_charge
 _atom_site_pbe_ddec_charge
 _atom_site_pbe_ddec_spin_density
 _atom_site_pbe_ddec_sum_bond_order
 _atom_site_pbe_magmom
Ni  Ni0  1  0.61854133  0.51101104  0.53708555  1  1.301843  1.277793  0.745961  0.961779  1.578356  2.776003  1.253
Ni  Ni1  1  0.87078653  0.51090782  0.46277896  1  1.302194  1.270045  0.746112  0.960175  1.568592  2.77963  1.245
Ni  Ni2  1  0.90569703  0.01087543  0.96277653  1  1.303015  1.284338  0.745651  0.959802  1.585481  2.775223  1.259
Ni  Ni3  1  0.08348412  0.01092536  0.03714952  1  1.298464  1.263219  0.747381  0.960401  1.55998  2.782187  1.238
H  H4  1  0.79499410  0.14865184  0.78208742  1  0.058657  0.000577  0.094306  0.090255  0.000309  1.03312  0.0
H  H5  1  0.05654671  0.14894505  0.21751042  1  0.064778  0.000571  0.094621  0.090705  0.000306  1.033495  0.0
H  H6  1  0.32750602  0.64879874  0.71748497  1  0.061889  0.000569  0.094478  0.090053  0.000307  1.035112  0.0
H  H7  1  0.02407563  0.64946192  0.28237957  1  0.06792  0.000573  0.094424  0.090417  0.00031  1.034293  0.0
H  H8  1  0.01104616  0.36165879  0.63861041  1  0.084758  0.000707  0.099042  0.098665  0.000379  1.011932  0.0
H  H9  1  0.62751673  0.36188005  0.36126974  1  0.074286  0.000707  0.099016  0.098724  0.000378  1.012838  0.0
H  H10  1  0.40010345  0.86117262  0.86133172  1  0.061365  0.000697  0.098643  0.098341  0.000377  1.01169  0.0
H  H11  1  0.73848006  0.86219016  0.13883831  1  0.050683  0.000714  0.098413  0.097452  0.000379  1.011906  0.0
H  H12  1  0.73917217  0.24971534  0.67646639  1  0.050101  0.000367  0.098503  0.102348  0.000185  1.014047  0.0
H  H13  1  0.01156144  0.24965812  0.32326010  1  0.056248  0.000358  0.098558  0.102287  0.000181  1.013591  0.0
H  H14  1  0.16590028  0.74984040  0.82307626  1  0.07665  0.000358  0.098526  0.102613  0.000183  1.013827  0.0
H  H15  1  0.08452338  0.75036461  0.17664631  1  0.072104  0.000349  0.098712  0.102605  0.000178  1.013778  0.0
H  H16  1  0.46999916  0.46658127  0.68197265  1  0.159641  0.000204  0.138749  0.104402  -3.1e-05  1.034855  0.0
H  H17  1  0.06372624  0.46584935  0.31810496  1  0.167132  0.000198  0.138855  0.104024  -3.4e-05  1.03394  0.0
H  H18  1  0.90176361  0.96645828  0.81794429  1  0.163218  0.000205  0.138839  0.104252  -2.9e-05  1.033406  0.0
H  H19  1  0.13071137  0.96632727  0.18207436  1  0.148299  0.000189  0.139123  0.104576  -3.6e-05  1.033622  0.0
H  H20  1  0.07053932  0.25653204  0.74266349  1  0.043644  0.000357  0.095906  0.092563  0.000147  1.047413  0.0
H  H21  1  0.67296254  0.25723478  0.25706084  1  0.046774  0.000355  0.096111  0.093164  0.000146  1.048014  0.0
H  H22  1  0.56376319  0.75600907  0.75733606  1  0.064554  0.000353  0.096022  0.093717  0.000146  1.04794  0.0
H  H23  1  0.67999703  0.75729460  0.24304333  1  0.069855  0.000351  0.096154  0.094171  0.000146  1.04686  0.0
H  H24  1  0.18257991  0.09275670  0.89443454  1  0.270754  0.000453  0.143347  0.129002  0.00014  1.050555  0.0
H  H25  1  0.72446871  0.09283902  0.10548310  1  0.265615  0.000465  0.143631  0.12887  0.000143  1.05065  0.0
H  H26  1  0.82601066  0.59366481  0.60539102  1  0.24906  0.000462  0.143473  0.128468  0.000147  1.053184  0.0
H  H27  1  0.57965753  0.59286704  0.39437262  1  0.265554  0.000455  0.143524  0.128649  0.000137  1.050614  0.0
H  H28  1  0.39797911  0.29034279  0.88720448  1  0.08129  4e-05  0.107982  0.113061  2.2e-05  1.002735  0.0
H  H29  1  0.31137457  0.29069568  0.11305394  1  0.066844  4.1e-05  0.10783  0.113005  2.1e-05  1.002662  0.0
H  H30  1  0.03499671  0.79032171  0.61293796  1  0.075347  4.1e-05  0.108504  0.114215  2.2e-05  1.001545  0.0
H  H31  1  0.17388381  0.79054259  0.38742016  1  0.090641  3.9e-05  0.108209  0.113406  2.1e-05  1.001271  0.0
H  H32  1  0.49074388  0.33951864  0.77219726  1  0.080321  2.9e-05  0.114016  0.12255  1.2e-05  0.991852  0.0
H  H33  1  0.16981524  0.33940624  0.22820041  1  0.060781  2.8e-05  0.114298  0.122853  1.2e-05  0.991088  0.0
H  H34  1  0.01215907  0.83954834  0.72805580  1  0.068597  2.9e-05  0.114124  0.123055  1.2e-05  0.99187  0.0
H  H35  1  0.14697376  0.83944704  0.27237035  1  0.058845  2.8e-05  0.114185  0.122678  1.2e-05  0.991234  0.0
H  H36  1  0.18565971  0.19862116  0.80713889  1  0.177134  -1.6e-05  0.113114  0.131135  -4e-05  1.052638  0.0
H  H37  1  0.61598764  0.19882063  0.19271924  1  0.170314  -1.5e-05  0.112806  0.129945  -4e-05  1.053192  0.0
H  H38  1  0.74156814  0.69983664  0.69247623  1  0.161824  -1.4e-05  0.112698  0.130596  -4.1e-05  1.053763  0.0
H  H39  1  0.55785296  0.69973019  0.30735341  1  0.158681  -1.4e-05  0.112478  0.130421  -4e-05  1.052773  0.0
H  H40  1  0.27637200  0.25075452  0.69248463  1  0.067583  2.3e-05  0.111789  0.1168  1.3e-05  0.994739  0.0
H  H41  1  0.47347451  0.25060385  0.30753061  1  0.076383  2.2e-05  0.11205  0.11737  1.4e-05  0.994218  0.0
H  H42  1  0.71690591  0.75234668  0.80724298  1  0.078736  2.3e-05  0.111828  0.117239  1.4e-05  0.993919  0.0
H  H43  1  0.52971312  0.75158355  0.19265307  1  0.08789  2.1e-05  0.112254  0.117973  1.3e-05  0.993313  0.0
H  H44  1  0.12396850  0.21158250  0.08516619  1  0.131509  0.000511  0.122924  0.12253  0.000125  1.004974  0.001
H  H45  1  0.66397823  0.21192782  0.91485244  1  0.13262  0.000527  0.123016  0.122664  0.000134  1.004673  0.001
H  H46  1  0.96067205  0.71078923  0.41467064  1  0.101366  0.000519  0.122561  0.121585  0.000128  1.006053  0.001
H  H47  1  0.32946312  0.71233214  0.58523088  1  0.130055  0.000524  0.123013  0.122436  0.000131  1.005147  0.001
H  H48  1  0.44061258  0.21451359  0.59510716  1  0.108653  0.000535  0.126764  0.127255  0.000261  1.002621  0.0
H  H49  1  0.34541325  0.21489590  0.40524941  1  0.133269  0.000506  0.127115  0.128003  0.00025  1.001808  0.0
H  H50  1  0.78412003  0.71536902  0.90486051  1  0.094942  0.000544  0.126529  0.12644  0.000264  1.003325  0.0
H  H51  1  0.49948953  0.71476287  0.09533240  1  0.140304  0.000502  0.1266  0.126419  0.000248  1.003601  0.0
H  H52  1  0.54218624  0.33087000  0.49411367  1  0.159375  0.000267  0.122836  0.121641  9.7e-05  1.008182  0.0
H  H53  1  0.12720799  0.33137968  0.50610516  1  0.116396  0.000269  0.12254  0.121669  9.7e-05  1.007686  0.0
H  H54  1  0.78613189  0.83077742  0.00580177  1  0.110597  0.000275  0.122788  0.121973  0.0001  1.007615  0.0
H  H55  1  0.38275578  0.83115948  0.99422847  1  0.105085  0.000257  0.12296  0.121879  9.3e-05  1.007384  0.0
H  H56  1  0.23482483  0.32392272  0.98633860  1  0.101206  0.000874  0.120021  0.116995  0.000418  1.021137  0.0
H  H57  1  0.44085616  0.32444846  0.01379714  1  0.135027  0.00087  0.119938  0.116959  0.000423  1.020827  0.0
H  H58  1  0.97220593  0.82335754  0.51358987  1  0.097471  0.00088  0.119968  0.116757  0.000422  1.0218  0.0
H  H59  1  0.20462674  0.82487399  0.48656915  1  0.11147  0.000878  0.120385  0.117812  0.000423  1.021387  0.0
C  C60  1  0.87297186  0.31006004  0.65085417  1  -0.006857  0.020803  -0.015134  -0.016172  0.013372  3.947263  0.017
C  C61  1  0.81727916  0.31016233  0.34893429  1  -0.014756  0.020712  -0.015158  -0.016808  0.01329  3.949163  0.017
C  C62  1  0.27411387  0.80995169  0.84889193  1  -0.061223  0.02069  -0.015151  -0.017716  0.013307  3.949313  0.017
C  C63  1  0.91592398  0.81062313  0.15108301  1  -0.053771  0.020588  -0.015545  -0.018114  0.013216  3.950322  0.017
C  C64  1  0.84362709  0.19388101  0.74999075  1  -0.050448  0.000653  -0.097891  -0.117945  0.000249  4.014664  0.0
C  C65  1  0.96270936  0.19420063  0.24967996  1  -0.01669  0.000642  -0.097906  -0.11844  0.000248  4.014563  0.0
C  C66  1  0.34406248  0.69386185  0.74966949  1  -0.061154  0.000622  -0.096752  -0.116269  0.000224  4.017818  0.0
C  C67  1  0.96230038  0.69470402  0.25028385  1  -0.057198  0.000599  -0.098211  -0.118852  0.000204  4.019009  0.0
C  C68  1  0.93793679  0.19483987  0.76851451  1  -0.030702  0.011562  -0.017318  -0.021648  0.007294  3.954723  0.009
C  C69  1  0.86730886  0.19532740  0.23119328  1  -0.03718  0.011607  -0.017539  -0.021081  0.007322  3.955499  0.009
C  C70  1  0.45700384  0.69458416  0.73126455  1  -0.035128  0.011584  -0.017931  -0.022682  0.007285  3.958099  0.009
C  C71  1  0.84850338  0.69565259  0.26880316  1  -0.039004  0.011753  -0.016267  -0.019462  0.007363  3.956055  0.009
C  C72  1  0.96597447  0.31265596  0.66966349  1  -0.055727  0.000919  -0.089402  -0.098839  0.000234  3.98707  0.001
C  C73  1  0.72157785  0.31295338  0.33013340  1  -0.02849  0.000903  -0.089427  -0.099091  0.000232  3.989575  0.001
C  C74  1  0.38603616  0.81234604  0.83019185  1  0.006468  0.000934  -0.089179  -0.097946  0.000275  3.989949  0.001
C  C75  1  0.80143734  0.81335014  0.16995088  1  -0.002167  0.000949  -0.08866  -0.096268  0.000283  3.989356  0.001
C  C76  1  0.81187879  0.25033124  0.69156356  1  -0.04297  0.000521  -0.090818  -0.099416  -0.000125  3.988563  0.0
C  C77  1  0.93813224  0.25045100  0.30816927  1  -0.087095  0.000507  -0.090899  -0.099024  -0.000142  3.988872  0.0
C  C78  1  0.25375611  0.75033503  0.80809044  1  -0.023943  0.000519  -0.091082  -0.098879  -8.4e-05  3.988079  0.0
C  C79  1  0.99607188  0.75102711  0.19180513  1  -0.052397  0.000529  -0.090829  -0.098354  -9.1e-05  3.988063  0.0
C  C80  1  0.38828026  0.29982013  0.72487845  1  0.307686  0.000202  0.092836  0.15904  0.000111  4.035831  0.0
C  C81  1  0.31231314  0.29954230  0.27532034  1  0.323014  0.000196  0.093758  0.16123  0.000106  4.03463  0.0
C  C82  1  0.86191537  0.80045638  0.77508137  1  0.290577  0.000204  0.093213  0.161332  0.000112  4.032894  0.0
C  C83  1  0.33644130  0.80000950  0.22504549  1  0.256926  0.00019  0.092279  0.158366  9.9e-05  4.034382  0.0
C  C84  1  0.83613919  0.37339464  0.58894695  1  1.576993  -0.000276  0.222111  0.590366  -0.000685  4.161912  -0.002
C  C85  1  0.79067811  0.37344058  0.41089833  1  1.587598  -0.00029  0.22217  0.589969  -0.000712  4.161314  -0.002
C  C86  1  0.17529284  0.87328180  0.91083193  1  1.574043  -6.4e-05  0.221546  0.588437  -0.000587  4.161634  -0.002
C  C87  1  0.95139320  0.87365289  0.08903873  1  1.58378  -0.000207  0.222047  0.588778  -0.000618  4.162203  -0.002
C  C88  1  0.47595254  0.41421480  0.64450611  1  0.96832  -0.002283  0.148962  0.103782  -0.002952  3.886706  -0.001
C  C89  1  0.11017155  0.41374702  0.35560932  1  0.968043  -0.002311  0.148962  0.103991  -0.002975  3.886401  -0.001
C  C90  1  0.86998983  0.91427609  0.85541949  1  0.957601  -0.002246  0.149886  0.105926  -0.002894  3.883998  -0.001
C  C91  1  0.21476411  0.91413128  0.14463048  1  0.977092  -0.00227  0.149934  0.105021  -0.002918  3.883682  -0.001
C  C92  1  0.99835804  0.25503119  0.72766395  1  0.003288  0.001974  -0.091361  -0.103796  0.00109  4.000222  0.002
C  C93  1  0.74670650  0.25556189  0.27206975  1  -0.007886  0.001974  -0.091507  -0.104642  0.001096  4.002815  0.002
C  C94  1  0.47653989  0.75462973  0.77221709  1  -0.031646  0.001944  -0.091235  -0.105174  0.001072  4.001801  0.001
C  C95  1  0.76866079  0.75584647  0.22799689  1  -0.007087  0.00189  -0.091957  -0.107017  0.001049  4.002649  0.001
C  C96  1  0.18561514  0.13721797  0.93290451  1  0.92286  -0.003335  0.157765  0.118371  -0.00426  3.827011  -0.002
C  C97  1  0.67693829  0.13734907  0.06703859  1  0.938999  -0.003405  0.157113  0.119157  -0.004331  3.827999  -0.002
C  C98  1  0.86808351  0.63773008  0.56694329  1  0.947355  -0.003352  0.157432  0.119494  -0.004282  3.826911  -0.002
C  C99  1  0.49383046  0.63751008  0.43291419  1  0.957174  -0.003397  0.158235  0.11392  -0.00432  3.825052  -0.002
C  C100  1  0.97687600  0.13109644  0.83076844  1  1.586613  -0.000791  0.205268  0.571338  -0.000935  4.2161  -0.002
C  C101  1  0.89194329  0.13163009  0.16896556  1  1.581451  -0.000753  0.205229  0.570866  -0.000911  4.216236  -0.002
C  C102  1  0.55820534  0.63082951  0.66899767  1  1.594888  -0.000858  0.204991  0.571725  -0.000942  4.215835  -0.002
C  C103  1  0.81106010  0.63180602  0.33098524  1  1.601354  -0.000909  0.204263  0.571384  -0.000941  4.21834  -0.002
C  C104  1  0.36930226  0.28397053  0.84478456  1  -0.001076  0.000101  -0.089182  -0.152746  4.3e-05  3.998637  0.0
C  C105  1  0.34660164  0.28415962  0.15542702  1  0.033121  0.000106  -0.088966  -0.153209  4.7e-05  3.998922  0.0
C  C106  1  0.96357500  0.78421400  0.65525375  1  -0.031679  0.000106  -0.089576  -0.153858  4.3e-05  3.996568  0.0
C  C107  1  0.25130919  0.78426423  0.34497081  1  -0.019963  0.000102  -0.088836  -0.152251  4.4e-05  3.997482  0.0
C  C108  1  0.42184822  0.31137933  0.77992326  1  -0.001178  1.6e-05  -0.087447  -0.156228  -2.6e-05  3.99561  0.0
C  C109  1  0.26690339  0.31125747  0.22036558  1  -0.014424  8e-06  -0.088041  -0.156967  -3.3e-05  3.995357  0.0
C  C110  1  0.95094094  0.81164259  0.72016542  1  0.022157  1.7e-05  -0.088041  -0.158065  -2.4e-05  3.993603  0.0
C  C111  1  0.23626762  0.81148335  0.28009131  1  0.053459  1.1e-05  -0.087726  -0.156402  -2.9e-05  3.99156  0.0
C  C112  1  0.28357057  0.24442673  0.85479573  1  0.290512  0.000444  0.096849  0.167147  0.000286  4.01178  0.0
C  C113  1  0.47191430  0.24471101  0.14528113  1  0.264193  0.000448  0.096764  0.168503  0.000287  4.01203  0.0
C  C114  1  0.88771152  0.74498633  0.64510038  1  0.320926  0.000445  0.097625  0.168314  0.000287  4.014396  0.0
C  C115  1  0.36656931  0.74498403  0.35495835  1  0.244748  0.000454  0.097756  0.16152  0.00029  4.012941  0.0
C  C116  1  0.25168485  0.23069036  0.79962418  1  -0.034268  -0.000121  -0.082274  -0.147207  -0.000167  3.944945  0.0
C  C117  1  0.51783797  0.23084671  0.20035142  1  -0.008347  -0.000122  -0.081826  -0.145481  -0.000169  3.944454  0.0
C  C118  1  0.80009718  0.73176009  0.70013260  1  -0.036211  -0.000122  -0.082203  -0.146652  -0.000169  3.945953  0.0
C  C119  1  0.46733516  0.73147842  0.29979838  1  -0.00987  -0.000125  -0.082286  -0.147133  -0.00017  3.950284  0.0
C  C120  1  0.30378768  0.25873226  0.73504420  1  -0.002693  1e-06  -0.085089  -0.146134  -2.8e-05  3.984836  0.0
C  C121  1  0.43793248  0.25860483  0.26501968  1  -0.009794  -4e-06  -0.086636  -0.148887  -3.2e-05  3.984723  0.0
C  C122  1  0.78726927  0.75989774  0.76476252  1  0.009647  4e-06  -0.085833  -0.148148  -2.5e-05  3.982787  0.0
C  C123  1  0.45181546  0.75932279  0.23520884  1  0.037862  -8e-06  -0.085628  -0.147515  -3.4e-05  3.985564  0.0
C  C124  1  0.15632339  0.20255372  0.03068355  1  0.432828  0.000528  0.00492  -0.022989  0.000105  3.998405  0.001
C  C125  1  0.64073760  0.20283221  0.96933367  1  0.444451  0.000548  0.004712  -0.023862  0.000134  3.999727  0.001
C  C126  1  0.93793137  0.70214522  0.46916995  1  0.4378  0.000549  0.005922  -0.022219  0.000128  3.999152  0.001
C  C127  1  0.36036939  0.70321946  0.53075386  1  0.413406  0.000556  0.005303  -0.022567  0.00011  3.999941  0.001
C  C128  1  0.45945674  0.28477501  0.59771512  1  0.286817  0.001726  -0.00777  -0.129308  0.001029  3.942199  0.001
C  C129  1  0.25623514  0.28498770  0.40254870  1  0.240869  0.001711  -0.008083  -0.130417  0.00101  3.944065  0.001
C  C130  1  0.80598991  0.78534825  0.90225077  1  0.313129  0.001713  -0.006647  -0.126663  0.00102  3.942961  0.001
C  C131  1  0.40772758  0.78493911  0.09787972  1  0.273673  0.001654  -0.007155  -0.127878  0.000982  3.943429  0.001
C  C132  1  0.50914876  0.34258123  0.54842775  1  0.396941  0.000235  0.006122  -0.017276  -0.000112  3.987266  0.0
C  C133  1  0.14857324  0.34281371  0.45177711  1  0.46066  0.000184  0.006594  -0.017025  -0.00013  3.986299  0.0
C  C134  1  0.80716919  0.84264374  0.95150483  1  0.446109  0.000235  0.00578  -0.019005  -8e-05  3.989309  0.0
C  C135  1  0.34961193  0.84273822  0.04854857  1  0.440104  0.000208  0.006978  -0.017113  -0.000111  3.988787  0.0
C  C136  1  0.21144638  0.25738321  0.98249585  1  0.263743  0.002739  -0.011887  -0.137478  0.001548  3.963667  0.002
C  C137  1  0.53079848  0.25772702  0.01757106  1  0.22634  0.002795  -0.01181  -0.136343  0.001571  3.962973  0.002
C  C138  1  0.94467396  0.75705287  0.51739803  1  0.28713  0.002749  -0.012474  -0.137338  0.001565  3.963855  0.002
C  C139  1  0.29836790  0.75809718  0.48266565  1  0.258901  0.002767  -0.012192  -0.144472  0.00157  3.960325  0.002
N  N140  1  0.22957582  0.21533563  0.92037355  1  -1.258469  0.001464  -0.224635  0.013454  0.000651  3.789917  0.001
N  N141  1  0.55483433  0.21561152  0.07965409  1  -1.261838  0.001488  -0.224568  0.011039  0.000666  3.791133  0.001
N  N142  1  0.89979115  0.71560867  0.57950317  1  -1.24633  0.001475  -0.225043  0.011932  0.000659  3.790784  0.001
N  N143  1  0.38418903  0.71582782  0.42050286  1  -1.242425  0.001501  -0.225561  0.031747  0.000672  3.764045  0.001
N  N144  1  0.43911410  0.33068488  0.65899230  1  -1.265273  0.000386  -0.22585  0.008882  3.6e-05  3.807218  0.0
N  N145  1  0.23066875  0.33042829  0.34122229  1  -1.258868  0.00036  -0.225353  0.008302  2e-05  3.809565  0.0
N  N146  1  0.84692697  0.83121983  0.84097366  1  -1.26798  0.000405  -0.227213  0.005647  4.5e-05  3.810678  0.0
N  N147  1  0.32068750  0.83070825  0.15914052  1  -1.264484  0.000335  -0.226328  0.007826  2e-06  3.806241  0.0
N  N148  1  0.51820286  0.42278324  0.57849800  1  -1.154547  0.02875  -0.333943  -0.243774  0.018989  3.550278  0.025
N  N149  1  0.05925336  0.42259877  0.42160274  1  -1.169819  0.028248  -0.334256  -0.242302  0.018657  3.551668  0.025
N  N150  1  0.84667535  0.92257448  0.92140573  1  -1.159675  0.029277  -0.334525  -0.244224  0.019269  3.551153  0.026
N  N151  1  0.23015508  0.92279033  0.07860541  1  -1.157148  0.02767  -0.33558  -0.243631  0.018255  3.555756  0.024
N  N152  1  0.14184306  0.12826284  0.99867718  1  -1.155474  0.054746  -0.335991  -0.233813  0.034827  3.586312  0.047
N  N153  1  0.72960941  0.12838547  0.00125885  1  -1.169698  0.05572  -0.335974  -0.234288  0.035411  3.58576  0.048
N  N154  1  0.89071556  0.62838679  0.50114860  1  -1.15797  0.055057  -0.336336  -0.233749  0.034988  3.584169  0.048
N  N155  1  0.48106166  0.62863315  0.49865432  1  -1.178905  0.055722  -0.33653  -0.235896  0.035419  3.586153  0.048
O  O156  1  0.70904443  0.58229848  0.50005757  1  -0.630335  0.618582  -0.388201  -0.550496  0.364293  1.852832  0.519
O  O157  1  0.95885928  0.08221994  0.00003957  1  -0.63334  0.618832  -0.388914  -0.550801  0.364595  1.854235  0.519
O  O158  1  0.73746505  0.38339326  0.58262774  1  -1.119256  0.070333  -0.299387  -0.53173  0.041529  2.391821  0.065
O  O159  1  0.87933430  0.38348108  0.41719926  1  -1.113047  0.069528  -0.299107  -0.530687  0.041077  2.391675  0.065
O  O160  1  0.07030464  0.88327432  0.91716745  1  -1.114954  0.070291  -0.298752  -0.529932  0.041467  2.388883  0.065
O  O161  1  0.04631344  0.88376457  0.08274347  1  -1.114128  0.069154  -0.298685  -0.52976  0.040768  2.391454  0.064
O  O162  1  0.90633922  0.41060320  0.54860482  1  -1.120821  0.108716  -0.286067  -0.533739  0.064657  2.366598  0.1
O  O163  1  0.68323864  0.41065308  0.45125313  1  -1.132695  0.107938  -0.286223  -0.534112  0.064218  2.365484  0.1
O  O164  1  0.20512743  0.91044343  0.95121596  1  -1.133849  0.108491  -0.286828  -0.533973  0.064482  2.365166  0.1
O  O165  1  0.88455620  0.91046425  0.04859394  1  -1.138221  0.108357  -0.286466  -0.532837  0.064413  2.366674  0.1
O  O166  1  0.89625757  0.10689613  0.87390206  1  -1.122724  0.101734  -0.306453  -0.554466  0.060501  2.339501  0.093
O  O167  1  0.99686556  0.10717541  0.12587815  1  -1.123226  0.102095  -0.305731  -0.553564  0.060662  2.342663  0.093
O  O168  1  0.52051920  0.60699393  0.62584011  1  -1.12686  0.101471  -0.305962  -0.553742  0.060333  2.341225  0.093
O  O169  1  0.87330817  0.60679451  0.37391342  1  -1.129565  0.102003  -0.3055  -0.554142  0.060654  2.34367  0.093
O  O170  1  0.08059854  0.10668391  0.83473585  1  -1.1731  0.010652  -0.318431  -0.542538  0.005735  2.178251  0.009
O  O171  1  0.81249393  0.10746387  0.16498082  1  -1.167712  0.01069  -0.318152  -0.541971  0.005762  2.177751  0.01
O  O172  1  0.66599420  0.60603486  0.66506301  1  -1.172913  0.010596  -0.31779  -0.542508  0.005711  2.182025  0.009
O  O173  1  0.72726186  0.60809311  0.33509649  1  -1.172586  0.010821  -0.318425  -0.543458  0.005849  2.178225  0.01
