# generated using pymatgen
data_Cd3H28C38(N2O3)4
_symmetry_space_group_name_H-M   'P 1'
_cell_length_a   9.92440933
_cell_length_b   10.41938858
_cell_length_c   11.80528145
_cell_angle_alpha   100.33603169
_cell_angle_beta   112.95430619
_cell_angle_gamma   109.20576779
_symmetry_Int_Tables_number   1
_chemical_formula_structural   Cd3H28C38(N2O3)4
_chemical_formula_sum   'Cd3 H28 C38 N8 O12'
_cell_volume   992.82845024
_cell_formula_units_Z   1
loop_
 _symmetry_equiv_pos_site_id
 _symmetry_equiv_pos_as_xyz
  1  'x, y, z'
loop_
 _atom_site_type_symbol
 _atom_site_label
 _atom_site_symmetry_multiplicity
 _atom_site_fract_x
 _atom_site_fract_y
 _atom_site_fract_z
 _atom_site_occupancy
 _atom_site_hle17_bader_spin_density
 _atom_site_hle17_ddec_charge
 _atom_site_hle17_ddec_spin_density
 _atom_site_hle17_ddec_sum_bond_order
 _atom_site_hle17_magmom
 _atom_site_hse06_10hf_bader_spin_density
 _atom_site_hse06_10hf_ddec_charge
 _atom_site_hse06_10hf_ddec_spin_density
 _atom_site_hse06_10hf_ddec_sum_bond_order
 _atom_site_hse06_10hf_magmom
 _atom_site_hse06_bader_spin_density
 _atom_site_hse06_ddec_charge
 _atom_site_hse06_ddec_spin_density
 _atom_site_hse06_ddec_sum_bond_order
 _atom_site_hse06_magmom
 _atom_site_pbe_bader_spin_density
 _atom_site_pbe_cm5_charge
 _atom_site_pbe_ddec_charge
 _atom_site_pbe_ddec_spin_density
 _atom_site_pbe_ddec_sum_bond_order
 _atom_site_pbe_magmom
Cd  Cd0  1  0.06396985  0.87905538  0.71611170  1  0  1.145051  0  1.758139  0  0  0.954085  0  2.221  0  0  1.0106  0  2.165105  0  0  0.783422  0.91416  0  2.259302  0
Cd  Cd1  1  0.93602982  0.12094445  0.28388788  1  0  1.145041  0  1.758159  0  0  0.954066  0  2.221025  0  0  1.010587  0  2.165134  0  0  0.78342  0.914144  0  2.259325  0
Cd  Cd2  1  0.00000000  0.00000000  0.00000000  1  0  1.330369  0  1.596661  0  0  1.160035  0  2.064832  0  0  1.217964  0  1.99866  0  0  0.797038  1.117279  0  2.112242  0
H  H3  1  0.07381416  0.51710158  0.35234461  1  0  0.308197  0  0.946135  0  0  0.286868  0  1.013377  0  0  0.295757  0  1.006412  0  0  0.30523  0.280643  0  1.018307  0
H  H4  1  0.92618552  0.48289826  0.64765582  1  0  0.308207  0  0.946117  0  0  0.286878  0  1.013358  0  0  0.295767  0  1.006392  0  0  0.305233  0.280653  0  1.018288  0
H  H5  1  0.54976062  0.03249047  0.72922789  1  0  0.100324  0  0.949742  0  0  0.110767  0  1.010826  0  0  0.114129  0  1.009085  0  0  0.103015  0.108232  0  1.012361  0
H  H6  1  0.45023959  0.96751045  0.27077288  1  0  0.100336  0  0.949717  0  0  0.110777  0  1.010807  0  0  0.11414  0  1.009065  0  0  0.103027  0.108241  0  1.012342  0
H  H7  1  0.68030715  0.93277652  0.42928461  1  0  0.104397  0  0.951018  0  0  0.114351  0  1.01235  0  0  0.118272  0  1.00932  0  0  0.103064  0.11149  0  1.014662  0
H  H8  1  0.31969307  0.06722441  0.57071617  1  0  0.104381  0  0.951017  0  0  0.114335  0  1.012349  0  0  0.118257  0  1.009318  0  0  0.10306  0.111475  0  1.014661  0
H  H9  1  0.49654881  0.29833153  0.84779886  1  0  0.100756  0  0.946183  0  0  0.111136  0  1.004991  0  0  0.11461  0  1.002927  0  0  0.103802  0.108634  0  1.006888  0
H  H10  1  0.50345197  0.70166831  0.15220278  1  0  0.100745  0  0.946076  0  0  0.111104  0  1.004926  0  0  0.114578  0  1.002864  0  0  0.103789  0.108601  0  1.006823  0
H  H11  1  0.29643896  0.44437293  0.07856701  1  0  0.095603  0  0.97945  0  0  0.10241  0  1.045473  0  0  0.105001  0  1.044823  0  0  0.097843  0.100595  0  1.045724  0
H  H12  1  0.70356071  0.55562691  0.92143342  1  0  0.095612  0  0.979441  0  0  0.102421  0  1.045463  0  0  0.105009  0  1.044817  0  0  0.097851  0.100605  0  1.045714  0
H  H13  1  0.16771636  0.76863262  0.10149945  1  0  0.115472  0  0.960882  0  0  0.121663  0  1.025993  0  0  0.125529  0  1.023654  0  0  0.106299  0.118579  0  1.02823  0
H  H14  1  0.83228386  0.23136830  0.89850048  1  0  0.11545  0  0.96092  0  0  0.121649  0  1.026026  0  0  0.125516  0  1.023688  0  0  0.106295  0.118566  0  1.028263  0
H  H15  1  0.80073640  0.38719083  0.76145936  1  0  0.09129  0  0.962382  0  0  0.099163  0  1.027039  0  0  0.102628  0  1.025317  0  0  0.102163  0.096699  0  1.028232  0
H  H16  1  0.19926218  0.61280900  0.23853902  1  0  0.091257  0  0.962455  0  0  0.099145  0  1.027093  0  0  0.102614  0  1.025368  0  0  0.10213  0.096681  0  1.028287  0
H  H17  1  0.78699079  0.74185270  0.35570847  1  0  0.110457  0  0.949849  0  0  0.119349  0  1.011158  0  0  0.121968  0  1.009519  0  0  0.119855  0.11735  0  1.012598  0
H  H18  1  0.21300943  0.25814822  0.64429231  1  0  0.110412  0  0.949862  0  0  0.119332  0  1.011144  0  0  0.121928  0  1.009534  0  0  0.119837  0.117334  0  1.012585  0
H  H19  1  0.81936350  0.53024766  0.20100766  1  0  0.108151  0  0.963041  0  0  0.116427  0  1.0275  0  0  0.117967  0  1.02916  0  0  0.119214  0.115644  0  1.025721  0
H  H20  1  0.18063618  0.46975217  0.79899108  1  0  0.108153  0  0.963002  0  0  0.116426  0  1.027465  0  0  0.117968  0  1.029124  0  0  0.119218  0.115645  0  1.025688  0
H  H21  1  0.45482848  0.86739267  0.94135414  1  0  0.107251  0  0.940692  0  0  0.120126  0  0.994596  0  0  0.122344  0  0.993996  0  0  0.120746  0.118468  0  0.995257  0
H  H22  1  0.54517010  0.13260716  0.05864508  1  0  0.107245  0  0.940701  0  0  0.120109  0  0.99462  0  0  0.122338  0  0.994004  0  0  0.120745  0.118454  0  0.995278  0
H  H23  1  0.59224171  0.73918803  0.82026048  1  0  0.123855  0  0.976874  0  0  0.131958  0  1.038277  0  0  0.135023  0  1.036561  0  0  0.122803  0.129578  0  1.039711  0
H  H24  1  0.40775960  0.26081289  0.17973982  1  0  0.123885  0  0.976869  0  0  0.131967  0  1.038293  0  0  0.135032  0  1.036579  0  0  0.122801  0.129587  0  1.039727  0
H  H25  1  0.32046166  0.49569092  0.50838160  1  0  0.118913  0  0.934764  0  0  0.138935  0  0.995676  0  0  0.140345  0  0.994842  0  0  0.110606  0.137912  0  0.996203  0
H  H26  1  0.67953749  0.50430783  0.49161849  1  0  0.118915  0  0.934772  0  0  0.138939  0  0.995677  0  0  0.140349  0  0.994843  0  0  0.110612  0.137915  0  0.996204  0
H  H27  1  0.52804908  0.63210014  0.59580681  1  0  0.118955  0  0.918846  0  0  0.144792  0  0.970327  0  0  0.145658  0  0.970294  0  0  0.119552  0.144027  0  0.970501  0
H  H28  1  0.47195113  0.36790078  0.40419313  1  0  0.118976  0  0.918808  0  0  0.144792  0  0.970315  0  0  0.145658  0  0.970283  0  0  0.11955  0.144026  0  0.97049  0
H  H29  1  0.37862434  0.65590548  0.46830546  1  0  0.107517  0  0.931932  0  0  0.127565  0  0.99556  0  0  0.12821  0  0.995704  0  0  0.110215  0.126987  0  0.995406  0
H  H30  1  0.62137590  0.34409327  0.53169499  1  0  0.107504  0  0.93193  0  0  0.127573  0  0.995532  0  0  0.128222  0  0.995673  0  0  0.110209  0.126995  0  0.995377  0
C  C31  1  0.76660435  0.95634531  0.68170301  1  0  0.665286  0  3.910554  0  0  0.613446  0  4.206022  0  0  0.649306  0  4.19775  0  0  0.207074  0.588905  0  4.210773  0
C  C32  1  0.23339640  0.04365670  0.31829812  1  0  0.665234  0  3.910659  0  0  0.613395  0  4.206126  0  0  0.649257  0  4.197853  0  0  0.207059  0.588854  0  4.210877  0
C  C33  1  0.62920628  0.98072547  0.58884102  1  0  -0.061574  0  3.733223  0  0  -0.037732  0  3.965426  0  0  -0.044341  0  3.987929  0  0  -0.020114  -0.03322  0  3.949903  0
C  C34  1  0.37079394  0.01927546  0.41115976  1  0  -0.061627  0  3.733185  0  0  -0.037784  0  3.965388  0  0  -0.044395  0  3.987891  0  0  -0.020136  -0.033273  0  3.949866  0
C  C35  1  0.52796369  0.01951077  0.62896772  1  0  -0.081096  0  3.748127  0  0  -0.105236  0  4.000805  0  0  -0.10635  0  4.021871  0  0  -0.091278  -0.104175  0  3.986125  0
C  C36  1  0.47203652  0.98049016  0.37103306  1  0  -0.081085  0  3.748149  0  0  -0.105228  0  4.000832  0  0  -0.10634  0  4.021897  0  0  -0.091293  -0.104166  0  3.986148  0
C  C37  1  0.60005825  0.96162183  0.45913084  1  0  -0.084767  0  3.742176  0  0  -0.108546  0  3.993841  0  0  -0.109601  0  4.013999  0  0  -0.092807  -0.107506  0  3.97965  0
C  C38  1  0.39994196  0.03837909  0.54086994  1  0  -0.084734  0  3.742083  0  0  -0.108512  0  3.993743  0  0  -0.109565  0  4.013901  0  0  -0.092812  -0.107472  0  3.979555  0
C  C39  1  0.26144321  0.20313197  0.91634685  1  0  0.670016  0  3.906672  0  0  0.617898  0  4.199465  0  0  0.653786  0  4.191411  0  0  0.214023  0.593504  0  4.203361  0
C  C40  1  0.73855647  0.79686787  0.08365358  1  0  0.670028  0  3.906646  0  0  0.617897  0  4.199451  0  0  0.653786  0  4.191396  0  0  0.214019  0.593502  0  4.203349  0
C  C41  1  0.38467514  0.35682799  0.95911478  1  0  -0.064481  0  3.762251  0  0  -0.040717  0  3.992229  0  0  -0.047922  0  4.015162  0  0  -0.016465  -0.035173  0  3.975303  0
C  C42  1  0.61532510  0.64317076  0.04088567  1  0  -0.064533  0  3.762336  0  0  -0.040754  0  3.992303  0  0  -0.047959  0  4.015236  0  0  -0.016468  -0.035207  0  3.975373  0
C  C43  1  0.49884719  0.38759952  0.91403375  1  0  -0.079773  0  3.748341  0  0  -0.101983  0  3.99624  0  0  -0.103043  0  4.016418  0  0  -0.087147  -0.102232  0  3.98335  0
C  C44  1  0.50115361  0.61239815  0.08596671  1  0  -0.07971  0  3.748231  0  0  -0.101904  0  3.99612  0  0  -0.102966  0  4.016303  0  0  -0.087121  -0.102153  0  3.983228  0
C  C45  1  0.38669594  0.46998879  0.04527284  1  0  -0.085569  0  3.757625  0  0  -0.107075  0  4.006162  0  0  -0.107691  0  4.026527  0  0  -0.089137  -0.106238  0  3.991478  0
C  C46  1  0.61330320  0.53000997  0.95472725  1  0  -0.085564  0  3.757647  0  0  -0.107077  0  4.006188  0  0  -0.107693  0  4.026552  0  0  -0.089166  -0.106241  0  3.991504  0
C  C47  1  0.97432467  0.68015174  0.84042998  1  0  0.657228  0  3.876631  0  0  0.60561  0  4.166111  0  0  0.640633  0  4.157943  0  0  0.208629  0.580972  0  4.172485  0
C  C48  1  0.02567445  0.31984918  0.15956875  1  0  0.657182  0  3.876728  0  0  0.605565  0  4.166209  0  0  0.640587  0  4.158044  0  0  0.208587  0.580927  0  4.172585  0
C  C49  1  0.98387892  0.58734653  0.92323548  1  0  -0.057798  0  3.747921  0  0  -0.035324  0  3.98033  0  0  -0.041729  0  4.001453  0  0  -0.014289  -0.030971  0  3.966303  0
C  C50  1  0.01612076  0.41265330  0.07676411  1  0  -0.057804  0  3.747934  0  0  -0.035335  0  3.980368  0  0  -0.041741  0  4.001494  0  0  -0.014288  -0.030983  0  3.966342  0
C  C51  1  0.09559663  0.65106108  0.05810106  1  0  -0.060193  0  3.696577  0  0  -0.083314  0  3.943877  0  0  -0.084206  0  3.963762  0  0  -0.079568  -0.082442  0  3.930359  0
C  C52  1  0.90440305  0.34893876  0.94189768  1  0  -0.060141  0  3.69656  0  0  -0.083276  0  3.943873  0  0  -0.084168  0  3.963756  0  0  -0.079562  -0.082405  0  3.930356  0
C  C53  1  0.88844182  0.43617647  0.86600211  1  0  -0.075941  0  3.740624  0  0  -0.097623  0  3.990954  0  0  -0.09858  0  4.010653  0  0  -0.082044  -0.097225  0  3.977341  0
C  C54  1  0.11155786  0.56382337  0.13399748  1  0  -0.075867  0  3.740704  0  0  -0.097558  0  3.991018  0  0  -0.098521  0  4.010724  0  0  -0.081995  -0.097162  0  3.977406  0
C  C55  1  0.87920103  0.70241834  0.38200136  1  0  0.021867  0  3.726115  0  0  -0.011479  0  3.993532  0  0  -0.009294  0  4.013035  0  0  0.003318  -0.013268  0  3.980765  0
C  C56  1  0.12079918  0.29758258  0.61799772  1  0  0.021898  0  3.726118  0  0  -0.011472  0  3.99353  0  0  -0.009265  0  4.013042  0  0  0.003328  -0.013262  0  3.980765  0
C  C57  1  0.89449701  0.59852363  0.30398089  1  0  0.001887  0  3.664384  0  0  -0.039922  0  3.934916  0  0  -0.038509  0  3.955145  0  0  0.003193  -0.04098  0  3.921192  0
C  C58  1  0.10550267  0.40147620  0.69601785  1  0  0.001919  0  3.664335  0  0  -0.039888  0  3.934869  0  0  -0.038475  0  3.955093  0  0  0.003214  -0.040946  0  3.921147  0
C  C59  1  0.10098308  0.68930228  0.50609349  1  0  0.262993  0  3.805397  0  0  0.232748  0  4.074538  0  0  0.244963  0  4.08958  0  0  0.209346  0.224964  0  4.063578  0
C  C60  1  0.89901660  0.31069756  0.49390694  1  0  0.263005  0  3.805388  0  0  0.232759  0  4.074535  0  0  0.244974  0  4.089576  0  0  0.209364  0.224975  0  4.063573  0
C  C61  1  0.24251328  0.71973381  0.62668995  1  0  0.194435  0  3.792797  0  0  0.162253  0  4.061104  0  0  0.173243  0  4.077054  0  0  0.207328  0.154968  0  4.049926  0
C  C62  1  0.75748587  0.28026495  0.37331014  1  0  0.194459  0  3.792711  0  0  0.162279  0  4.061021  0  0  0.173265  0  4.076966  0  0  0.207333  0.154992  0  4.049839  0
C  C63  1  0.40900745  0.81131117  0.83786821  1  0  0.016675  0  3.749127  0  0  -0.01751  0  4.022259  0  0  -0.016229  0  4.042099  0  0  0.001731  -0.018542  0  4.008803  0
C  C64  1  0.59099332  0.18868867  0.16213174  1  0  0.016687  0  3.749164  0  0  -0.017486  0  4.022292  0  0  -0.016212  0  4.042126  0  0  0.001726  -0.018519  0  4.008837  0
C  C65  1  0.47756803  0.74620588  0.77960164  1  0  -0.043276  0  3.657352  0  0  -0.091106  0  3.926146  0  0  -0.08887  0  3.944848  0  0  0.009171  -0.092229  0  3.913274  0
C  C66  1  0.52243111  0.25379287  0.22039760  1  0  -0.043325  0  3.657345  0  0  -0.091139  0  3.926136  0  0  -0.088908  0  3.944843  0  0  0.009171  -0.092264  0  3.913265  0
C  C67  1  0.40026078  0.61271054  0.54848122  1  0  -0.163878  0  3.612061  0  0  -0.267548  0  3.856924  0  0  -0.26409  0  3.864924  0  0  -0.123021  -0.26945  0  3.851241  0
C  C68  1  0.59974000  0.38728930  0.45151957  1  0  -0.163884  0  3.612011  0  0  -0.267553  0  3.85686  0  0  -0.264099  0  3.864862  0  0  -0.123018  -0.269454  0  3.851176  0
N  N69  1  0.00800896  0.75814871  0.50702957  1  0  -0.419016  0  3.19548  0  0  -0.349169  0  3.47038  0  0  -0.369034  0  3.485569  0  0  -0.353935  -0.335455  0  3.459583  0
N  N70  1  0.99199072  0.24185113  0.49297002  1  0  -0.418997  0  3.195465  0  0  -0.349151  0  3.470379  0  0  -0.369016  0  3.485559  0  0  -0.353927  -0.335436  0  3.45958  0
N  N71  1  0.26338780  0.79411576  0.74229257  1  0  -0.418883  0  3.217959  0  0  -0.355795  0  3.498662  0  0  -0.374996  0  3.515825  0  0  -0.354548  -0.342378  0  3.48667  0
N  N72  1  0.73661135  0.20588299  0.25770752  1  0  -0.41893  0  3.217977  0  0  -0.355848  0  3.498693  0  0  -0.375047  0  3.515857  0  0  -0.354591  -0.34243  0  3.4867  0
N  N73  1  0.03493277  0.59177866  0.38371919  1  0  -0.317544  0  3.427712  0  0  -0.255107  0  3.661822  0  0  -0.271072  0  3.676859  0  0  -0.376387  -0.24438  0  3.651572  0
N  N74  1  0.96506691  0.40822117  0.61628040  1  0  -0.317602  0  3.427671  0  0  -0.255166  0  3.661789  0  0  -0.271133  0  3.676828  0  0  -0.376428  -0.24444  0  3.65154  0
N  N75  1  0.37176236  0.68881103  0.64639452  1  0  -0.047315  0  3.568775  0  0  0.048787  0  3.789728  0  0  0.034746  0  3.816726  0  0  -0.236904  0.057898  0  3.771449  0
N  N76  1  0.62823678  0.31118772  0.35360557  1  0  -0.047277  0  3.568649  0  0  0.04883  0  3.789586  0  0  0.034792  0  3.816583  0  0  -0.236862  0.057941  0  3.771304  0
O  O77  1  0.83776846  0.90663478  0.62882020  1  0  -0.65325  0  2.04793  0  0  -0.584374  0  2.307097  0  0  -0.613426  0  2.292671  0  0  -0.338471  -0.564021  0  2.316188  0
O  O78  1  0.16223445  0.09336941  0.37118113  1  0  -0.653215  0  2.048015  0  0  -0.584338  0  2.307175  0  0  -0.613394  0  2.292753  0  0  -0.338459  -0.563986  0  2.316267  0
O  O79  1  0.79730304  0.98404700  0.80077043  1  0  -0.669393  0  2.0188  0  0  -0.609198  0  2.280382  0  0  -0.638108  0  2.267419  0  0  -0.326014  -0.587986  0  2.288477  0
O  O80  1  0.20269554  0.01595283  0.19922964  1  0  -0.669376  0  2.018835  0  0  -0.609179  0  2.280416  0  0  -0.63809  0  2.267454  0  0  -0.326013  -0.587963  0  2.288507  0
O  O81  1  0.24880502  0.11049008  0.82153270  1  0  -0.647847  0  2.027046  0  0  -0.579398  0  2.283587  0  0  -0.608627  0  2.269926  0  0  -0.332155  -0.558942  0  2.2922  0
O  O82  1  0.75119575  0.88950976  0.17846810  1  0  -0.647804  0  2.027032  0  0  -0.579346  0  2.283572  0  0  -0.608577  0  2.269917  0  0  -0.332135  -0.558889  0  2.292185  0
O  O83  1  0.18352864  0.17977860  0.97995492  1  0  -0.664528  0  2.047963  0  0  -0.598032  0  2.307538  0  0  -0.627886  0  2.294771  0  0  -0.325651  -0.576504  0  2.315697  0
O  O84  1  0.81647051  0.82022015  0.02004517  1  0  -0.664565  0  2.047954  0  0  -0.598069  0  2.30753  0  0  -0.627927  0  2.29477  0  0  -0.325671  -0.576542  0  2.315691  0
O  O85  1  0.89898737  0.62044930  0.71592815  1  0  -0.635011  0  2.00478  0  0  -0.58173  0  2.241016  0  0  -0.607038  0  2.231678  0  0  -0.31839  -0.564885  0  2.247894  0
O  O86  1  0.10101067  0.37954944  0.28406989  1  0  -0.634988  0  2.004823  0  0  -0.581707  0  2.241056  0  0  -0.607013  0  2.23172  0  0  -0.31837  -0.56486  0  2.247935  0
O  O87  1  0.05202493  0.81912085  0.89766309  1  0  -0.68066  0  2.079508  0  0  -0.602464  0  2.347448  0  0  -0.633082  0  2.330718  0  0  -0.331816  -0.580677  0  2.358905  0
O  O88  1  0.94797419  0.18088007  0.10233648  1  0  -0.680655  0  2.079547  0  0  -0.602459  0  2.347485  0  0  -0.633079  0  2.330759  0  0  -0.331804  -0.580672  0  2.358942  0
