# generated using pymatgen
data_CuH11C14N5O2
_symmetry_space_group_name_H-M   'P 1'
_cell_length_a   8.54653531
_cell_length_b   12.72494008
_cell_length_c   13.13300000
_cell_angle_alpha   102.08799678
_cell_angle_beta   90.00000000
_cell_angle_gamma   90.00000000
_symmetry_Int_Tables_number   1
_chemical_formula_structural   CuH11C14N5O2
_chemical_formula_sum   'Cu4 H44 C56 N20 O8'
_cell_volume   1396.59944230
_cell_formula_units_Z   4
loop_
 _symmetry_equiv_pos_site_id
 _symmetry_equiv_pos_as_xyz
  1  'x, y, z'
loop_
 _atom_site_type_symbol
 _atom_site_label
 _atom_site_symmetry_multiplicity
 _atom_site_fract_x
 _atom_site_fract_y
 _atom_site_fract_z
 _atom_site_occupancy
 _atom_site_hle17_ddec_charge
 _atom_site_hle17_ddec_spin_density
 _atom_site_hle17_ddec_sum_bond_order
 _atom_site_hle17_magmom
 _atom_site_hse06_10hf_ddec_charge
 _atom_site_hse06_10hf_ddec_spin_density
 _atom_site_hse06_10hf_ddec_sum_bond_order
 _atom_site_hse06_10hf_magmom
 _atom_site_hse06_ddec_charge
 _atom_site_hse06_ddec_spin_density
 _atom_site_hse06_ddec_sum_bond_order
 _atom_site_hse06_magmom
 _atom_site_pbe_bader_charge
 _atom_site_pbe_bader_spin_density
 _atom_site_pbe_cm5_charge
 _atom_site_pbe_ddec_charge
 _atom_site_pbe_ddec_spin_density
 _atom_site_pbe_ddec_sum_bond_order
 _atom_site_pbe_magmom
Cu  Cu0  1  0.99163107  0.65084912  0.75588272  1  0.514758  0.442011  2.284088  0.27  0.471235  0.554359  2.714405  0.365  0.546443  0.693661  2.630491  0.483  0.850233  0.307899  0.661027  0.446909  0.462464  2.758469  0.297
Cu  Cu1  1  0.49162963  0.84915510  0.74411703  1  0.514771  -0.442093  2.284448  -0.27  0.471413  -0.554441  2.7147  -0.365  0.546484  -0.693739  2.630817  -0.483  0.850346  -0.307903  0.661068  0.446995  -0.462479  2.758733  -0.296
Cu  Cu2  1  0.00838117  0.34915477  0.24412393  1  0.514944  0.442047  2.284068  0.27  0.471485  0.554379  2.714379  0.365  0.546642  0.693702  2.630468  0.483  0.850247  0.307872  0.661129  0.447117  0.462427  2.758474  0.297
Cu  Cu3  1  0.50837911  0.15084477  0.25588424  1  0.515031  -0.441977  2.284232  -0.27  0.47164  -0.554364  2.714592  -0.365  0.54679  -0.693642  2.630671  -0.483  0.850251  -0.307855  0.66114  0.447252  -0.462409  2.75862  -0.296
H  H4  1  0.79497712  0.60970803  0.55606761  1  0.079617  0.002567  0.944282  0.003  0.088958  0.002589  1.007342  0.003  0.088623  0.002167  1.009627  0.003  0.088227  0.004508  0.114406  0.088507  0.002682  1.006472  0.003
H  H5  1  0.29498269  0.89030021  0.94393905  1  0.079727  -0.002569  0.94421  -0.003  0.089064  -0.00259  1.007259  -0.003  0.088734  -0.002168  1.00954  -0.003  0.08805  -0.004511  0.114482  0.088607  -0.002683  1.006401  -0.003
H  H6  1  0.20502460  0.39030148  0.44395008  1  0.079609  0.002568  0.944287  0.003  0.088983  0.00259  1.007281  0.003  0.088652  0.002168  1.009564  0.003  0.088075  0.00451  0.11445  0.088524  0.002682  1.006443  0.003
H  H7  1  0.70501084  0.10969644  0.05605852  1  0.079724  -0.002568  0.944202  -0.003  0.089075  -0.002589  1.007201  -0.003  0.088745  -0.002168  1.009481  -0.003  0.088016  -0.004509  0.114468  0.088615  -0.002682  1.006366  -0.003
H  H8  1  0.72472994  0.44247386  0.42555579  1  0.10274  0.000268  0.957545  0.0  0.111963  0.000684  1.02099  0.001  0.113222  0.000581  1.023427  0.001  0.078589  0.001185  0.102666  0.110453  0.000708  1.02042  0.001
H  H9  1  0.22474019  0.05753693  0.07444324  1  0.10278  -0.000267  0.957454  0.0  0.112024  -0.000684  1.020877  -0.001  0.113292  -0.000581  1.023312  -0.001  0.078662  -0.001183  0.102642  0.110514  -0.000707  1.020308  -0.001
H  H10  1  0.27526710  0.55753967  0.57445511  1  0.102691  0.000269  0.9575  0.0  0.1119  0.000683  1.020981  0.001  0.113155  0.000581  1.023415  0.001  0.078449  0.001184  0.10265  0.110395  0.000707  1.02041  0.001
H  H11  1  0.77525099  0.94246294  0.92554889  1  0.102784  -0.000267  0.957546  0.0  0.111998  -0.000683  1.021001  -0.001  0.113261  -0.000581  1.023435  -0.001  0.07857  -0.001185  0.102663  0.110494  -0.000708  1.020431  -0.001
H  H12  1  0.80311726  0.26267980  0.46436481  1  0.098926  0.000384  0.954369  0.001  0.109346  0.000162  1.015137  0.0  0.110139  9.1e-05  1.015067  0.0  0.110498  0.00028  0.106897  0.108111  0.000181  1.015876  0.0
H  H13  1  0.30311815  0.23732857  0.03562687  1  0.098946  -0.000386  0.954372  -0.001  0.10937  -0.000162  1.015138  0.0  0.110164  -9.1e-05  1.015066  0.0  0.110503  -0.000279  0.106918  0.108135  -0.00018  1.015873  0.0
H  H14  1  0.19688329  0.73732971  0.53563841  1  0.098896  0.000384  0.954367  0.001  0.109322  0.000162  1.015125  0.0  0.110116  9.1e-05  1.015052  0.0  0.110359  0.000279  0.106953  0.10809  0.00018  1.015861  0.0
H  H15  1  0.69688825  0.76266888  0.96436934  1  0.098834  -0.000385  0.954515  -0.001  0.109229  -0.000162  1.015304  0.0  0.110024  -9.1e-05  1.015229  0.0  0.110324  -0.00028  0.106933  0.108  -0.00018  1.016037  0.0
H  H16  1  0.94092281  0.25788747  0.62894865  1  0.131659  0.000398  0.938907  0.0  0.143543  0.000725  0.992868  0.001  0.148118  0.000616  0.990646  0.001  0.126959  0.001204  0.116664  0.140587  0.000767  0.994267  0.001
H  H17  1  0.44092604  0.24211287  0.87104065  1  0.131603  -0.000397  0.93891  0.0  0.143515  -0.000725  0.992844  -0.001  0.148094  -0.000616  0.990626  -0.001  0.126899  -0.001205  0.116659  0.140559  -0.000767  0.994242  -0.001
H  H18  1  0.05908593  0.74211642  0.37104963  1  0.131528  0.0004  0.938772  0.0  0.143416  0.000725  0.992747  0.001  0.147999  0.000616  0.990529  0.001  0.126953  0.001205  0.116601  0.140461  0.000767  0.994148  0.001
H  H19  1  0.55909089  0.75788057  0.12895627  1  0.131535  -0.000398  0.93906  0.0  0.143491  -0.000725  0.992929  -0.001  0.148074  -0.000616  0.990711  -0.001  0.126821  -0.001204  0.116636  0.140534  -0.000767  0.994338  -0.001
H  H20  1  0.95475414  0.71586106  0.93234220  1  0.076461  0.000442  1.01512  0.0  0.07551  0.001817  1.100535  0.001  0.075775  0.001262  1.098158  0.001  0.070796  0.002244  0.08841  0.073219  0.002199  1.1042  0.001
H  H21  1  0.45475855  0.78414156  0.56765190  1  0.076287  -0.000442  1.015213  0.0  0.075348  -0.001818  1.100639  -0.001  0.075622  -0.001263  1.09825  -0.001  0.070936  -0.002245  0.088356  0.073066  -0.002201  1.104294  -0.001
H  H22  1  0.04524172  0.28415247  0.06765803  1  0.076284  0.000443  1.015261  0.0  0.075351  0.001818  1.100656  0.001  0.075623  0.001263  1.098276  0.001  0.070294  0.002245  0.088355  0.073067  0.0022  1.104318  0.001
H  H23  1  0.54526306  0.21583420  0.43235742  1  0.076332  -0.000441  1.015271  0.0  0.07538  -0.001818  1.10071  -0.001  0.075658  -0.001262  1.098324  -0.001  0.06991  -0.002245  0.088397  0.073096  -0.0022  1.104371  -0.001
H  H24  1  0.98982332  0.87677591  0.07205606  1  0.082923  0.001231  0.961862  0.001  0.093386  0.001185  1.022147  0.001  0.094026  0.00078  1.023803  0.001  0.067619  0.002314  0.097724  0.092434  0.001392  1.021569  0.002
H  H25  1  0.48982773  0.62322992  0.42793107  1  0.082959  -0.001232  0.961941  -0.001  0.093441  -0.001184  1.022192  -0.001  0.094082  -0.00078  1.02385  -0.001  0.0675  -0.002314  0.097727  0.092488  -0.001392  1.021617  -0.002
H  H26  1  0.01020296  0.12324646  0.92792997  1  0.082922  0.00123  0.961968  0.001  0.093399  0.001185  1.022231  0.001  0.094038  0.00078  1.023889  0.001  0.068466  0.002313  0.097711  0.09245  0.001392  1.021656  0.002
H  H27  1  0.51020090  0.37675066  0.57207085  1  0.082888  -0.001232  0.962021  -0.001  0.093393  -0.001184  1.022251  -0.001  0.094033  -0.00078  1.023908  -0.001  0.068423  -0.002312  0.097715  0.092445  -0.001392  1.021677  -0.002
H  H28  1  0.18228322  0.87350977  0.21647367  1  0.099947  0.000168  0.958234  0.0  0.107982  -8.4e-05  1.02096  0.0  0.111675  -2.5e-05  1.019242  0.0  0.053412  -0.000222  0.102811  0.105451  -0.000134  1.022202  0.0
H  H29  1  0.68229052  0.62648883  0.28351656  1  0.099897  -0.000166  0.958233  0.0  0.107981  8.4e-05  1.020915  0.0  0.111636  2.5e-05  1.019246  0.0  0.053729  0.000223  0.102741  0.105452  0.000135  1.022146  0.0
H  H30  1  0.81774424  0.12651421  0.78351193  1  0.099983  0.000168  0.958105  0.0  0.10796  -8.4e-05  1.020907  0.0  0.111681  -2.5e-05  1.01916  0.0  0.053899  -0.000221  0.1028  0.105425  -0.000133  1.02215  0.0
H  H31  1  0.31772641  0.37349336  0.71648188  1  0.099971  -0.000166  0.958094  0.0  0.107956  8.4e-05  1.020892  0.0  0.111678  2.4e-05  1.019137  0.0  0.053974  0.000221  0.102805  0.105424  0.000133  1.022134  0.0
H  H32  1  0.33383001  0.70996287  0.21674048  1  0.104313  -0.000247  0.953161  0.0  0.109947  -0.000285  1.021779  0.0  0.113687  -0.000209  1.018473  0.0  0.122652  -0.00011  0.10925  0.10736  -0.000306  1.023924  0.0
H  H33  1  0.83384667  0.79003573  0.28324747  1  0.10439  0.000246  0.953031  0.0  0.110004  0.000285  1.021645  0.0  0.113747  0.000209  1.018337  0.0  0.122447  0.00011  0.109306  0.107417  0.000306  1.023789  0.0
H  H34  1  0.66618458  0.29005870  0.78325149  1  0.104481  -0.000247  0.953069  0.0  0.110068  -0.000284  1.021685  0.0  0.113807  -0.000209  1.01838  0.0  0.122396  -0.000109  0.109313  0.107485  -0.000305  1.023825  0.0
H  H35  1  0.16616558  0.20995047  0.71674950  1  0.104366  0.000245  0.953141  0.0  0.109946  0.000285  1.021792  0.0  0.113686  0.000209  1.018489  0.0  0.122584  0.000109  0.109294  0.107364  0.000305  1.023932  0.0
H  H36  1  0.54934893  0.46460555  0.26075841  1  0.086035  -6.5e-05  0.943187  0.0  0.106862  -7.3e-05  1.003581  0.0  0.106075  -7.6e-05  1.004371  0.0  0.044528  -5.7e-05  0.09952  0.107358  -7e-05  1.003113  0.0
H  H37  1  0.04939077  0.03538595  0.23924280  1  0.085964  6.5e-05  0.943244  0.0  0.106874  7.3e-05  1.003531  0.0  0.10609  7.6e-05  1.004313  0.0  0.04435  5.8e-05  0.09955  0.107366  7.1e-05  1.003072  0.0
H  H38  1  0.45057908  0.53539272  0.73927071  1  0.086033  -6.6e-05  0.94293  0.0  0.106913  -7.3e-05  1.003264  0.0  0.106129  -7.6e-05  1.004046  0.0  0.044238  -5.9e-05  0.099569  0.107401  -7.1e-05  1.002812  0.0
H  H39  1  0.95059456  0.96461070  0.76074792  1  0.085885  6.6e-05  0.943217  0.0  0.106794  7.3e-05  1.003542  0.0  0.106013  7.6e-05  1.004324  0.0  0.044395  5.8e-05  0.099556  0.107286  7e-05  1.003081  0.0
H  H40  1  0.57923706  0.42097064  0.12290359  1  0.092513  3.9e-05  0.961669  0.0  0.106438  4.6e-05  1.031763  0.0  0.107242  5.5e-05  1.032737  0.0  0.071445  0.00015  0.098366  0.106328  5.9e-05  1.030738  0.0
H  H41  1  0.07926136  0.07903934  0.37709451  1  0.09255  -4e-05  0.961604  0.0  0.106432  -4.6e-05  1.031743  0.0  0.107231  -5.5e-05  1.03273  0.0  0.071626  -0.000148  0.098342  0.106323  -5.8e-05  1.030713  0.0
H  H42  1  0.42074243  0.57905655  0.87712606  1  0.092461  3.9e-05  0.961454  0.0  0.106347  4.6e-05  1.031649  0.0  0.10713  5.5e-05  1.032686  0.0  0.074825  0.000148  0.098286  0.106239  5.8e-05  1.030621  0.0
H  H43  1  0.92074504  0.92094928  0.62289534  1  0.092493  -3.9e-05  0.961552  0.0  0.106442  -4.6e-05  1.03163  0.0  0.107226  -5.5e-05  1.032665  0.0  0.072004  -0.000148  0.098338  0.106331  -5.8e-05  1.030605  0.0
H  H44  1  0.41730712  0.37020069  0.18509802  1  0.081575  9.6e-05  0.978434  0.0  0.09235  0.000171  1.056138  0.0  0.087848  0.000102  1.060505  0.0  0.084188  0.000247  0.092829  0.094168  0.000225  1.054406  0.0
H  H45  1  0.91733196  0.12978840  0.31488442  1  0.081734  -9.6e-05  0.978287  0.0  0.092475  -0.000171  1.055987  0.0  0.087977  -0.000102  1.060348  0.0  0.084155  -0.000246  0.092858  0.094292  -0.000224  1.054257  0.0
H  H46  1  0.58265248  0.62979999  0.81488895  1  0.081669  9.5e-05  0.978277  0.0  0.092388  0.000171  1.056022  0.0  0.087891  0.000102  1.060379  0.0  0.083742  0.000246  0.092871  0.094208  0.000223  1.054288  0.0
H  H47  1  0.08266157  0.87020263  0.68512114  1  0.081659  -9.5e-05  0.978278  0.0  0.092367  -0.000171  1.056055  0.0  0.087865  -0.000102  1.060424  0.0  0.083617  -0.000248  0.092848  0.094186  -0.000225  1.054325  0.0
C  C48  1  0.82574163  0.53003620  0.56826226  1  0.135537  -0.012095  3.726172  -0.012  0.107634  -0.001841  3.980323  -0.004  0.117051  -0.003509  4.005528  -0.005  0.466572  -0.001867  0.04082  0.102209  -0.000244  3.965592  -0.002
C  C49  1  0.32574955  0.96997124  0.93173662  1  0.135361  0.012109  3.726491  0.012  0.107466  0.001838  3.980666  0.004  0.11688  0.003505  4.00587  0.005  0.466579  0.001864  0.0407  0.102041  0.00024  3.965926  0.002
C  C50  1  0.17426477  0.46997492  0.43174890  1  0.135304  -0.012077  3.726522  -0.012  0.10738  -0.001837  3.980697  -0.004  0.116794  -0.003503  4.005902  -0.005  0.46674  -0.001862  0.040679  0.101955  -0.00024  3.965961  -0.002
C  C51  1  0.67425217  0.03002381  0.06825834  1  0.1353  0.0121  3.726491  0.012  0.107436  0.00184  3.980634  0.004  0.116847  0.003508  4.005846  0.005  0.466612  0.001867  0.040727  0.102012  0.000243  3.965899  0.002
C  C52  1  0.78644851  0.43726040  0.49679901  1  -0.148673  0.017207  3.760195  0.015  -0.171826  0.006198  4.026938  0.006  -0.186153  0.005806  4.056183  0.006  -0.024682  0.006644  -0.100497  -0.164642  0.005486  4.010088  0.005
C  C53  1  0.28645409  0.06274637  0.00319996  1  -0.148672  -0.017215  3.760058  -0.015  -0.171819  -0.006195  4.026763  -0.006  -0.186161  -0.005805  4.056026  -0.006  -0.024759  -0.006645  -0.100447  -0.164635  -0.005486  4.009909  -0.005
C  C54  1  0.21355320  0.56274671  0.50320753  1  -0.148448  0.017168  3.760164  0.015  -0.171583  0.006191  4.026881  0.006  -0.185904  0.0058  4.056127  0.006  -0.024773  0.006637  -0.100413  -0.164393  0.005479  4.010023  0.005
C  C55  1  0.71354178  0.93725270  0.99679277  1  -0.148609  -0.017209  3.760189  -0.015  -0.171754  -0.006195  4.02686  -0.006  -0.186086  -0.005805  4.056111  -0.006  -0.025128  -0.006645  -0.100441  -0.164564  -0.005485  4.010003  -0.005
C  C56  1  0.83076472  0.33777147  0.51813185  1  0.007544  -0.012179  3.725514  -0.01  -0.011415  -0.003519  3.978438  -0.003  -0.005727  -0.004459  3.999158  -0.004  -0.039474  -0.002881  -0.068353  -0.015231  -0.002332  3.966062  -0.002
C  C57  1  0.33077029  0.16223449  0.98186087  1  0.007561  0.012192  3.725775  0.01  -0.01141  0.003517  3.97873  0.003  -0.00572  0.004455  3.999454  0.004  -0.039489  0.00288  -0.068346  -0.015223  0.002331  3.966345  0.002
C  C58  1  0.16924051  0.66223644  0.48186876  1  0.007469  -0.012156  3.725673  -0.01  -0.011479  -0.003515  3.978571  -0.003  -0.00579  -0.004454  3.99929  -0.004  -0.039521  -0.002878  -0.068471  -0.015286  -0.002329  3.966183  -0.002
C  C59  1  0.66923610  0.83775975  0.01813165  1  0.007546  0.012186  3.725602  0.01  -0.011365  0.003517  3.978542  0.003  -0.005674  0.004457  3.999259  0.004  -0.039059  0.002879  -0.068426  -0.015167  0.00233  3.96615  0.002
C  C60  1  0.90943168  0.33398936  0.60931068  1  -0.165859  0.015127  3.65365  0.013  -0.181958  0.005714  3.893159  0.006  -0.190807  0.005309  3.909391  0.006  0.015582  0.00557  -0.076333  -0.176492  0.005178  3.881609  0.005
C  C61  1  0.40943609  0.16600937  0.89068362  1  -0.165838  -0.015134  3.65386  -0.013  -0.181982  -0.005711  3.893334  -0.006  -0.190832  -0.005306  3.909586  -0.006  0.015617  -0.005566  -0.076365  -0.17652  -0.005175  3.881783  -0.005
C  C62  1  0.09058057  0.66601212  0.39069320  1  -0.165622  0.015081  3.653741  0.013  -0.181711  0.005705  3.893145  0.006  -0.190571  0.005301  3.909398  0.006  0.015507  0.005562  -0.076204  -0.176239  0.00517  3.881581  0.005
C  C63  1  0.59057499  0.83398085  0.10931341  1  -0.165664  -0.015127  3.653786  -0.013  -0.18187  -0.005712  3.893268  -0.006  -0.190734  -0.005308  3.909518  -0.006  0.0155  -0.005568  -0.076286  -0.176403  -0.005176  3.881711  -0.005
C  C64  1  0.94789873  0.43111708  0.67851069  1  0.337501  -0.002547  3.847035  -0.004  0.325839  0.002888  4.111073  0.002  0.346528  0.001262  4.127457  0.0  0.901683  0.004175  0.214936  0.314172  0.004068  4.099972  0.003
C  C65  1  0.44790665  0.06888245  0.82148149  1  0.337397  0.002554  3.847082  0.004  0.325843  -0.002888  4.111022  -0.002  0.346505  -0.001263  4.127442  0.0  0.901679  -0.004178  0.21486  0.314174  -0.004069  4.099919  -0.003
C  C66  1  0.05211703  0.56888761  0.32149232  1  0.337352  -0.002527  3.84727  -0.004  0.325745  0.002892  4.111233  0.002  0.346425  0.001265  4.127634  0.0  0.901629  0.004178  0.214907  0.31408  0.004071  4.100122  0.003
C  C67  1  0.55210326  0.93110938  0.17851282  1  0.33732  0.002546  3.84709  0.004  0.325723  -0.002891  4.111118  -0.002  0.346408  -0.001264  4.127511  0.0  0.901717  -0.004177  0.214867  0.314063  -0.004071  4.100007  -0.003
C  C68  1  0.13191778  0.62187492  0.98968461  1  0.173833  0.011334  3.812312  0.009  0.169677  0.010599  4.069857  0.01  0.178256  0.00791  4.09376  0.008  0.413533  0.011458  0.108744  0.165031  0.011114  4.054218  0.01
C  C69  1  0.63192157  0.87812609  0.51030840  1  0.173691  -0.011319  3.812643  -0.009  0.169467  -0.010595  4.070272  -0.01  0.178052  -0.007911  4.094178  -0.008  0.413282  -0.011459  0.108781  0.164819  -0.011114  4.054618  -0.01
C  C70  1  0.86806872  0.37813460  0.01032318  1  0.173313  0.011344  3.812745  0.009  0.169071  0.010597  4.070338  0.01  0.177654  0.007911  4.094255  0.008  0.413514  0.011458  0.108581  0.164428  0.011113  4.0547  0.01
C  C71  1  0.36807196  0.12186172  0.48968814  1  0.173648  -0.011309  3.812273  -0.009  0.169451  -0.010602  4.06985  -0.01  0.178028  -0.007912  4.093767  -0.008  0.413551  -0.011456  0.108734  0.164811  -0.011112  4.054207  -0.01
C  C72  1  0.04371947  0.71608127  0.99200768  1  -0.136974  0.011394  3.717332  0.012  -0.160555  0.011243  3.97606  0.012  -0.170656  0.008746  4.00515  0.01  -0.00578  0.014487  -0.0911  -0.155197  0.012355  3.95928  0.012
C  C73  1  0.54372443  0.78392537  0.50798418  1  -0.136613  -0.011412  3.717194  -0.012  -0.160224  -0.011246  3.975995  -0.012  -0.170318  -0.008743  4.005078  -0.01  -0.005636  -0.014486  -0.091079  -0.154857  -0.012354  3.959179  -0.012
C  C74  1  0.95627991  0.28393628  0.00798956  1  -0.136773  0.011379  3.717217  0.012  -0.160379  0.011244  3.976043  0.012  -0.17046  0.008742  4.005075  0.01  -0.005011  0.014484  -0.091114  -0.155006  0.012354  3.95922  0.012
C  C75  1  0.45629250  0.21605762  0.49201747  1  -0.136864  -0.01143  3.717125  -0.012  -0.160471  -0.011238  3.975948  -0.012  -0.170566  -0.008745  4.005001  -0.01  -0.004543  -0.014477  -0.091124  -0.155086  -0.01235  3.959102  -0.012
C  C76  1  0.06188356  0.80593409  0.07179202  1  -0.032564  0.000967  3.756195  0.0  -0.044309  0.000592  4.002748  0.0  -0.044039  0.00035  4.027729  0.0  -0.001908  0.000557  -0.084013  -0.044179  0.000634  3.986659  0.0
C  C77  1  0.56188851  0.69407013  0.42819859  1  -0.032861  -0.000946  3.756078  0.0  -0.044639  -0.000592  4.002707  0.0  -0.04437  -0.000352  4.027678  0.0  -0.001815  -0.000556  -0.08413  -0.044509  -0.000633  3.986623  0.0
C  C78  1  0.93814039  0.19408828  0.92819934  1  -0.032595  0.000978  3.756138  0.0  -0.044379  0.000592  4.002701  0.0  -0.044109  0.000352  4.027701  0.0  -0.002922  0.000557  -0.084064  -0.044248  0.000633  3.986614  0.0
C  C79  1  0.43813895  0.30591045  0.57180333  1  -0.032562  -0.00093  3.756151  0.0  -0.044352  -0.000594  4.002704  0.0  -0.04408  -0.00035  4.027698  0.0  -0.002738  -0.000557  -0.084087  -0.04422  -0.000633  3.986628  0.0
C  C80  1  0.16754509  0.80435004  0.15263714  1  -0.075851  -0.003799  3.74478  -0.003  -0.094592  -0.001131  4.005399  -0.001  -0.098536  -0.000741  4.02464  0.0  0.02465  -0.000996  -0.093069  -0.092076  -0.000767  3.992033  0.0
C  C81  1  0.66756174  0.69565257  0.34735544  1  -0.075707  0.003777  3.744686  0.003  -0.094471  0.001134  4.005234  0.001  -0.098389  0.000745  4.024501  0.0  0.024594  0.000996  -0.092937  -0.091962  0.000767  3.991873  0.0
C  C82  1  0.83246248  0.19566590  0.84735673  1  -0.075609  -0.003815  3.744413  -0.003  -0.09428  -0.001134  4.004948  -0.001  -0.098251  -0.000745  4.024193  0.0  0.020214  -0.000992  -0.092876  -0.091755  -0.000764  3.991584  0.0
C  C83  1  0.33245051  0.30433444  0.65264094  1  -0.075684  0.003757  3.744541  0.003  -0.094385  0.001131  4.005096  0.001  -0.098353  0.000741  4.024336  0.0  0.020084  0.000995  -0.092931  -0.091862  0.000767  3.99174  0.0
C  C84  1  0.25349688  0.71170604  0.15286133  1  -0.046654  0.001818  3.746062  0.001  -0.07758  0.00054  4.009076  0.0  -0.073376  0.000665  4.024698  0.001  -0.073608  0.000508  -0.07808  -0.079539  0.000337  3.997589  0.0
C  C85  1  0.75350768  0.78829336  0.34713211  1  -0.046815  -0.001793  3.746341  -0.001  -0.077729  -0.000539  4.009365  0.0  -0.073516  -0.000666  4.024966  -0.001  -0.073713  -0.000505  -0.078134  -0.079687  -0.000335  3.997873  0.0
C  C86  1  0.74651537  0.28830910  0.84713313  1  -0.047091  0.001826  3.746247  0.001  -0.077933  0.000541  4.00921  0.0  -0.073734  0.000666  4.024849  0.001  -0.068978  0.000505  -0.078228  -0.079876  0.000335  3.9977  0.0
C  C87  1  0.24650223  0.21169365  0.65286807  1  -0.046927  -0.001778  3.74641  -0.001  -0.077762  -0.000542  4.009361  0.0  -0.073564  -0.000665  4.024993  -0.001  -0.06927  -0.000504  -0.07813  -0.079713  -0.000335  3.997865  0.0
C  C88  1  0.23775248  0.61993725  0.07316032  1  -0.14059  0.000807  3.72092  0.001  -0.126636  0.002427  3.961109  0.003  -0.135267  0.001112  3.979246  0.001  -0.029488  0.004326  -0.013172  -0.120843  0.003731  3.948024  0.004
C  C89  1  0.73776212  0.88006456  0.42683285  1  -0.14041  -0.000826  3.720869  -0.001  -0.126388  -0.002431  3.960892  -0.003  -0.135029  -0.00111  3.979047  -0.001  -0.029358  -0.004325  -0.013057  -0.120595  -0.003729  3.947799  -0.004
C  C90  1  0.76224221  0.38007387  0.92683942  1  -0.140342  0.000799  3.720725  0.001  -0.1264  0.002429  3.960852  0.003  -0.135033  0.001111  3.97899  0.001  -0.029307  0.004329  -0.013133  -0.120612  0.003733  3.94777  0.004
C  C91  1  0.26223258  0.11992566  0.57316646  1  -0.140435  -0.000837  3.720771  -0.001  -0.126474  -0.002422  3.960911  -0.003  -0.135101  -0.001109  3.97905  -0.001  -0.029457  -0.004324  -0.013169  -0.120682  -0.003729  3.947826  -0.004
C  C92  1  0.32668794  0.52114752  0.07901256  1  0.584274  -0.002093  3.794042  -0.003  0.532836  -0.000146  4.092045  -0.001  0.56701  -0.000204  4.083692  -0.001  1.452077  -0.000236  0.230262  0.50943  0.000133  4.096424  -0.001
C  C93  1  0.82669055  0.97885992  0.42098176  1  0.584082  0.002092  3.794258  0.003  0.532753  0.000147  4.092122  0.001  0.56693  0.000202  4.08377  0.001  1.451663  0.000239  0.230293  0.509359  -0.00013  4.096488  0.001
C  C94  1  0.67328804  0.47886280  0.92099768  1  0.584216  -0.002089  3.794227  -0.003  0.532919  -0.000146  4.092134  -0.001  0.567097  -0.000204  4.083776  -0.001  1.45199  -0.000235  0.230205  0.509512  0.000134  4.096514  -0.001
C  C95  1  0.17328074  0.02113513  0.57900407  1  0.584324  0.002092  3.794221  0.003  0.532861  0.000147  4.092249  0.001  0.567035  0.000203  4.083891  0.001  1.45215  0.000238  0.230246  0.509455  -0.00013  4.096631  0.001
C  C96  1  0.49195491  0.44017212  0.18508190  1  -0.067329  0.00013  3.624957  0.0  -0.16816  0.00024  3.892864  0.0  -0.159828  4e-05  3.90087  0.0  0.37023  0.000339  -0.149108  -0.173738  0.000417  3.887691  0.0
C  C97  1  0.99198326  0.05982178  0.31491523  1  -0.067672  -0.000129  3.624938  0.0  -0.168414  -0.000241  3.89275  0.0  -0.160086  -4e-05  3.90076  0.0  0.370126  -0.000338  -0.149195  -0.173983  -0.000415  3.887575  0.0
C  C98  1  0.50800352  0.55983498  0.81493531  1  -0.067409  0.000134  3.624509  0.0  -0.168087  0.00024  3.892416  0.0  -0.159768  4.1e-05  3.900421  0.0  0.36783  0.000339  -0.149071  -0.173664  0.000416  3.887231  0.0
C  C99  1  0.00801143  0.94016683  0.68508071  1  -0.067224  -0.000133  3.624877  0.0  -0.168053  -0.000241  3.892704  0.0  -0.159735  -4.1e-05  3.900703  0.0  0.370515  -0.000338  -0.149081  -0.173629  -0.000416  3.887522  0.0
C  C100  1  0.82053016  0.74900877  0.75339841  1  -0.083593  0.019853  3.352235  0.013  -0.079632  0.016077  3.684575  0.01  -0.058324  0.022987  3.654906  0.017  0.732928  0.015587  -0.01586  -0.092713  0.011488  3.698096  0.005
C  C101  1  0.32054042  0.75099546  0.74658992  1  -0.083723  -0.019861  3.351899  -0.013  -0.079811  -0.016081  3.684277  -0.01  -0.058458  -0.022991  3.654578  -0.017  0.732939  -0.015593  -0.015995  -0.092877  -0.011491  3.697776  -0.005
C  C102  1  0.17946571  0.25099191  0.24660454  1  -0.083773  0.019858  3.351849  0.013  -0.079871  0.016078  3.684271  0.01  -0.058541  0.022992  3.654599  0.017  0.732859  0.015584  -0.016027  -0.092942  0.011484  3.697802  0.005
C  C103  1  0.67946013  0.24899637  0.25339601  1  -0.08404  -0.019874  3.351814  -0.013  -0.080159  -0.016085  3.684265  -0.01  -0.058819  -0.023  3.654582  -0.017  0.732335  -0.015591  -0.01618  -0.093233  -0.011489  3.697775  -0.005
N  N104  1  0.04986933  0.52422721  0.82778867  1  0.06596  0.133278  3.395996  0.14  0.089601  0.111369  3.742679  0.123  0.082084  0.094487  3.768823  0.115  -0.129009  0.140915  -0.058259  0.086754  0.109759  3.733774  0.115
N  N105  1  0.54987780  0.97576415  0.67220847  1  0.066005  -0.133287  3.395937  -0.14  0.08961  -0.111353  3.742645  -0.123  0.08212  -0.094474  3.76876  -0.115  -0.129416  -0.140917  -0.05818  0.086771  -0.109756  3.733689  -0.115
N  N106  1  0.95013005  0.47577024  0.17222124  1  0.066011  0.133344  3.396039  0.14  0.089538  0.111368  3.742797  0.123  0.082028  0.094486  3.768934  0.115  -0.1293  0.140903  -0.058301  0.086695  0.109751  3.73389  0.115
N  N107  1  0.45012860  0.02422286  0.32779247  1  0.065911  -0.133276  3.395978  -0.14  0.089509  -0.111364  3.742698  -0.123  0.082002  -0.094487  3.768833  -0.115  -0.129405  -0.140914  -0.058222  0.08667  -0.109757  3.733755  -0.115
N  N108  1  0.02591576  0.42873900  0.76855355  1  -0.275762  0.075235  2.92809  0.07  -0.278248  0.041771  3.235157  0.039  -0.306441  0.023427  3.265305  0.023  -0.605406  0.060472  -0.199132  -0.264131  0.047384  3.221332  0.042
N  N109  1  0.52591838  0.07125411  0.73143884  1  -0.275883  -0.075192  2.928365  -0.07  -0.278422  -0.041751  3.235471  -0.039  -0.306599  -0.023414  3.265613  -0.023  -0.606139  -0.060461  -0.19923  -0.264297  -0.047375  3.221625  -0.042
N  N110  1  0.97409414  0.57125605  0.23144902  1  -0.275762  0.075174  2.927963  0.07  -0.278273  0.041758  3.23508  0.039  -0.306458  0.023418  3.265223  0.023  -0.605223  0.060459  -0.199139  -0.264144  0.047374  3.221245  0.042
N  N111  1  0.47408919  0.92873692  0.26855606  1  -0.27575  -0.075231  2.928283  -0.07  -0.278266  -0.041775  3.23539  -0.039  -0.306455  -0.023434  3.265534  -0.023  -0.605243  -0.060483  -0.199183  -0.264134  -0.047394  3.22154  -0.042
N  N112  1  0.10989716  0.52771437  0.91690635  1  -0.122776  0.204987  3.026824  0.197  -0.120319  0.135681  3.328793  0.133  -0.143402  0.097108  3.359075  0.103  -0.488288  0.184532  -0.134737  -0.111393  0.144722  3.31642  0.137
N  N113  1  0.60990797  0.97228101  0.58309389  1  -0.122687  -0.204964  3.026929  -0.197  -0.120232  -0.135645  3.328919  -0.133  -0.143303  -0.09707  3.359188  -0.103  -0.487287  -0.184521  -0.134784  -0.111276  -0.144715  3.316499  -0.137
N  N114  1  0.89008583  0.47228710  0.08311047  1  -0.122599  0.204963  3.027144  0.197  -0.120002  0.135666  3.329034  0.133  -0.143092  0.097086  3.359329  0.103  -0.488183  0.184515  -0.134593  -0.111056  0.144706  3.316644  0.137
N  N115  1  0.39008673  0.02770198  0.41690471  1  -0.122634  -0.204972  3.026747  -0.197  -0.12014  -0.135645  3.328673  -0.133  -0.143214  -0.097093  3.358952  -0.103  -0.488423  -0.184499  -0.134696  -0.111194  -0.144691  3.316272  -0.137
N  N116  1  0.90651588  0.52717109  0.65559228  1  -0.369348  0.077875  3.353164  0.083  -0.312401  0.070554  3.641734  0.08  -0.344453  0.071451  3.658022  0.088  -1.212038  0.083843  -0.365818  -0.297571  0.064603  3.633867  0.07
N  N117  1  0.40652146  0.97282912  0.84440590  1  -0.369246  -0.077896  3.353376  -0.083  -0.312395  -0.070559  3.641999  -0.08  -0.344412  -0.071456  3.658256  -0.088  -1.211595  -0.083848  -0.365765  -0.29755  -0.064604  3.634098  -0.07
N  N118  1  0.09349403  0.47283280  0.34441742  1  -0.36923  0.07786  3.353236  0.083  -0.31231  0.070546  3.641793  0.08  -0.344349  0.071446  3.658063  0.088  -1.211704  0.083828  -0.365765  -0.297466  0.06459  3.633917  0.07
N  N119  1  0.59347909  0.02716673  0.15559151  1  -0.369221  -0.077877  3.353101  -0.083  -0.312356  -0.070552  3.641742  -0.08  -0.344399  -0.07145  3.658015  -0.088  -1.21125  -0.083833  -0.365746  -0.297514  -0.064593  3.633845  -0.07
N  N120  1  0.69934655  0.78931323  0.74350900  1  -0.397141  -0.021302  3.27642  -0.022  -0.338445  -0.014141  3.58894  -0.014  -0.35276  -0.017197  3.574226  -0.019  -1.375378  -0.013871  -0.415059  -0.328897  -0.011429  3.593023  -0.011
N  N121  1  0.19934862  0.71068537  0.75648428  1  -0.397048  0.021294  3.27584  0.022  -0.338307  0.014128  3.588366  0.014  -0.352655  0.017187  3.573664  0.019  -1.375564  0.013849  -0.414953  -0.328781  0.011415  3.592489  0.011
N  N122  1  0.30066804  0.21067539  0.25649074  1  -0.397059  -0.021303  3.276019  -0.022  -0.338326  -0.014136  3.588571  -0.014  -0.352673  -0.017196  3.573884  -0.019  -1.375348  -0.01386  -0.414913  -0.328779  -0.011421  3.59266  -0.011
N  N123  1  0.80067299  0.28930887  0.24350747  1  -0.396883  0.02132  3.275639  0.022  -0.338122  0.01414  3.588116  0.014  -0.352473  0.017205  3.573431  0.019  -1.374805  0.013861  -0.414816  -0.328578  0.011423  3.592236  0.011
O  O124  1  0.33529259  0.43884284  0.01096462  1  -0.504595  0.025595  1.93621  0.027  -0.466025  0.019958  2.156942  0.023  -0.490531  0.009805  2.154232  0.012  -1.101859  0.03607  -0.267943  -0.447228  0.028432  2.158125  0.031
O  O125  1  0.83525660  0.06117437  0.48900907  1  -0.504443  -0.025588  1.936632  -0.027  -0.465875  -0.01995  2.157267  -0.023  -0.490377  -0.009799  2.154554  -0.012  -1.101565  -0.03606  -0.267892  -0.447076  -0.028426  2.158438  -0.031
O  O126  1  0.66469040  0.56116667  0.98904394  1  -0.504498  0.025585  1.936595  0.027  -0.465922  0.019951  2.157237  0.023  -0.490432  0.0098  2.15453  0.012  -1.102288  0.036063  -0.267721  -0.447114  0.028425  2.158412  0.031
O  O127  1  0.16467960  0.93883273  0.51096702  1  -0.504505  -0.02558  1.936752  -0.027  -0.465946  -0.019944  2.157515  -0.023  -0.490445  -0.0098  2.154802  -0.012  -1.102215  -0.036047  -0.26779  -0.447146  -0.028415  2.158705  -0.031
O  O128  1  0.39898975  0.53119350  0.17278247  1  -0.288413  0.00213  2.304574  0.003  -0.211062  0.001938  2.547595  0.003  -0.233525  0.000682  2.547227  0.001  -1.059559  0.004302  -0.174834  -0.194711  0.003245  2.546572  0.004
O  O129  1  0.89902747  0.96879787  0.32722000  1  -0.288182  -0.002132  2.304439  -0.003  -0.210995  -0.001938  2.547494  -0.003  -0.233461  -0.000682  2.547128  -0.001  -1.05945  -0.004302  -0.174884  -0.194659  -0.003247  2.546478  -0.004
O  O130  1  0.60097218  0.46881360  0.82723397  1  -0.288289  0.002129  2.30473  0.003  -0.2112  0.001939  2.547878  0.003  -0.233664  0.000681  2.547511  0.001  -1.05958  0.004301  -0.174973  -0.194842  0.003245  2.546851  0.004
O  O131  1  0.10097893  0.03118914  0.67277713  1  -0.288517  -0.00213  2.304627  -0.003  -0.211183  -0.001938  2.547676  -0.003  -0.233646  -0.000681  2.547312  -0.001  -1.059728  -0.004302  -0.174989  -0.194819  -0.003246  2.546639  -0.004
