# generated using pymatgen
data_CdH15C18(NO)5
_symmetry_space_group_name_H-M   'P 1'
_cell_length_a   10.25886858
_cell_length_b   11.58500460
_cell_length_c   19.89829217
_cell_angle_alpha   89.99999702
_cell_angle_beta   97.46106937
_cell_angle_gamma   90.00005873
_symmetry_Int_Tables_number   1
_chemical_formula_structural   CdH15C18(NO)5
_chemical_formula_sum   'Cd4 H60 C72 N20 O20'
_cell_volume   2344.87012661
_cell_formula_units_Z   4
loop_
 _symmetry_equiv_pos_site_id
 _symmetry_equiv_pos_as_xyz
  1  'x, y, z'
loop_
 _atom_site_type_symbol
 _atom_site_label
 _atom_site_symmetry_multiplicity
 _atom_site_fract_x
 _atom_site_fract_y
 _atom_site_fract_z
 _atom_site_occupancy
 _atom_site_pbe_bader_charge
 _atom_site_pbe_bader_spin_density
 _atom_site_pbe_cm5_charge
 _atom_site_pbe_ddec_charge
 _atom_site_pbe_ddec_spin_density
 _atom_site_pbe_ddec_sum_bond_order
 _atom_site_pbe_magmom
Cd  Cd0  1  0.98427265  0.14905692  0.09120409  1  1.278413  0  0.767565  0.892905  0  2.149175  0
Cd  Cd1  1  0.01572761  0.64905713  0.40879631  1  1.278429  0  0.767584  0.892901  0  2.149177  0
Cd  Cd2  1  0.01572702  0.85094309  0.90879609  1  1.278441  0  0.767567  0.892899  0  2.149176  0
Cd  Cd3  1  0.98427206  0.35094288  0.59120437  1  1.278417  0  0.767578  0.892912  0  2.149192  0
H  H4  1  0.05950065  0.11803705  0.96014776  1  0.636287  0  0.291191  0.386065  0  0.956843  0
H  H5  1  0.94050012  0.61803900  0.53985282  1  0.636294  0  0.291211  0.386092  0  0.956802  0
H  H6  1  0.94050000  0.88196037  0.03985248  1  0.636297  0  0.291209  0.386088  0  0.956812  0
H  H7  1  0.05950054  0.38196274  0.46014843  1  0.636284  0  0.2912  0.386085  0  0.956813  0
H  H8  1  0.91140901  0.09511211  0.95013301  1  0.635741  0  0.285616  0.380715  0  0.968744  0
H  H9  1  0.08859075  0.59511329  0.54986801  1  0.635738  0  0.285618  0.380706  0  0.968754  0
H  H10  1  0.08859065  0.90488703  0.04986717  1  0.635742  0  0.28562  0.380692  0  0.96877  0
H  H11  1  0.91140893  0.40488759  0.45013368  1  0.635745  0  0.285619  0.380715  0  0.968748  0
H  H12  1  0.27346083  0.83984269  0.11826371  1  0.061569  0  0.100201  0.097599  0  1.024369  0
H  H13  1  0.72654064  0.33984394  0.38173676  1  0.061531  0  0.100191  0.097589  0  1.024391  0
H  H14  1  0.72653983  0.16015646  0.88173754  1  0.061574  0  0.100195  0.09758  0  1.024414  0
H  H15  1  0.27346000  0.66015866  0.61826298  1  0.061558  0  0.100204  0.097598  0  1.024377  0
H  H16  1  0.47182131  0.71341382  0.12296456  1  0.039143  0  0.09802  0.09437  0  1.008054  0
H  H17  1  0.52818000  0.21341403  0.37703489  1  0.039127  0  0.098008  0.094342  0  1.008071  0
H  H18  1  0.52818033  0.28658533  0.87703625  1  0.039143  0  0.098023  0.094352  0  1.00805  0
H  H19  1  0.47182162  0.78658511  0.62296441  1  0.039143  0  0.098021  0.094359  0  1.00807  0
H  H20  1  0.68693367  0.79956235  0.10474269  1  0.066999  0  0.097355  0.090648  0  1.048085  0
H  H21  1  0.31306675  0.29956323  0.39525570  1  0.067045  0  0.097343  0.090613  0  1.048121  0
H  H22  1  0.31306598  0.20043679  0.89525598  1  0.067037  0  0.097327  0.090589  0  1.048118  0
H  H23  1  0.68693389  0.70043764  0.60474354  1  0.066997  0  0.097352  0.090633  0  1.048126  0
H  H24  1  0.50651873  0.13483833  0.07994227  1  0.1055  0  0.107299  0.114543  0  1.006969  0
H  H25  1  0.49348151  0.63483897  0.42005762  1  0.105498  0  0.1073  0.114541  0  1.006953  0
H  H26  1  0.49348191  0.86516082  0.92005747  1  0.105495  0  0.107299  0.114545  0  1.006969  0
H  H27  1  0.50651816  0.36516277  0.57994306  1  0.105525  0  0.107298  0.114549  0  1.006991  0
H  H28  1  0.13683143  0.55049962  0.26128118  1  0.157793  0  0.141464  0.11108  0  0.982219  0
H  H29  1  0.86316773  0.05049928  0.23871864  1  0.157838  0  0.141473  0.111141  0  0.982135  0
H  H30  1  0.86316726  0.44950040  0.73871893  1  0.157786  0  0.141466  0.111088  0  0.982221  0
H  H31  1  0.13683193  0.94950159  0.76128154  1  0.157862  0  0.141473  0.111155  0  0.982145  0
H  H32  1  0.85643170  0.80992064  0.28106280  1  0.125236  0  0.118767  0.109216  0  1.025537  0
H  H33  1  0.14356875  0.30992052  0.21893710  1  0.125238  0  0.118765  0.109205  0  1.025541  0
H  H34  1  0.14356698  0.19007851  0.71893731  1  0.125236  0  0.118752  0.109181  0  1.025556  0
H  H35  1  0.85643190  0.69007863  0.78106264  1  0.125241  0  0.118765  0.109209  0  1.025533  0
H  H36  1  0.91429119  0.81193189  0.14828236  1  0.180152  0  0.121067  0.134208  0  1.066666  0
H  H37  1  0.08570927  0.31193171  0.35171804  1  0.180144  0  0.121058  0.134186  0  1.066688  0
H  H38  1  0.08570750  0.18806725  0.85171825  1  0.180132  0  0.121056  0.13418  0  1.066682  0
H  H39  1  0.91429138  0.68806830  0.64828170  1  0.180149  0  0.121067  0.134196  0  1.066669  0
H  H40  1  0.08217668  0.70157075  0.08871020  1  0.166113  0  0.133838  0.11762  0  1.01595  0
H  H41  1  0.91782364  0.20157131  0.41128969  1  0.16611  0  0.133828  0.117632  0  1.015932  0
H  H42  1  0.91782299  0.29842840  0.91128997  1  0.166118  0  0.133824  0.117612  0  1.015962  0
H  H43  1  0.08217603  0.79842870  0.58871049  1  0.166107  0  0.133832  0.117636  0  1.015935  0
H  H44  1  0.19050051  0.59971326  0.13668904  1  0.13993  0  0.141167  0.107352  0  0.959826  0
H  H45  1  0.80950068  0.09971373  0.36331142  1  0.139937  0  0.141175  0.107364  0  0.959835  0
H  H46  1  0.80949916  0.40028675  0.86331114  1  0.13992  0  0.141169  0.107358  0  0.959836  0
H  H47  1  0.19049997  0.90028628  0.63668882  1  0.139937  0  0.141173  0.10736  0  0.959835  0
H  H48  1  0.71122135  0.28990439  0.00959497  1  0.156996  0  0.110364  0.135078  0  1.023104  0
H  H49  1  0.28877809  0.78990484  0.49040486  1  0.156988  0  0.110374  0.135101  0  1.0231  0
H  H50  1  0.28877832  0.71009475  0.99040470  1  0.157006  0  0.11037  0.135084  0  1.023112  0
H  H51  1  0.71122255  0.21009517  0.50959488  1  0.156998  0  0.11037  0.135099  0  1.023113  0
H  H52  1  0.56448593  0.44462498  0.95268254  1  0.075879  0  0.099445  0.097407  0  1.02159  0
H  H53  1  0.43551423  0.94462561  0.54731699  1  0.07589  0  0.09944  0.097414  0  1.021572  0
H  H54  1  0.43551275  0.55537503  0.04731657  1  0.075892  0  0.099457  0.097437  0  1.021608  0
H  H55  1  0.56448740  0.05537440  0.45268281  1  0.0759  0  0.099445  0.097431  0  1.021601  0
H  H56  1  0.63017176  0.65101423  0.96082992  1  0.100092  0  0.110076  0.120839  0  0.988662  0
H  H57  1  0.36982904  0.15101433  0.53916965  1  0.100099  0  0.110068  0.120814  0  0.988635  0
H  H58  1  0.36982888  0.34898665  0.03916982  1  0.10011  0  0.110043  0.120789  0  0.988635  0
H  H59  1  0.63017063  0.84898569  0.46083002  1  0.100098  0  0.110051  0.120798  0  0.988647  0
H  H60  1  0.83643066  0.71270445  0.02832192  1  0.140673  0  0.111151  0.128134  0  1.027818  0
H  H61  1  0.16356868  0.21270519  0.47167740  1  0.140654  0  0.111148  0.12811  0  1.027835  0
H  H62  1  0.16356801  0.28729556  0.97167718  1  0.140656  0  0.111153  0.128124  0  1.027828  0
H  H63  1  0.83643197  0.78729482  0.52832233  1  0.140652  0  0.11116  0.128145  0  1.027831  0
C  C64  1  0.25620120  0.06900828  0.09377269  1  1.512926  0  0.196167  0.568279  0  4.217979  0
C  C65  1  0.74379995  0.56900916  0.40622726  1  1.512927  0  0.196166  0.568331  0  4.217863  0
C  C66  1  0.74379846  0.93099086  0.90622699  1  1.512933  0  0.196166  0.568318  0  4.217855  0
C  C67  1  0.25620070  0.43099172  0.59377298  1  1.512868  0  0.196187  0.568322  0  4.217962  0
C  C68  1  0.37692668  0.99455998  0.09734763  1  -0.02752  0  -0.02011  -0.037624  0  3.968443  0
C  C69  1  0.62307397  0.49456114  0.40265178  1  -0.027335  0  -0.020121  -0.037613  0  3.96859  0
C  C70  1  0.62307396  0.00543917  0.90265211  1  -0.027558  0  -0.020132  -0.037626  0  3.968566  0
C  C71  1  0.37692569  0.50544060  0.59734790  1  -0.027535  0  -0.020105  -0.037614  0  3.968498  0
C  C72  1  0.36815722  0.87574345  0.10991331  1  -0.039606  0  -0.082248  -0.081633  0  3.962913  0
C  C73  1  0.63184330  0.37574375  0.39008609  1  -0.039697  0  -0.082245  -0.081681  0  3.96291  0
C  C74  1  0.63184244  0.12425570  0.89008636  1  -0.039543  0  -0.082256  -0.081681  0  3.962978  0
C  C75  1  0.36815734  0.62425712  0.60991315  1  -0.039602  0  -0.082257  -0.081641  0  3.962898  0
C  C76  1  0.47896604  0.80550701  0.11265340  1  -0.058311  0  -0.096489  -0.095767  0  4.039607  0
C  C77  1  0.52103341  0.30550549  0.38734593  1  -0.058366  0  -0.096468  -0.09571  0  4.039466  0
C  C78  1  0.52103460  0.19449386  0.88734634  1  -0.05839  0  -0.096475  -0.095698  0  4.039451  0
C  C79  1  0.47896626  0.69449366  0.61265425  1  -0.058324  0  -0.096473  -0.095746  0  4.039539  0
C  C80  1  0.59960310  0.85341210  0.10289573  1  -0.031082  0  -0.081318  -0.078086  0  3.962254  0
C  C81  1  0.40039739  0.35341219  0.39710317  1  -0.031237  0  -0.08131  -0.078042  0  3.962262  0
C  C82  1  0.40039853  0.14658791  0.89710408  1  -0.031062  0  -0.081275  -0.07802  0  3.962211  0
C  C83  1  0.59960424  0.64658782  0.60289663  1  -0.031083  0  -0.081325  -0.078068  0  3.962218  0
C  C84  1  0.61039133  0.97229251  0.09140281  1  -0.001183  0  -0.022449  -0.043713  0  3.983783  0
C  C85  1  0.38960929  0.47229259  0.40859609  1  -0.001012  0  -0.022442  -0.043725  0  3.983689  0
C  C86  1  0.38960832  0.02770664  0.90859636  1  -0.001173  0  -0.022427  -0.043652  0  3.983656  0
C  C87  1  0.61039037  0.52770742  0.59140358  1  -0.001099  0  -0.022444  -0.043726  0  3.983691  0
C  C88  1  0.49872949  0.04249395  0.08870611  1  0.000669  0  -0.071139  -0.091908  0  3.917587  0
C  C89  1  0.50127162  0.54249374  0.41129334  1  0.000669  0  -0.071156  -0.091912  0  3.917588  0
C  C90  1  0.50127115  0.95750606  0.91129313  1  0.00068  0  -0.071163  -0.09196  0  3.917584  0
C  C91  1  0.49872804  0.45750714  0.58870684  1  0.000673  0  -0.071138  -0.091901  0  3.917663  0
C  C92  1  0.74247875  0.02300334  0.08482356  1  1.545774  0  0.196063  0.566035  0  4.228161  0
C  C93  1  0.25752136  0.52300464  0.41517632  1  1.545791  0  0.196116  0.566106  0  4.22816  0
C  C94  1  0.25752190  0.97699580  0.91517668  1  1.54577  0  0.196108  0.566054  0  4.228224  0
C  C95  1  0.74247733  0.47699624  0.58482429  1  1.545612  0  0.196095  0.566077  0  4.228125  0
C  C96  1  0.06801091  0.62107616  0.24974447  1  0.960394  0  0.143924  0.093926  0  3.920506  0
C  C97  1  0.93198636  0.12107676  0.25025523  1  0.960711  0  0.143989  0.093962  0  3.920554  0
C  C98  1  0.93198876  0.37892385  0.75025571  1  0.960402  0  0.143897  0.093892  0  3.920474  0
C  C99  1  0.06801330  0.87892412  0.74974445  1  0.960283  0  0.143957  0.093875  0  3.92041  0
C  C100  1  0.92241786  0.75574115  0.25665561  1  0.426561  0  -0.003737  -0.029614  0  4.004497  0
C  C101  1  0.07758253  0.25574097  0.24334479  1  0.426565  0  -0.003718  -0.029558  0  4.004457  0
C  C102  1  0.07758083  0.24425886  0.74334450  1  0.426578  0  -0.003736  -0.029597  0  4.004504  0
C  C103  1  0.92241812  0.74425904  0.75665545  1  0.426568  0  -0.003718  -0.029562  0  4.004446  0
C  C104  1  0.94927621  0.75669153  0.19095724  1  0.267404  0  -0.002801  -0.105216  0  3.891453  0
C  C105  1  0.05072418  0.25669132  0.30904316  1  0.267359  0  -0.002802  -0.10519  0  3.891501  0
C  C106  1  0.05072345  0.24330761  0.80904294  1  0.267404  0  -0.002774  -0.105147  0  3.891462  0
C  C107  1  0.94927549  0.74330956  0.69095701  1  0.267369  0  -0.002815  -0.1052  0  3.891479  0
C  C108  1  0.08900148  0.63041757  0.12559346  1  0.611943  0  0.065114  -0.012377  0  3.871663  0
C  C109  1  0.91099777  0.13041813  0.37440687  1  0.611919  0  0.065092  -0.012431  0  3.871724  0
C  C110  1  0.91099720  0.36958158  0.87440665  1  0.612067  0  0.065108  -0.012394  0  3.871751  0
C  C111  1  0.08900189  0.86958189  0.62559331  1  0.611926  0  0.065095  -0.012432  0  3.871678  0
C  C112  1  0.85711293  0.41658114  0.04995597  1  0.452111  0  0.093187  0.115167  0  4.043976  0
C  C113  1  0.14288665  0.91658147  0.45004387  1  0.452118  0  0.093185  0.115132  0  4.043928  0
C  C114  1  0.14288673  0.58341973  0.95004421  1  0.452131  0  0.093198  0.11516  0  4.043912  0
C  C115  1  0.85711300  0.08341941  0.54995530  1  0.452125  0  0.093214  0.115152  0  4.043962  0
C  C116  1  0.73831543  0.38089272  0.01260286  1  -0.043737  0  -0.083526  -0.139992  0  3.940067  0
C  C117  1  0.26168509  0.88089228  0.48739654  1  -0.043739  0  -0.083504  -0.139987  0  3.940045  0
C  C118  1  0.26168620  0.61910643  0.98739745  1  -0.043742  0  -0.083545  -0.14  0  3.940142  0
C  C119  1  0.73831456  0.11910773  0.51260263  1  -0.043759  0  -0.083533  -0.139997  0  3.940059  0
C  C120  1  0.65821691  0.46764616  0.98189246  1  -0.108853  0  -0.093799  -0.101746  0  4.024395  0
C  C121  1  0.34178229  0.96764584  0.51810701  1  -0.108863  0  -0.093853  -0.101819  0  4.024385  0
C  C122  1  0.34178276  0.53235385  0.01810772  1  -0.108904  0  -0.093833  -0.101831  0  4.024521  0
C  C123  1  0.65821736  0.03235417  0.48189217  1  -0.108873  0  -0.093834  -0.10184  0  4.024414  0
C  C124  1  0.69349229  0.58579115  0.98765239  1  0.068834  0  -0.079611  -0.057875  0  3.971871  0
C  C125  1  0.30650745  0.08579119  0.51234661  1  0.068869  0  -0.079573  -0.057784  0  3.971778  0
C  C126  1  0.30650639  0.41420973  0.01234722  1  0.068864  0  -0.079591  -0.057816  0  3.97179  0
C  C127  1  0.69349319  0.91420968  0.48765262  1  0.068847  0  -0.079579  -0.057775  0  3.971817  0
C  C128  1  0.80944755  0.62201134  0.02552927  1  -0.041515  0  -0.089589  -0.154612  0  3.980334  0
C  C129  1  0.19055267  0.12201210  0.47447011  1  -0.041531  0  -0.089581  -0.154608  0  3.98032  0
C  C130  1  0.19055211  0.37798867  0.97447040  1  -0.041504  0  -0.089558  -0.154562  0  3.980257  0
C  C131  1  0.80944699  0.87798791  0.52552956  1  -0.041524  0  -0.089599  -0.15467  0  3.980378  0
C  C132  1  0.89032033  0.53484611  0.05673563  1  0.26352  0  0.102864  0.073873  0  4.024365  0
C  C133  1  0.10968077  0.03484680  0.44326381  1  0.263516  0  0.102868  0.073883  0  4.024315  0
C  C134  1  0.10967933  0.46515390  0.94326404  1  0.263526  0  0.102882  0.073891  0  4.024329  0
C  C135  1  0.89031987  0.96515321  0.55673592  1  0.263528  0  0.102873  0.073918  0  4.024295  0
N  N136  1  0.99728048  0.67140630  0.29260873  1  -1.224654  0  -0.349187  -0.28122  0  3.52526  0
N  N137  1  0.00271882  0.17140605  0.20739160  1  -1.225012  0  -0.349233  -0.281308  0  3.525464  0
N  N138  1  0.00271820  0.32859285  0.70739139  1  -1.224646  0  -0.349195  -0.281224  0  3.525251  0
N  N139  1  0.99728084  0.82859396  0.79260857  1  -1.224621  0  -0.349226  -0.281297  0  3.52522  0
N  N140  1  0.04224672  0.67079215  0.18725299  1  -1.215956  0  -0.244337  0.017337  0  3.771927  0
N  N141  1  0.95775258  0.17079189  0.31274735  1  -1.215899  0  -0.244348  0.017289  0  3.771978  0
N  N142  1  0.95775295  0.32920700  0.81274769  1  -1.216006  0  -0.244309  0.017339  0  3.771914  0
N  N143  1  0.04224708  0.82920812  0.68725283  1  -1.215912  0  -0.244334  0.01735  0  3.771977  0
N  N144  1  0.01090287  0.53428119  0.09600723  1  -0.791057  0  -0.129255  0.058787  0  3.745796  0
N  N145  1  0.98909627  0.03428095  0.40399259  1  -0.791038  0  -0.129255  0.058817  0  3.745794  0
N  N146  1  0.98909581  0.46571882  0.90399288  1  -0.791146  0  -0.129254  0.058801  0  3.745813  0
N  N147  1  0.01090339  0.96571906  0.59600708  1  -0.791043  0  -0.129241  0.058815  0  3.745744  0
N  N148  1  0.04956832  0.42503999  0.11256013  1  -0.052068  0  -0.065478  -0.069946  0  3.167081  0
N  N149  1  0.95043030  0.92504018  0.38743964  1  -0.052019  0  -0.065493  -0.070015  0  3.167081  0
N  N150  1  0.95043037  0.57496002  0.88743998  1  -0.052006  0  -0.065477  -0.069975  0  3.167066  0
N  N151  1  0.04956839  0.07495983  0.61256047  1  -0.052069  0  -0.065478  -0.069948  0  3.16705  0
N  N152  1  0.95925137  0.35440685  0.08482329  1  -0.613628  0  -0.193043  -0.185048  0  3.410852  0
N  N153  1  0.04074716  0.85440708  0.41517699  1  -0.613705  0  -0.193045  -0.184986  0  3.410792  0
N  N154  1  0.04074731  0.64559402  0.91517682  1  -0.613744  0  -0.193064  -0.185032  0  3.410775  0
N  N155  1  0.95925152  0.14559379  0.58482313  1  -0.613644  0  -0.193068  -0.185061  0  3.410851  0
O  O156  1  0.14582903  0.01360903  0.09451844  1  -1.163639  0  -0.343694  -0.589802  0  2.34269  0
O  O157  1  0.85417108  0.51361001  0.40548245  1  -1.163638  0  -0.34368  -0.589816  0  2.342694  0
O  O158  1  0.85417064  0.98639011  0.90548224  1  -1.163622  0  -0.343696  -0.589834  0  2.342647  0
O  O159  1  0.14582860  0.48639087  0.59451873  1  -1.163653  0  -0.343705  -0.589842  0  2.342688  0
O  O160  1  0.26238945  0.17669232  0.09070846  1  -1.137023  0  -0.326786  -0.548365  0  2.102018  0
O  O161  1  0.73761084  0.67669319  0.40929144  1  -1.137051  0  -0.326794  -0.5484  0  2.1019  0
O  O162  1  0.73761021  0.82330683  0.90929122  1  -1.137051  0  -0.326781  -0.548365  0  2.101895  0
O  O163  1  0.26238883  0.32330855  0.59070975  1  -1.136951  0  -0.326803  -0.548384  0  2.102036  0
O  O164  1  0.84172452  0.95532412  0.08829188  1  -1.20183  0  -0.334727  -0.59404  0  2.246049  0
O  O165  1  0.15827707  0.45532227  0.41170758  1  -1.201841  0  -0.334732  -0.594049  0  2.246041  0
O  O166  1  0.15827710  0.04467675  0.91170792  1  -1.201834  0  -0.334721  -0.594029  0  2.246118  0
O  O167  1  0.84172357  0.54467601  0.58829215  1  -1.201803  0  -0.334726  -0.594052  0  2.24606  0
O  O168  1  0.75321499  0.13206071  0.07898411  1  -1.1762  0  -0.330836  -0.554025  0  2.210822  0
O  O169  1  0.24678623  0.63206113  0.42101585  1  -1.176223  0  -0.330863  -0.554058  0  2.210884  0
O  O170  1  0.24678566  0.86793844  0.92101613  1  -1.176221  0  -0.330867  -0.55405  0  2.210869  0
O  O171  1  0.75321344  0.36793888  0.57898433  1  -1.176136  0  -0.330864  -0.554044  0  2.210834  0
O  O172  1  0.97721645  0.15233784  0.97298213  1  -1.248785  0  -0.587751  -0.758572  0  2.106198  0
O  O173  1  0.02278436  0.65233896  0.52701895  1  -1.248788  0  -0.587776  -0.758591  0  2.106192  0
O  O174  1  0.02278420  0.84766044  0.02701861  1  -1.248798  0  -0.587765  -0.758557  0  2.106206  0
O  O175  1  0.97721630  0.34766278  0.47298229  1  -1.248787  0  -0.587756  -0.758584  0  2.106194  0
