# generated using pymatgen
data_HgH22C37Br2N2(ClO2)2
_symmetry_space_group_name_H-M   'P 1'
_cell_length_a   8.92760500
_cell_length_b   15.91820463
_cell_length_c   17.09109861
_cell_angle_alpha   114.95648927
_cell_angle_beta   91.29673047
_cell_angle_gamma   91.80857983
_symmetry_Int_Tables_number   1
_chemical_formula_structural   HgH22C37Br2N2(ClO2)2
_chemical_formula_sum   'Hg2 H44 C74 Br4 N4 Cl4 O8'
_cell_volume   2199.22676695
_cell_formula_units_Z   2
loop_
 _symmetry_equiv_pos_site_id
 _symmetry_equiv_pos_as_xyz
  1  'x, y, z'
loop_
 _atom_site_type_symbol
 _atom_site_label
 _atom_site_symmetry_multiplicity
 _atom_site_fract_x
 _atom_site_fract_y
 _atom_site_fract_z
 _atom_site_occupancy
 _atom_site_hle17_bader_spin_density
 _atom_site_hle17_ddec_charge
 _atom_site_hle17_ddec_spin_density
 _atom_site_hle17_ddec_sum_bond_order
 _atom_site_hle17_magmom
 _atom_site_hse06_10hf_bader_spin_density
 _atom_site_hse06_10hf_ddec_charge
 _atom_site_hse06_10hf_ddec_spin_density
 _atom_site_hse06_10hf_ddec_sum_bond_order
 _atom_site_hse06_10hf_magmom
 _atom_site_hse06_bader_spin_density
 _atom_site_hse06_ddec_charge
 _atom_site_hse06_ddec_spin_density
 _atom_site_hse06_ddec_sum_bond_order
 _atom_site_hse06_magmom
 _atom_site_pbe_bader_spin_density
 _atom_site_pbe_cm5_charge
 _atom_site_pbe_ddec_charge
 _atom_site_pbe_ddec_spin_density
 _atom_site_pbe_ddec_sum_bond_order
 _atom_site_pbe_magmom
Hg  Hg0  1  0.00339924  0.23373378  0.47856785  1  0  0.725227  0  2.109906  0  0  0.557951  0  2.603711  0  0  0.607646  0  2.565223  0  0  0.496747  0.523896  0  2.629546  0
Hg  Hg1  1  0.99660448  0.76626522  0.52143313  1  0  0.725267  0  2.1099  0  0  0.558005  0  2.6037  0  0  0.607702  0  2.565209  0  0  0.496767  0.52395  0  2.629537  0
H  H2  1  0.12183161  0.44226910  0.50574128  1  0  0.077556  0  0.950621  0  0  0.082745  0  1.018841  0  0  0.085637  0  1.015797  0  0  0.105903  0.08063  0  1.020999  0
H  H3  1  0.87818147  0.55773472  0.49425934  1  0  0.077533  0  0.950485  0  0  0.082713  0  1.018738  0  0  0.085605  0  1.015692  0  0  0.105902  0.080601  0  1.020896  0
H  H4  1  0.27000301  0.58522792  0.60627771  1  0  0.110297  0  0.963139  0  0  0.118559  0  1.022734  0  0  0.121883  0  1.021831  0  0  0.101556  0.116198  0  1.023545  0
H  H5  1  0.73001644  0.41477176  0.39372377  1  0  0.110332  0  0.963104  0  0  0.118583  0  1.022716  0  0  0.121908  0  1.021811  0  0  0.101566  0.116222  0  1.023528  0
H  H6  1  0.42460791  0.57748994  0.72931249  1  0  0.110486  0  0.934921  0  0  0.120177  0  0.99322  0  0  0.123249  0  0.991098  0  0  0.114916  0.117903  0  0.994771  0
H  H7  1  0.57541184  0.42251393  0.27069353  1  0  0.11053  0  0.935084  0  0  0.120257  0  0.993327  0  0  0.123349  0  0.991177  0  0  0.114969  0.117946  0  0.994921  0
H  H8  1  0.26313864  0.29245353  0.63897693  1  0  0.089981  0  0.934689  0  0  0.092156  0  1.006678  0  0  0.095727  0  1.002546  0  0  0.113711  0.089466  0  1.009776  0
H  H9  1  0.73685694  0.70755509  0.36101943  1  0  0.09007  0  0.934601  0  0  0.092249  0  1.006569  0  0  0.095838  0  1.002417  0  0  0.113782  0.089557  0  1.009666  0
H  H10  1  0.38962087  0.39056993  0.91641766  1  0  0.110195  0  0.960439  0  0  0.116171  0  1.02909  0  0  0.119551  0  1.027363  0  0  0.102225  0.113774  0  1.030353  0
H  H11  1  0.61038177  0.60942902  0.08357919  1  0  0.110165  0  0.960448  0  0  0.116154  0  1.029098  0  0  0.119536  0  1.027373  0  0  0.102205  0.113759  0  1.03036  0
H  H12  1  0.53502168  0.35512361  0.02356693  1  0  0.100397  0  0.95725  0  0  0.110355  0  1.02024  0  0  0.113222  0  1.01866  0  0  0.103401  0.108305  0  1.021435  0
H  H13  1  0.46497522  0.64487325  0.97642786  1  0  0.100279  0  0.957367  0  0  0.110278  0  1.020321  0  0  0.113145  0  1.018744  0  0  0.103374  0.108226  0  1.021518  0
H  H14  1  0.85118414  0.21133173  0.83043426  1  0  0.09436  0  0.964321  0  0  0.104173  0  1.025959  0  0  0.106647  0  1.025812  0  0  0.098208  0.102408  0  1.026161  0
H  H15  1  0.14880718  0.78866587  0.16956425  1  0  0.094362  0  0.964233  0  0  0.104108  0  1.025949  0  0  0.106581  0  1.025804  0  0  0.098188  0.102344  0  1.026147  0
H  H16  1  0.71121763  0.25293198  0.72497486  1  0  0.113754  0  0.947896  0  0  0.12233  0  1.010776  0  0  0.125934  0  1.008198  0  0  0.102719  0.119731  0  1.012715  0
H  H17  1  0.28877400  0.74706978  0.27502525  1  0  0.113753  0  0.947901  0  0  0.122361  0  1.010745  0  0  0.125967  0  1.008164  0  0  0.102717  0.119761  0  1.012684  0
H  H18  1  0.74160578  0.46203687  0.10107680  1  0  0.111364  0  0.970865  0  0  0.119607  0  1.038876  0  0  0.1223  0  1.037927  0  0  0.099775  0.117673  0  1.039641  0
H  H19  1  0.25839681  0.53796215  0.89892534  1  0  0.111346  0  0.970839  0  0  0.11957  0  1.038889  0  0  0.122262  0  1.037943  0  0  0.099762  0.117635  0  1.039653  0
H  H20  1  0.20957232  0.55280027  0.13116758  1  0  0.103621  0  0.978769  0  0  0.111524  0  1.04464  0  0  0.113856  0  1.044861  0  0  0.0968  0.109866  0  1.044513  0
H  H21  1  0.79042477  0.44719938  0.86883004  1  0  0.103666  0  0.978829  0  0  0.111574  0  1.044675  0  0  0.113907  0  1.044897  0  0  0.09684  0.109916  0  1.044549  0
H  H22  1  0.28347646  0.39066487  0.05392560  1  0  0.102191  0  0.950866  0  0  0.115804  0  1.007232  0  0  0.118484  0  1.00576  0  0  0.103964  0.113904  0  1.00834  0
H  H23  1  0.71651731  0.60933473  0.94606786  1  0  0.102174  0  0.950766  0  0  0.115792  0  1.007138  0  0  0.118474  0  1.00566  0  0  0.103935  0.11389  0  1.008247  0
H  H24  1  0.29961155  0.20838037  0.96848041  1  0  0.09347  0  0.963521  0  0  0.104869  0  1.024857  0  0  0.107013  0  1.024721  0  0  0.099836  0.103344  0  1.025006  0
H  H25  1  0.70038765  0.79161944  0.03152960  1  0  0.093446  0  0.963715  0  0  0.104903  0  1.024963  0  0  0.107019  0  1.024861  0  0  0.099846  0.103378  0  1.025112  0
H  H26  1  0.25735917  0.03694870  0.89302897  1  0  0.116909  0  0.96682  0  0  0.125134  0  1.029997  0  0  0.128889  0  1.027464  0  0  0.099882  0.122427  0  1.031871  0
H  H27  1  0.74265098  0.96304761  0.10697809  1  0  0.116859  0  0.966873  0  0  0.125117  0  1.030014  0  0  0.128884  0  1.027469  0  0  0.099846  0.122411  0  1.03189  0
H  H28  1  0.77776716  0.06540402  0.91360598  1  0  0.112112  0  0.956927  0  0  0.120681  0  1.023538  0  0  0.123337  0  1.022813  0  0  0.100348  0.118709  0  1.024212  0
H  H29  1  0.22222557  0.93459624  0.08638478  1  0  0.112029  0  0.957033  0  0  0.12063  0  1.023612  0  0  0.123285  0  1.022889  0  0  0.100357  0.118701  0  1.024235  0
H  H30  1  0.85106894  0.31866480  0.17779940  1  0  0.097833  0  0.945037  0  0  0.109888  0  1.001335  0  0  0.112363  0  1.001184  0  0  0.101257  0.10814  0  1.001514  0
H  H31  1  0.14893339  0.68132998  0.82219526  1  0  0.097834  0  0.945076  0  0  0.109832  0  1.001434  0  0  0.112306  0  1.001285  0  0  0.101285  0.108086  0  1.001607  0
H  H32  1  0.71172862  0.26269013  0.27244917  1  0  0.110845  0  0.970442  0  0  0.119376  0  1.035221  0  0  0.122779  0  1.032939  0  0  0.094026  0.116965  0  1.036896  0
H  H33  1  0.28826413  0.73731088  0.72754598  1  0  0.110909  0  0.970421  0  0  0.119478  0  1.035167  0  0  0.122878  0  1.03289  0  0  0.094024  0.117061  0  1.03685  0
H  H34  1  0.40032888  0.10463593  0.06108674  1  0  0.118044  0  0.938008  0  0  0.128583  0  0.996317  0  0  0.131619  0  0.995216  0  0  0.109366  0.12642  0  0.997173  0
H  H35  1  0.59966515  0.89536791  0.93891420  1  0  0.118063  0  0.938023  0  0  0.128588  0  0.996349  0  0  0.131623  0  0.995248  0  0  0.10935  0.126425  0  0.997205  0
H  H36  1  0.54389494  0.15557310  0.96532683  1  0  0.099682  0  0.963891  0  0  0.109212  0  1.02729  0  0  0.112005  0  1.02587  0  0  0.101882  0.107211  0  1.028368  0
H  H37  1  0.45609763  0.84442585  0.03466928  1  0  0.099672  0  0.963834  0  0  0.109181  0  1.027275  0  0  0.111976  0  1.025849  0  0  0.101865  0.107182  0  1.02835  0
H  H38  1  0.42918516  0.91786730  0.24700535  1  0  0.110427  0  0.931437  0  0  0.120026  0  0.989422  0  0  0.123079  0  0.98739  0  0  0.115274  0.117787  0  0.990895  0
H  H39  1  0.57082381  0.08212682  0.75299267  1  0  0.110401  0  0.931515  0  0  0.119966  0  0.989541  0  0  0.123017  0  0.98751  0  0  0.115277  0.117726  0  0.991015  0
H  H40  1  0.25976289  0.19187599  0.33022637  1  0  0.090148  0  0.933337  0  0  0.092601  0  1.005086  0  0  0.096149  0  1.000937  0  0  0.114287  0.089974  0  1.008118  0
H  H41  1  0.74022960  0.80812230  0.66977241  1  0  0.090142  0  0.933406  0  0  0.092645  0  1.005106  0  0  0.096188  0  1.000963  0  0  0.114312  0.090019  0  1.008139  0
H  H42  1  0.11970021  0.02949905  0.45339429  1  0  0.079595  0  0.952618  0  0  0.083335  0  1.023797  0  0  0.086047  0  1.02077  0  0  0.103934  0.08136  0  1.025942  0
H  H43  1  0.88031041  0.97050276  0.54661139  1  0  0.079526  0  0.952597  0  0  0.083282  0  1.023771  0  0  0.085986  0  1.020744  0  0  0.103898  0.081306  0  1.025915  0
H  H44  1  0.27421959  0.89886920  0.36163285  1  0  0.10871  0  0.969708  0  0  0.118161  0  1.028938  0  0  0.121189  0  1.02835  0  0  0.100357  0.11598  0  1.029567  0
H  H45  1  0.72578753  0.10113051  0.63837021  1  0  0.108795  0  0.969719  0  0  0.118266  0  1.02893  0  0  0.121303  0  1.028338  0  0  0.100417  0.116084  0  1.02956  0
C  C46  1  0.19067412  0.44285928  0.55967213  1  0  0.13951  0  3.693453  0  0  0.109257  0  3.938828  0  0  0.117376  0  3.957751  0  0  0.051565  0.104162  0  3.925779  0
C  C47  1  0.80933661  0.55714240  0.44032296  1  0  0.139726  0  3.693489  0  0  0.109471  0  3.938918  0  0  0.117593  0  3.957838  0  0  0.05161  0.104372  0  3.925876  0
C  C48  1  0.27461705  0.52164933  0.61536430  1  0  -0.115676  0  3.723216  0  0  -0.123587  0  3.967711  0  0  -0.132735  0  3.990397  0  0  -0.081328  -0.117854  0  3.952461  0
C  C49  1  0.72539676  0.47834965  0.38463624  1  0  -0.115723  0  3.723158  0  0  -0.123601  0  3.967662  0  0  -0.132751  0  3.99035  0  0  -0.08131  -0.117866  0  3.952405  0
C  C50  1  0.35913218  0.51740383  0.68293237  1  0  0.005038  0  3.672683  0  0  -0.022968  0  3.913718  0  0  -0.01718  0  3.932016  0  0  -0.051148  -0.026297  0  3.901143  0
C  C51  1  0.64087924  0.48259307  0.31706675  1  0  0.004819  0  3.672627  0  0  -0.023235  0  3.913674  0  0  -0.01746  0  3.931958  0  0  -0.051273  -0.026532  0  3.901116  0
C  C52  1  0.35838590  0.43389505  0.69172302  1  0  -0.123143  0  3.782872  0  0  -0.100201  0  4.023876  0  0  -0.114044  0  4.048139  0  0  -0.013117  -0.091413  0  4.007717  0
C  C53  1  0.64161336  0.56610469  0.30828111  1  0  -0.122765  0  3.783047  0  0  -0.099834  0  4.024029  0  0  -0.113682  0  4.048304  0  0  -0.013044  -0.091042  0  4.007857  0
C  C54  1  0.27033482  0.35805129  0.63313785  1  0  0.128508  0  3.68943  0  0  0.083005  0  3.948117  0  0  0.093012  0  3.964997  0  0  0.053794  0.076627  0  3.936599  0
C  C55  1  0.72966472  0.64195037  0.36685532  1  0  0.128418  0  3.689224  0  0  0.082955  0  3.947878  0  0  0.092947  0  3.964754  0  0  0.053835  0.076579  0  3.936358  0
C  C56  1  0.44698009  0.42943869  0.76425195  1  0  0.59614  0  3.808221  0  0  0.543316  0  4.110408  0  0  0.577284  0  4.101091  0  0  0.240584  0.520138  0  4.116489  0
C  C57  1  0.55303084  0.57056730  0.23575591  1  0  0.595907  0  3.80773  0  0  0.543173  0  4.109907  0  0  0.577148  0  4.100598  0  0  0.240522  0.519983  0  4.115993  0
C  C58  1  0.54297687  0.32277010  0.81491946  1  0  0.265171  0  3.787041  0  0  0.256533  0  4.04812  0  0  0.265648  0  4.064627  0  0  0.073188  0.250179  0  4.036957  0
C  C59  1  0.45702347  0.67722816  0.18507768  1  0  0.265277  0  3.786975  0  0  0.256752  0  4.047941  0  0  0.265876  0  4.064447  0  0  0.073226  0.250384  0  4.036793  0
C  C60  1  0.49145963  0.35206356  0.89833288  1  0  -0.162423  0  3.75642  0  0  -0.183466  0  4.008332  0  0  -0.187212  0  4.027906  0  0  -0.097719  -0.18088  0  3.995123  0
C  C61  1  0.50853513  0.64793544  0.10166738  1  0  -0.162425  0  3.756541  0  0  -0.1835  0  4.008432  0  0  -0.18725  0  4.028009  0  0  -0.097671  -0.18091  0  3.995222  0
C  C62  1  0.57269550  0.33075301  0.95761583  1  0  -0.096226  0  3.738062  0  0  -0.115041  0  3.988362  0  0  -0.117177  0  4.010032  0  0  -0.087777  -0.113501  0  3.973654  0
C  C63  1  0.42730247  0.66924390  0.04238309  1  0  -0.096017  0  3.738045  0  0  -0.114874  0  3.988348  0  0  -0.11701  0  4.010022  0  0  -0.087701  -0.113329  0  3.973625  0
C  C64  1  0.70279574  0.27977195  0.93419359  1  0  0.051221  0  3.694776  0  0  0.064359  0  3.933031  0  0  0.063268  0  3.957664  0  0  -0.004029  0.065046  0  3.916364  0
C  C65  1  0.29720260  0.72022983  0.06580779  1  0  0.051026  0  3.694819  0  0  0.064186  0  3.933064  0  0  0.063089  0  3.957706  0  0  -0.004097  0.06488  0  3.916379  0
C  C66  1  0.75012326  0.25040882  0.84969031  1  0  -0.098128  0  3.770096  0  0  -0.122203  0  4.028558  0  0  -0.124102  0  4.050512  0  0  -0.092339  -0.120878  0  4.013701  0
C  C67  1  0.24987472  0.74958809  0.15030862  1  0  -0.098105  0  3.77022  0  0  -0.122136  0  4.028731  0  0  -0.124034  0  4.050691  0  0  -0.092338  -0.120805  0  4.013859  0
C  C68  1  0.67128874  0.27242148  0.78988374  1  0  -0.170576  0  3.763972  0  0  -0.191169  0  4.018743  0  0  -0.19515  0  4.037347  0  0  -0.099308  -0.188356  0  4.006107  0
C  C69  1  0.32870128  0.72757406  0.21011513  1  0  -0.170627  0  3.763915  0  0  -0.191264  0  4.018635  0  0  -0.195243  0  4.037227  0  0  -0.099317  -0.18845  0  4.006004  0
C  C70  1  0.79916031  0.26683553  0.00327280  1  0  0.004168  0  3.624567  0  0  0.010776  0  3.839578  0  0  0.011875  0  3.854384  0  0  0.012591  0.010383  0  3.828652  0
C  C71  1  0.20083353  0.73316550  0.99672472  1  0  0.004371  0  3.624128  0  0  0.010978  0  3.839132  0  0  0.012095  0  3.853924  0  0  0.012627  0.010517  0  3.828374  0
C  C72  1  0.90142155  0.35480761  0.04640393  1  0  0.028931  0  3.684549  0  0  0.042312  0  3.919277  0  0  0.041287  0  3.942245  0  0  -0.001523  0.04297  0  3.90374  0
C  C73  1  0.09857324  0.64519136  0.95359398  1  0  0.028862  0  3.684448  0  0  0.042235  0  3.91922  0  0  0.041206  0  3.942198  0  0  -0.001569  0.042897  0  3.903669  0
C  C74  1  0.85898433  0.44561840  0.09047476  1  0  -0.164464  0  3.754889  0  0  -0.19546  0  4.008702  0  0  -0.198408  0  4.030232  0  0  -0.102306  -0.193357  0  3.994149  0
C  C75  1  0.14101502  0.55438198  0.90952610  1  0  -0.16445  0  3.754933  0  0  -0.19546  0  4.00879  0  0  -0.198406  0  4.03032  0  0  -0.102304  -0.193351  0  3.994227  0
C  C76  1  0.97257024  0.51548038  0.12044835  1  0  0.096785  0  3.726111  0  0  0.114647  0  3.991476  0  0  0.117303  0  4.014331  0  0  -0.018612  0.112666  0  3.976049  0
C  C77  1  0.02742819  0.48452204  0.87954918  1  0  0.096724  0  3.726137  0  0  0.114657  0  3.991412  0  0  0.117313  0  4.014266  0  0  -0.018637  0.112672  0  3.975988  0
C  C78  1  0.12410780  0.49668624  0.10722177  1  0  -0.11554  0  3.764431  0  0  -0.138994  0  4.014563  0  0  -0.141263  0  4.035925  0  0  -0.100752  -0.137327  0  4.000064  0
C  C79  1  0.87589141  0.50331204  0.89277653  1  0  -0.115539  0  3.76442  0  0  -0.139019  0  4.014538  0  0  -0.141289  0  4.035901  0  0  -0.10075  -0.137353  0  4.000043  0
C  C80  1  0.16505449  0.40504343  0.06297130  1  0  -0.084515  0  3.728652  0  0  -0.102943  0  3.977695  0  0  -0.104327  0  3.996463  0  0  -0.086976  -0.101987  0  3.96493  0
C  C81  1  0.83494252  0.59495480  0.93702284  1  0  -0.08457  0  3.728396  0  0  -0.102997  0  3.977443  0  0  -0.104381  0  3.996213  0  0  -0.086985  -0.10204  0  3.964676  0
C  C82  1  0.05344819  0.33388490  0.03211256  1  0  0.009837  0  3.802882  0  0  0.012774  0  4.045981  0  0  0.012979  0  4.06836  0  0  -0.014172  0.012604  0  4.030873  0
C  C83  1  0.94654346  0.66611684  0.96788520  1  0  0.009833  0  3.802718  0  0  0.012783  0  4.045831  0  0  0.012985  0  4.068214  0  0  -0.014191  0.012619  0  4.030707  0
C  C84  1  0.06240213  0.23352615  0.98362110  1  0  0.008124  0  3.804768  0  0  0.010601  0  4.047761  0  0  0.010704  0  4.070031  0  0  -0.015529  0.010483  0  4.032743  0
C  C85  1  0.93759290  0.76647556  0.01637552  1  0  0.008135  0  3.804453  0  0  0.010595  0  4.047563  0  0  0.010699  0  4.069827  0  0  -0.0156  0.01048  0  4.032532  0
C  C86  1  0.18572822  0.17779066  0.95633283  1  0  -0.085539  0  3.741683  0  0  -0.102998  0  3.990408  0  0  -0.10458  0  4.010558  0  0  -0.08908  -0.101868  0  3.976652  0
C  C87  1  0.81426247  0.82221468  0.04367624  1  0  -0.08542  0  3.741432  0  0  -0.10291  0  3.990167  0  0  -0.104469  0  4.010329  0  0  -0.088925  -0.101779  0  3.976408  0
C  C88  1  0.16245374  0.08153443  0.91394693  1  0  -0.129775  0  3.765822  0  0  -0.152827  0  4.015061  0  0  -0.155407  0  4.035055  0  0  -0.102808  -0.150917  0  4.00143  0
C  C89  1  0.83755938  0.91847086  0.08606070  1  0  -0.129933  0  3.766126  0  0  -0.153026  0  4.015358  0  0  -0.155614  0  4.035356  0  0  -0.102949  -0.151118  0  4.001726  0
C  C90  1  0.01593476  0.04280870  0.89958822  1  0  0.094948  0  3.739249  0  0  0.111908  0  4.007447  0  0  0.115005  0  4.029859  0  0  -0.020991  0.109641  0  3.992281  0
C  C91  1  0.98406947  0.95719651  0.10041222  1  0  0.095128  0  3.73953  0  0  0.112138  0  4.007657  0  0  0.115234  0  4.030076  0  0  -0.020871  0.10987  0  3.992499  0
C  C92  1  0.89067483  0.09721100  0.92481521  1  0  -0.160692  0  3.751493  0  0  -0.192743  0  4.007114  0  0  -0.195329  0  4.02775  0  0  -0.10098  -0.190854  0  3.993191  0
C  C93  1  0.10932239  0.90279002  0.07518118  1  0  -0.160783  0  3.751691  0  0  -0.192856  0  4.007368  0  0  -0.195438  0  4.028005  0  0  -0.101061  -0.190998  0  3.993413  0
C  C94  1  0.91581262  0.19281271  0.96632213  1  0  0.02766  0  3.690986  0  0  0.040975  0  3.926527  0  0  0.040092  0  3.949274  0  0  -0.00244  0.04155  0  3.911131  0
C  C95  1  0.08418002  0.80718691  0.03367249  1  0  0.027748  0  3.690797  0  0  0.040984  0  3.926504  0  0  0.040096  0  3.949257  0  0  -0.002364  0.041564  0  3.911106  0
C  C96  1  0.70574509  0.24246580  0.06520211  1  0  0.047207  0  3.707706  0  0  0.060211  0  3.946502  0  0  0.059097  0  3.971182  0  0  -0.006168  0.060918  0  3.929796  0
C  C97  1  0.29425400  0.75753036  0.93479185  1  0  0.047043  0  3.707936  0  0  0.060102  0  3.946654  0  0  0.058981  0  3.971344  0  0  -0.006292  0.06082  0  3.92992  0
C  C98  1  0.75195719  0.27227953  0.15189038  1  0  -0.090819  0  3.751195  0  0  -0.114339  0  4.008618  0  0  -0.116267  0  4.030439  0  0  -0.091765  -0.112984  0  3.993836  0
C  C99  1  0.24804621  0.72771456  0.84810403  1  0  -0.09068  0  3.751465  0  0  -0.114152  0  4.008839  0  0  -0.116077  0  4.030664  0  0  -0.091721  -0.112794  0  3.994042  0
C  C100  1  0.67364604  0.24201179  0.20560675  1  0  -0.169706  0  3.771172  0  0  -0.192114  0  4.027616  0  0  -0.196261  0  4.047304  0  0  -0.102323  -0.189197  0  4.014221  0
C  C101  1  0.32635022  0.75799130  0.79438983  1  0  -0.169784  0  3.771279  0  0  -0.192241  0  4.027702  0  0  -0.196379  0  4.047381  0  0  -0.102269  -0.189318  0  4.014303  0
C  C102  1  0.54778089  0.18265384  0.17220984  1  0  0.264745  0  3.785934  0  0  0.255267  0  4.047979  0  0  0.264072  0  4.065169  0  0  0.073268  0.249128  0  4.036361  0
C  C103  1  0.45220974  0.81734928  0.82778843  1  0  0.264711  0  3.785967  0  0  0.255291  0  4.047997  0  0  0.264095  0  4.065189  0  0  0.073242  0.249152  0  4.036378  0
C  C104  1  0.49909542  0.15128692  0.08623403  1  0  -0.154765  0  3.749509  0  0  -0.176611  0  3.999682  0  0  -0.180117  0  4.019261  0  0  -0.094064  -0.174168  0  3.986408  0
C  C105  1  0.50090087  0.84871690  0.91376517  1  0  -0.154881  0  3.749453  0  0  -0.176705  0  3.999615  0  0  -0.180212  0  4.019196  0  0  -0.094051  -0.174265  0  3.98634  0
C  C106  1  0.57962324  0.18125481  0.03312865  1  0  -0.098933  0  3.743806  0  0  -0.118541  0  3.99461  0  0  -0.120858  0  4.016371  0  0  -0.089986  -0.11687  0  3.979813  0
C  C107  1  0.42037700  0.81874207  0.96686854  1  0  -0.098826  0  3.743637  0  0  -0.118445  0  3.994448  0  0  -0.120758  0  4.016209  0  0  -0.089933  -0.116769  0  3.979641  0
C  C108  1  0.44952491  0.06819850  0.21501523  1  0  0.599587  0  3.807575  0  0  0.546894  0  4.108175  0  0  0.581083  0  4.098697  0  0  0.243259  0.52357  0  4.114352  0
C  C109  1  0.55047023  0.93180612  0.78499187  1  0  0.599539  0  3.808073  0  0  0.547  0  4.108476  0  0  0.581186  0  4.099002  0  0  0.243411  0.523678  0  4.114653  0
C  C110  1  0.35896803  0.05697098  0.28188956  1  0  -0.124424  0  3.789441  0  0  -0.101618  0  4.030895  0  0  -0.115599  0  4.055198  0  0  -0.012602  -0.092755  0  4.014729  0
C  C111  1  0.64102998  0.94302666  0.71811198  1  0  -0.124352  0  3.789393  0  0  -0.101506  0  4.030753  0  0  -0.115485  0  4.055054  0  0  -0.01254  -0.092647  0  4.014589  0
C  C112  1  0.36138895  0.97314831  0.28992836  1  0  0.001289  0  3.683316  0  0  -0.026325  0  3.925045  0  0  -0.020696  0  3.943499  0  0  -0.052818  -0.029555  0  3.912339  0
C  C113  1  0.63861919  0.02685000  0.71007300  1  0  0.001282  0  3.683171  0  0  -0.026305  0  3.924923  0  0  -0.020672  0  3.943374  0  0  -0.052837  -0.029532  0  3.912218  0
C  C114  1  0.26815110  0.12643362  0.33584864  1  0  0.127327  0  3.691459  0  0  0.08077  0  3.952199  0  0  0.090946  0  3.969066  0  0  0.054036  0.074265  0  3.940659  0
C  C115  1  0.73184811  0.87356542  0.66415522  1  0  0.127313  0  3.691526  0  0  0.080666  0  3.952308  0  0  0.090845  0  3.969168  0  0  0.053977  0.074163  0  3.940769  0
C  C116  1  0.18913512  0.03509615  0.40387552  1  0  0.143789  0  3.680949  0  0  0.113232  0  3.925357  0  0  0.121795  0  3.944067  0  0  0.051838  0.107831  0  3.912443  0
C  C117  1  0.81086604  0.96489870  0.59612441  1  0  0.143882  0  3.680915  0  0  0.113319  0  3.925351  0  0  0.121892  0  3.944054  0  0  0.051917  0.107921  0  3.912436  0
C  C118  1  0.27606923  0.96247883  0.35245689  1  0  -0.111393  0  3.716876  0  0  -0.119296  0  3.958607  0  0  -0.128512  0  3.981525  0  0  -0.080705  -0.113481  0  3.943159  0
C  C119  1  0.72394560  0.03751875  0.64754196  1  0  -0.111501  0  3.716842  0  0  -0.119453  0  3.958603  0  0  -0.12868  0  3.981524  0  0  -0.080834  -0.113635  0  3.943151  0
Br  Br120  1  0.91753268  0.64080349  0.18204756  1  0  -0.068546  0  1.289205  0  0  -0.056063  0  1.534285  0  0  -0.062606  0  1.529972  0  0  0.047613  -0.051173  0  1.537323  0
Br  Br121  1  0.08245615  0.35919214  0.81795776  1  0  -0.068515  0  1.289137  0  0  -0.05606  0  1.534198  0  0  -0.062605  0  1.52989  0  0  0.047622  -0.051169  0  1.537236  0
Br  Br122  1  0.98678674  0.91110680  0.84528552  1  0  -0.071418  0  1.241798  0  0  -0.061206  0  1.470337  0  0  -0.067792  0  1.466551  0  0  0.029634  -0.056328  0  1.472997  0
Br  Br123  1  0.01321051  0.08889646  0.15472343  1  0  -0.071398  0  1.241799  0  0  -0.061206  0  1.470331  0  0  -0.06779  0  1.466546  0  0  0.029643  -0.056328  0  1.472994  0
N  N124  1  0.18821567  0.36301798  0.56888142  1  0  -0.300421  0  3.238996  0  0  -0.225666  0  3.503794  0  0  -0.246576  0  3.523505  0  0  -0.312151  -0.211488  0  3.489879  0
N  N125  1  0.81177956  0.63698652  0.43111686  1  0  -0.300603  0  3.238824  0  0  -0.225914  0  3.503696  0  0  -0.246826  0  3.523409  0  0  -0.312255  -0.211735  0  3.489784  0
N  N126  1  0.18499549  0.11512143  0.39518943  1  0  -0.300122  0  3.242884  0  0  -0.223927  0  3.507874  0  0  -0.245237  0  3.527645  0  0  -0.31066  -0.209481  0  3.493914  0
N  N127  1  0.81500689  0.88487481  0.60481164  1  0  -0.300153  0  3.242715  0  0  -0.223931  0  3.507722  0  0  -0.24524  0  3.527484  0  0  -0.310672  -0.209486  0  3.493764  0
Cl  Cl128  1  0.95379377  0.17270749  0.58128036  1  0  -0.481004  0  0.956105  0  0  -0.425452  0  1.212639  0  0  -0.442446  0  1.191248  0  0  -0.290522  -0.413913  0  1.227321  0
Cl  Cl129  1  0.04621372  0.82729708  0.41872456  1  0  -0.481006  0  0.956137  0  0  -0.425457  0  1.212672  0  0  -0.44245  0  1.191282  0  0  -0.290518  -0.413916  0  1.227353  0
Cl  Cl130  1  0.95837051  0.29808173  0.37741917  1  0  -0.474539  0  0.973007  0  0  -0.417724  0  1.231655  0  0  -0.434972  0  1.210541  0  0  -0.278922  -0.405986  0  1.246131  0
Cl  Cl131  1  0.04162636  0.70191592  0.62258353  1  0  -0.47455  0  0.972988  0  0  -0.417741  0  1.231644  0  0  -0.43499  0  1.210528  0  0  -0.278922  -0.406002  0  1.246121  0
O  O132  1  0.49927003  0.49693010  0.82675223  1  0  -0.498747  0  1.938654  0  0  -0.45862  0  2.150363  0  0  -0.477822  0  2.143142  0  0  -0.26197  -0.445475  0  2.155089  0
O  O133  1  0.50072568  0.50306608  0.17324346  1  0  -0.498867  0  1.937702  0  0  -0.45877  0  2.149391  0  0  -0.477973  0  2.14217  0  0  -0.2621  -0.445627  0  2.154128  0
O  O134  1  0.46390279  0.33952462  0.75127425  1  0  -0.340271  0  2.331052  0  0  -0.27226  0  2.558617  0  0  -0.2928  0  2.555367  0  0  -0.14403  -0.2578  0  2.560327  0
O  O135  1  0.53608897  0.66047926  0.24872901  1  0  -0.340176  0  2.331093  0  0  -0.272282  0  2.558671  0  0  -0.29284  0  2.555439  0  0  -0.14396  -0.257811  0  2.560383  0
O  O136  1  0.46662020  0.15932143  0.23041068  1  0  -0.334744  0  2.32071  0  0  -0.265721  0  2.54579  0  0  -0.286143  0  2.542166  0  0  -0.141179  -0.251367  0  2.547762  0
O  O137  1  0.53337261  0.84068103  0.76958971  1  0  -0.334598  0  2.320687  0  0  -0.265741  0  2.545825  0  0  -0.28616  0  2.542201  0  0  -0.141269  -0.251387  0  2.547794  0
O  O138  1  0.50292154  0.00418174  0.15480742  1  0  -0.500636  0  1.953521  0  0  -0.460154  0  2.166965  0  0  -0.479805  0  2.159392  0  0  -0.258949  -0.446698  0  2.171946  0
O  O139  1  0.49708534  0.99581600  0.84520249  1  0  -0.500657  0  1.954122  0  0  -0.460219  0  2.167496  0  0  -0.479864  0  2.159921  0  0  -0.258982  -0.446763  0  2.172477  0
