# generated using pymatgen
data_CoH3C2N5O3
_symmetry_space_group_name_H-M   'P 1'
_cell_length_a   6.45520427
_cell_length_b   8.66268258
_cell_length_c   10.17354101
_cell_angle_alpha   89.99913906
_cell_angle_beta   89.99878405
_cell_angle_gamma   90.84655769
_symmetry_Int_Tables_number   1
_chemical_formula_structural   CoH3C2N5O3
_chemical_formula_sum   'Co4 H12 C8 N20 O12'
_cell_volume   568.83606682
_cell_formula_units_Z   4
loop_
 _symmetry_equiv_pos_site_id
 _symmetry_equiv_pos_as_xyz
  1  'x, y, z'
loop_
 _atom_site_type_symbol
 _atom_site_label
 _atom_site_symmetry_multiplicity
 _atom_site_fract_x
 _atom_site_fract_y
 _atom_site_fract_z
 _atom_site_occupancy
 _atom_site_pbe_cm5_charge
 _atom_site_pbe_ddec_charge
 _atom_site_pbe_ddec_spin_density
 _atom_site_pbe_ddec_sum_bond_order
 _atom_site_pbe_magmom
Co  Co0  1  0.74744895  0.69911194  0.31026016  1  0.670516  0.910482  2.720419  2.611422  2.472
Co  Co1  1  0.75255119  0.30088909  0.81026259  1  0.670579  0.910563  2.720448  2.611389  2.472
Co  Co2  1  0.25255278  0.30088721  0.68973856  1  0.670548  0.910498  -2.720407  2.611407  -2.472
Co  Co3  1  0.24744602  0.69911245  0.18973514  1  0.670626  0.910681  -2.720404  2.61125  -2.472
H  H4  1  0.48950073  0.90157271  0.26437686  1  0.288376  0.382121  -0.000558  0.955042  -0.002
H  H5  1  0.01049545  0.09842443  0.76438213  1  0.288438  0.382174  -0.000557  0.954946  -0.002
H  H6  1  0.51050100  0.09842643  0.73561891  1  0.28842  0.382164  0.000559  0.954976  0.002
H  H7  1  0.98950622  0.90157356  0.23562150  1  0.288441  0.38221  0.000558  0.95492  0.002
H  H8  1  0.79724563  0.22788110  0.53482965  1  0.314386  0.326194  0.000106  0.941087  0.0
H  H9  1  0.70275954  0.77212965  0.03482787  1  0.314449  0.326242  0.000106  0.941108  0.0
H  H10  1  0.20276087  0.77212027  0.46517201  1  0.314458  0.32623  -0.000106  0.941074  0.0
H  H11  1  0.29724999  0.22787050  0.96517576  1  0.31443  0.326237  -0.000106  0.941135  0.0
H  H12  1  0.77539341  0.32275194  0.37923539  1  0.296633  0.295688  9.8e-05  1.037024  0.0
H  H13  1  0.72461447  0.67726265  0.87923245  1  0.29663  0.295681  9.8e-05  1.037009  0.0
H  H14  1  0.22461148  0.67724830  0.62076530  1  0.296639  0.295682  -9.9e-05  1.037037  0.0
H  H15  1  0.27539054  0.32273989  0.12077020  1  0.296611  0.295684  -9.9e-05  1.037023  0.0
C  C16  1  0.75307919  0.45874167  0.54359534  1  0.335697  0.550486  0.008216  4.051806  0.011
C  C17  1  0.74692871  0.54126771  0.04359098  1  0.335672  0.550366  0.008216  4.052256  0.011
C  C18  1  0.24692260  0.54125863  0.45640042  1  0.335721  0.550537  -0.008214  4.051863  -0.011
C  C19  1  0.25308101  0.45873591  0.95640774  1  0.335727  0.550533  -0.008215  4.051792  -0.011
C  C20  1  0.72319759  0.69543081  0.59434432  1  0.296875  0.248663  3.2e-05  4.13549  0.003
C  C21  1  0.77681347  0.30458217  0.09434747  1  0.296932  0.248664  3.2e-05  4.135688  0.003
C  C22  1  0.27680531  0.30456138  0.40565440  1  0.296963  0.248766  -2.8e-05  4.135557  -0.003
C  C23  1  0.22319154  0.69542038  0.90565518  1  0.296897  0.248636  -2.9e-05  4.135674  -0.003
N  N24  1  0.73875371  0.60096781  0.48725034  1  -0.375892  -0.517964  0.035616  3.506215  0.041
N  N25  1  0.76125332  0.39904015  0.98725044  1  -0.375945  -0.517927  0.035615  3.506449  0.041
N  N26  1  0.26124808  0.39903249  0.51275034  1  -0.375879  -0.51801  -0.03562  3.506103  -0.041
N  N27  1  0.23875460  0.60095888  0.01275123  1  -0.375975  -0.518005  -0.035618  3.506319  -0.041
N  N28  1  0.74728348  0.47200875  0.67892281  1  -0.2513  -0.310992  0.041699  3.475962  0.063
N  N29  1  0.75272295  0.52799925  0.17891755  1  -0.251322  -0.310949  0.041699  3.476175  0.063
N  N30  1  0.25271546  0.52799622  0.32107886  1  -0.251295  -0.310959  -0.041694  3.476038  -0.063
N  N31  1  0.24728485  0.47199746  0.82108313  1  -0.251325  -0.310941  -0.041694  3.476002  -0.063
N  N32  1  0.72758417  0.62274142  0.70889090  1  -0.198011  -0.194262  -0.001212  3.325306  -0.003
N  N33  1  0.77242762  0.37726938  0.20889221  1  -0.197988  -0.194304  -0.001209  3.325527  -0.003
N  N34  1  0.27241769  0.37726003  0.29110486  1  -0.197989  -0.194322  0.001217  3.325126  0.003
N  N35  1  0.22757727  0.62273086  0.79110847  1  -0.197964  -0.194272  0.001209  3.325306  0.003
N  N36  1  0.76741127  0.32401569  0.48108493  1  -0.563239  -0.620766  0.009645  3.32999  0.014
N  N37  1  0.73259454  0.67599472  0.98108190  1  -0.563277  -0.62075  0.009644  3.330309  0.014
N  N38  1  0.23259231  0.67598920  0.51891477  1  -0.56333  -0.62082  -0.009649  3.329947  -0.014
N  N39  1  0.26741777  0.32399960  0.01892075  1  -0.563274  -0.620863  -0.00965  3.330092  -0.014
N  N40  1  0.70652694  0.85540992  0.58278598  1  0.036724  0.458984  -0.01703  4.206131  -0.026
N  N41  1  0.79347033  0.14459892  0.08279290  1  0.036674  0.458963  -0.017025  4.206041  -0.026
N  N42  1  0.29346761  0.14459976  0.41720683  1  0.036617  0.458899  0.017029  4.206285  0.026
N  N43  1  0.20652966  0.85539679  0.91720876  1  0.036638  0.458797  0.017024  4.206171  0.026
O  O44  1  0.68357647  0.93433626  0.68487497  1  -0.140686  -0.343228  -0.014093  2.004147  -0.022
O  O45  1  0.81642858  0.06567860  0.18488455  1  -0.140664  -0.34324  -0.014091  2.004384  -0.022
O  O46  1  0.31641764  0.06566535  0.31511982  1  -0.140682  -0.343236  0.014093  2.004284  0.022
O  O47  1  0.18357017  0.93432292  0.81512105  1  -0.140633  -0.343166  0.014089  2.004302  0.022
O  O48  1  0.71797709  0.91156875  0.46784426  1  -0.141744  -0.351489  0.005205  2.006129  0.01
O  O49  1  0.78200107  0.08843781  0.96785587  1  -0.141689  -0.351417  0.005209  2.005737  0.01
O  O50  1  0.28201374  0.08842945  0.53215348  1  -0.141792  -0.351522  -0.005211  2.005709  -0.01
O  O51  1  0.21798976  0.91156038  0.03215169  1  -0.141723  -0.351393  -0.005219  2.005791  -0.01
O  O52  1  0.51319550  0.79605231  0.23288194  1  -0.568389  -0.833999  0.018618  2.311477  0.033
O  O53  1  0.98679595  0.20394110  0.73288348  1  -0.568419  -0.833961  0.01863  2.311552  0.033
O  O54  1  0.48680771  0.20394565  0.76711579  1  -0.568446  -0.834018  -0.018643  2.31155  -0.033
O  O55  1  0.01319952  0.79605701  0.26711720  1  -0.568443  -0.834047  -0.018651  2.311459  -0.033
