# generated using pymatgen
data_ZnH19C26(NO2)3
_symmetry_space_group_name_H-M   'P 1'
_cell_length_a   10.22787438
_cell_length_b   10.86423405
_cell_length_c   12.80172336
_cell_angle_alpha   79.39783635
_cell_angle_beta   63.11722929
_cell_angle_gamma   60.81003660
_symmetry_Int_Tables_number   1
_chemical_formula_structural   ZnH19C26(NO2)3
_chemical_formula_sum   'Zn2 H38 C52 N6 O12'
_cell_volume   1106.43221371
_cell_formula_units_Z   2
loop_
 _symmetry_equiv_pos_site_id
 _symmetry_equiv_pos_as_xyz
  1  'x, y, z'
loop_
 _atom_site_type_symbol
 _atom_site_label
 _atom_site_symmetry_multiplicity
 _atom_site_fract_x
 _atom_site_fract_y
 _atom_site_fract_z
 _atom_site_occupancy
 _atom_site_hle17_bader_spin_density
 _atom_site_hle17_ddec_charge
 _atom_site_hle17_ddec_spin_density
 _atom_site_hle17_ddec_sum_bond_order
 _atom_site_hle17_magmom
 _atom_site_hse06_10hf_bader_spin_density
 _atom_site_hse06_10hf_ddec_charge
 _atom_site_hse06_10hf_ddec_spin_density
 _atom_site_hse06_10hf_ddec_sum_bond_order
 _atom_site_hse06_10hf_magmom
 _atom_site_hse06_bader_spin_density
 _atom_site_hse06_ddec_charge
 _atom_site_hse06_ddec_spin_density
 _atom_site_hse06_ddec_sum_bond_order
 _atom_site_hse06_magmom
 _atom_site_pbe_bader_spin_density
 _atom_site_pbe_cm5_charge
 _atom_site_pbe_ddec_charge
 _atom_site_pbe_ddec_spin_density
 _atom_site_pbe_ddec_sum_bond_order
 _atom_site_pbe_magmom
Zn  Zn0  1  0.50512694  0.80485746  0.39011257  1  0  1.093117  0  1.700686  0  0  0.911497  0  2.159708  0  0  0.963882  0  2.097881  0  0  0.684997  0.874717  0  2.201855  0
Zn  Zn1  1  0.49487475  0.19515296  0.60988213  1  0  1.09315  0  1.70062  0  0  0.911556  0  2.159602  0  0  0.963948  0  2.097778  0  0  0.685042  0.874772  0  2.201745  0
H  H2  1  0.16994042  0.65210073  0.53622863  1  0  0.342741  0  0.894489  0  0  0.323403  0  0.956259  0  0  0.332131  0  0.948399  0  0  0.31694  0.31723  0  0.961773  0
H  H3  1  0.83006204  0.34792151  0.46377483  1  0  0.342648  0  0.89459  0  0  0.323351  0  0.956316  0  0  0.332072  0  0.948465  0  0  0.316981  0.317222  0  0.961753  0
H  H4  1  0.85523852  0.60645196  0.22951599  1  0  0.091077  0  0.929985  0  0  0.101181  0  0.989422  0  0  0.104022  0  0.987033  0  0  0.123567  0.099005  0  0.991153  0
H  H5  1  0.14476052  0.39355659  0.77048919  1  0  0.091105  0  0.929859  0  0  0.101231  0  0.989273  0  0  0.104073  0  0.986886  0  0  0.123558  0.099054  0  0.991  0
H  H6  1  0.13990282  0.51258803  0.21787487  1  0  0.105518  0  0.949633  0  0  0.119017  0  1.003057  0  0  0.121788  0  1.003234  0  0  0.110818  0.116964  0  1.003146  0
H  H7  1  0.86010048  0.48740535  0.78212253  1  0  0.105551  0  0.949655  0  0  0.119068  0  1.00304  0  0  0.121839  0  1.003216  0  0  0.110822  0.117  0  1.003148  0
H  H8  1  0.17446307  0.58162854  0.37596061  1  0  0.102949  0  0.974123  0  0  0.110247  0  1.042048  0  0  0.113034  0  1.040266  0  0  0.109563  0.108045  0  1.043702  0
H  H9  1  0.82555819  0.41838463  0.62402090  1  0  0.102888  0  0.974181  0  0  0.110268  0  1.042036  0  0  0.113064  0  1.040224  0  0  0.109579  0.108063  0  1.043694  0
H  H10  1  0.64199469  0.81547771  0.54751471  1  0  0.091313  0  1.003018  0  0  0.09852  0  1.069595  0  0  0.101701  0  1.06616  0  0  0.123825  0.096179  0  1.072093  0
H  H11  1  0.35802086  0.18452677  0.45248447  1  0  0.09135  0  1.002967  0  0  0.098568  0  1.069562  0  0  0.101751  0  1.066122  0  0  0.123781  0.096227  0  1.072061  0
H  H12  1  0.59061733  0.87826870  0.92221984  1  0  0.112306  0  0.948652  0  0  0.122004  0  1.009199  0  0  0.125426  0  1.007128  0  0  0.105651  0.119582  0  1.010476  0
H  H13  1  0.40937969  0.12171573  0.07778606  1  0  0.112221  0  0.94854  0  0  0.12188  0  1.009173  0  0  0.125309  0  1.007087  0  0  0.105601  0.119459  0  1.010457  0
H  H14  1  0.73862934  0.82173734  0.04862128  1  0  0.09549  0  0.943565  0  0  0.109213  0  0.997808  0  0  0.112166  0  0.996282  0  0  0.099739  0.10691  0  0.999266  0
H  H15  1  0.26136103  0.17823173  0.95138213  1  0  0.095549  0  0.943456  0  0  0.109292  0  0.997664  0  0  0.112281  0  0.996096  0  0  0.099762  0.106988  0  0.99912  0
H  H16  1  0.04502352  0.70319540  0.96291119  1  0  0.075016  0  0.985068  0  0  0.08703  0  1.046661  0  0  0.088717  0  1.04741  0  0  0.091389  0.085796  0  1.046167  0
H  H17  1  0.95497052  0.29677976  0.03710603  1  0  0.075052  0  0.985345  0  0  0.087021  0  1.046948  0  0  0.088709  0  1.047694  0  0  0.091399  0.085789  0  1.046452  0
H  H18  1  0.21395910  0.64096492  0.75043161  1  0  0.109795  0  0.975292  0  0  0.120732  0  1.032319  0  0  0.122615  0  1.032848  0  0  0.102808  0.119501  0  1.031699  0
H  H19  1  0.78601493  0.35903952  0.24957935  1  0  0.109706  0  0.975095  0  0  0.12072  0  1.032046  0  0  0.122602  0  1.032578  0  0  0.10278  0.119489  0  1.03143  0
H  H20  1  0.95063651  0.02791166  0.60321038  1  0  0.108107  0  0.939087  0  0  0.11574  0  1.004273  0  0  0.119371  0  1.001012  0  0  0.10603  0.113098  0  1.006674  0
H  H21  1  0.04936813  0.97209144  0.39678326  1  0  0.10811  0  0.939133  0  0  0.115742  0  1.004302  0  0  0.119375  0  1.001041  0  0  0.106051  0.113057  0  1.006763  0
H  H22  1  0.67987316  0.15321678  0.77378176  1  0  0.121422  0  0.947094  0  0  0.133204  0  1.002701  0  0  0.13669  0  1.001301  0  0  0.108238  0.130695  0  1.004031  0
H  H23  1  0.32013122  0.84679497  0.22620876  1  0  0.121355  0  0.947194  0  0  0.133158  0  1.002775  0  0  0.136643  0  1.001378  0  0  0.10825  0.130644  0  1.004114  0
H  H24  1  0.93422827  0.13276845  0.97287973  1  0  0.106946  0  0.974735  0  0  0.11689  0  1.036787  0  0  0.119756  0  1.036615  0  0  0.102083  0.114752  0  1.037209  0
H  H25  1  0.06577324  0.86723014  0.02711855  1  0  0.106927  0  0.97471  0  0  0.116875  0  1.036774  0  0  0.119745  0  1.036596  0  0  0.102079  0.114737  0  1.037189  0
H  H26  1  0.20315935  0.00956918  0.80371454  1  0  0.094603  0  0.960819  0  0  0.106943  0  1.019922  0  0  0.1096  0  1.018134  0  0  0.103131  0.104741  0  1.021786  0
H  H27  1  0.79684151  0.99041442  0.19628778  1  0  0.09468  0  0.96074  0  0  0.106996  0  1.019851  0  0  0.109655  0  1.018061  0  0  0.103147  0.104796  0  1.021723  0
H  H28  1  0.72415529  0.41996342  0.92808056  1  0  0.101431  0  0.975505  0  0  0.111824  0  1.036463  0  0  0.114659  0  1.036214  0  0  0.101872  0.109813  0  1.036841  0
H  H29  1  0.27584279  0.58004057  0.07192931  1  0  0.101403  0  0.975431  0  0  0.111817  0  1.036382  0  0  0.114653  0  1.036132  0  0  0.10186  0.109802  0  1.036768  0
H  H30  1  0.64753935  0.58863259  0.07962840  1  0  0.101849  0  0.944013  0  0  0.109299  0  1.009744  0  0  0.112842  0  1.00709  0  0  0.104787  0.106831  0  1.011433  0
H  H31  1  0.35247276  0.41135946  0.92038258  1  0  0.101883  0  0.944032  0  0  0.109231  0  1.009879  0  0  0.112762  0  1.007256  0  0  0.104774  0.106792  0  1.011534  0
H  H32  1  0.41555746  0.36769734  0.35004637  1  0  0.092516  0  0.967616  0  0  0.099808  0  1.036468  0  0  0.102877  0  1.034025  0  0  0.100089  0.097567  0  1.03844  0
H  H33  1  0.58443876  0.63229501  0.64995275  1  0  0.092567  0  0.967529  0  0  0.099846  0  1.036388  0  0  0.102896  0  1.033969  0  0  0.100113  0.097604  0  1.038359  0
H  H34  1  0.49434731  0.19832823  0.19833154  1  0  0.115182  0  0.987789  0  0  0.122096  0  1.054998  0  0  0.125986  0  1.052292  0  0  0.106181  0.119308  0  1.057093  0
H  H35  1  0.50563314  0.80167968  0.80166124  1  0  0.115179  0  0.987766  0  0  0.12206  0  1.055016  0  0  0.125947  0  1.052314  0  0  0.10616  0.119276  0  1.057098  0
H  H36  1  0.57045617  0.01055647  0.33074964  1  0  0.4179  0  0.896479  0  0  0.385347  0  0.964341  0  0  0.396747  0  0.947947  0  0  0.286115  0.377267  0  0.975962  0
H  H37  1  0.42953531  0.98946670  0.66924572  1  0  0.417885  0  0.896497  0  0  0.38531  0  0.964394  0  0  0.39671  0  0.948  0  0  0.28609  0.377232  0  0.97601  0
H  H38  1  0.40987683  0.05816117  0.30907403  1  0  0.393066  0  0.921178  0  0  0.35464  0  1.004304  0  0  0.365999  0  0.988412  0  0  0.28159  0.346682  0  1.015439  0
H  H39  1  0.59011523  0.94186081  0.69092281  1  0  0.393148  0  0.920992  0  0  0.354738  0  1.004126  0  0  0.366097  0  0.988235  0  0  0.281636  0.346778  0  1.015263  0
C  C40  1  0.87519781  0.63369165  0.29700910  1  0  0.132171  0  3.669321  0  0  0.097265  0  3.922261  0  0  0.106811  0  3.938039  0  0  0.051963  0.091496  0  3.910847  0
C  C41  1  0.12480896  0.36631351  0.70298439  1  0  0.132001  0  3.669283  0  0  0.097078  0  3.922196  0  0  0.106623  0  3.937978  0  0  0.051949  0.091313  0  3.910772  0
C  C42  1  0.03255378  0.58357911  0.29092097  1  0  -0.106306  0  3.726378  0  0  -0.121157  0  3.987124  0  0  -0.128403  0  4.007295  0  0  -0.078321  -0.116617  0  3.973687  0
C  C43  1  0.96744849  0.41643032  0.70907285  1  0  -0.106387  0  3.726341  0  0  -0.121218  0  3.98714  0  0  -0.128463  0  4.007308  0  0  -0.078395  -0.116671  0  3.973712  0
C  C44  1  0.05171949  0.61992345  0.38003868  1  0  -0.021628  0  3.653683  0  0  -0.05149  0  3.905182  0  0  -0.046434  0  3.922584  0  0  -0.058912  -0.054614  0  3.894036  0
C  C45  1  0.94828574  0.38009663  0.61995230  1  0  -0.021607  0  3.653776  0  0  -0.051585  0  3.905282  0  0  -0.046526  0  3.922682  0  0  -0.05893  -0.054709  0  3.894136  0
C  C46  1  0.90985797  0.70529906  0.47593463  1  0  -0.048315  0  3.775186  0  0  -0.025975  0  4.014745  0  0  -0.033702  0  4.03681  0  0  0.003706  -0.02166  0  4.000268  0
C  C47  1  0.09014365  0.29471386  0.52405515  1  0  -0.048231  0  3.774945  0  0  -0.025855  0  4.014572  0  0  -0.033579  0  4.036635  0  0  0.003751  -0.021543  0  4.000095  0
C  C48  1  0.75620209  0.75052765  0.47557115  1  0  0.110579  0  3.658758  0  0  0.068127  0  3.908209  0  0  0.076408  0  3.924828  0  0  0.053875  0.062173  0  3.898307  0
C  C49  1  0.24380447  0.24948411  0.52441863  1  0  0.110595  0  3.658372  0  0  0.068063  0  3.907927  0  0  0.076342  0  3.924548  0  0  0.053965  0.062106  0  3.898034  0
C  C50  1  0.91067492  0.73877092  0.58088401  1  0  0.348703  0  3.752144  0  0  0.310376  0  4.027406  0  0  0.327676  0  4.04168  0  0  0.225587  0.299373  0  4.017124  0
C  C51  1  0.08933062  0.26123859  0.41910791  1  0  0.348681  0  3.752305  0  0  0.310365  0  4.027532  0  0  0.327655  0  4.041808  0  0  0.225586  0.299367  0  4.017249  0
C  C52  1  0.82071937  0.78958718  0.76495599  1  0  0.141973  0  3.84766  0  0  0.140584  0  4.095269  0  0  0.142918  0  4.12015  0  0  0.086798  0.138865  0  4.078612  0
C  C53  1  0.17927090  0.21040368  0.23505000  1  0  0.142177  0  3.847962  0  0  0.140647  0  4.095657  0  0  0.142981  0  4.120535  0  0  0.086815  0.138928  0  4.079002  0
C  C54  1  0.72510281  0.82796011  0.88495205  1  0  -0.141144  0  3.735428  0  0  -0.16157  0  3.989193  0  0  -0.164301  0  4.009849  0  0  -0.093792  -0.159753  0  3.974918  0
C  C55  1  0.27487587  0.17203544  0.11506370  1  0  -0.141181  0  3.735409  0  0  -0.161561  0  3.989232  0  0  -0.164296  0  4.009904  0  0  -0.093849  -0.159749  0  3.974957  0
C  C56  1  0.80888526  0.79553449  0.95455807  1  0  -0.077273  0  3.785564  0  0  -0.092468  0  4.038377  0  0  -0.095435  0  4.061969  0  0  -0.099431  -0.090413  0  4.022637  0
C  C57  1  0.19108958  0.20444248  0.04545532  1  0  -0.077311  0  3.785716  0  0  -0.092505  0  4.038513  0  0  -0.0955  0  4.062099  0  0  -0.099323  -0.090447  0  4.022769  0
C  C58  1  0.98327311  0.72871424  0.90565537  1  0  -0.072875  0  3.790554  0  0  -0.087886  0  4.041964  0  0  -0.091011  0  4.067516  0  0  -0.100044  -0.085867  0  4.024753  0
C  C59  1  0.01671079  0.27127044  0.09435105  1  0  -0.072848  0  3.791046  0  0  -0.087844  0  4.04252  0  0  -0.09097  0  4.068083  0  0  -0.100024  -0.085823  0  4.02531  0
C  C60  1  0.07991427  0.69205742  0.78643949  1  0  -0.15048  0  3.754341  0  0  -0.166541  0  4.002335  0  0  -0.17018  0  4.025119  0  0  -0.095186  -0.164217  0  3.986898  0
C  C61  1  0.92007844  0.30794304  0.21356394  1  0  -0.150368  0  3.75383  0  0  -0.166528  0  4.001709  0  0  -0.17017  0  4.024497  0  0  -0.095136  -0.164205  0  3.986278  0
C  C62  1  0.99618209  0.72182078  0.71673675  1  0  0.155968  0  3.793034  0  0  0.146514  0  4.040153  0  0  0.149944  0  4.063786  0  0  0.095413  0.144214  0  4.024568  0
C  C63  1  0.00381167  0.27818153  0.28326928  1  0  0.155833  0  3.792795  0  0  0.146591  0  4.039725  0  0  0.150014  0  4.063356  0  0  0.095424  0.144291  0  4.024149  0
C  C64  1  0.25797758  0.93666746  0.59225064  1  0  0.640054  0  3.915149  0  0  0.588841  0  4.205581  0  0  0.624048  0  4.198748  0  0  0.201679  0.56518  0  4.208892  0
C  C65  1  0.74203576  0.06331904  0.40775106  1  0  0.640312  0  3.91469  0  0  0.589126  0  4.205072  0  0  0.624333  0  4.198237  0  0  0.201879  0.56547  0  4.20839  0
C  C66  1  0.09539031  0.01168437  0.69160859  1  0  -0.106216  0  3.804652  0  0  -0.084937  0  4.043737  0  0  -0.096871  0  4.069722  0  0  -0.032216  -0.077114  0  4.025685  0
C  C67  1  0.90461633  0.98830698  0.30838709  1  0  -0.106085  0  3.804713  0  0  -0.084811  0  4.043762  0  0  -0.096744  0  4.069746  0  0  -0.032154  -0.076991  0  4.025705  0
C  C68  1  0.94727904  0.05143753  0.68382803  1  0  -0.029802  0  3.718049  0  0  -0.057171  0  3.974879  0  0  -0.053369  0  3.993612  0  0  -0.078413  -0.059148  0  3.962032  0
C  C69  1  0.05272209  0.94855558  0.31617326  1  0  -0.029895  0  3.718221  0  0  -0.057259  0  3.975043  0  0  -0.053459  0  3.993768  0  0  -0.078524  -0.059206  0  3.962224  0
C  C70  1  0.79601253  0.12128973  0.77820825  1  0  -0.173992  0  3.715217  0  0  -0.19542  0  3.971444  0  0  -0.202594  0  3.991507  0  0  -0.097838  -0.190984  0  3.958629  0
C  C71  1  0.20398544  0.87871743  0.22178882  1  0  -0.173892  0  3.715365  0  0  -0.195354  0  3.9716  0  0  -0.202524  0  3.991665  0  0  -0.097835  -0.190911  0  3.958772  0
C  C72  1  0.79259290  0.15086050  0.88143543  1  0  0.292018  0  3.785957  0  0  0.280995  0  4.047126  0  0  0.293742  0  4.062013  0  0  0.092724  0.272355  0  4.03698  0
C  C73  1  0.20741054  0.84914656  0.11856136  1  0  0.291929  0  3.785957  0  0  0.280916  0  4.04712  0  0  0.293661  0  4.062005  0  0  0.092728  0.272276  0  4.036972  0
C  C74  1  0.93853243  0.11193381  0.89108069  1  0  -0.208826  0  3.781889  0  0  -0.226041  0  4.031855  0  0  -0.233817  0  4.052505  0  0  -0.108217  -0.22086  0  4.017896  0
C  C75  1  0.06146703  0.88806028  0.10892186  1  0  -0.208657  0  3.781814  0  0  -0.225894  0  4.031763  0  0  -0.233671  0  4.052412  0  0  -0.108152  -0.22071  0  4.017801  0
C  C76  1  0.08887085  0.04268914  0.79607510  1  0  -0.040474  0  3.752079  0  0  -0.064114  0  3.998222  0  0  -0.061061  0  4.018784  0  0  -0.083934  -0.065633  0  3.984031  0
C  C77  1  0.91112719  0.95729760  0.20392787  1  0  -0.04071  0  3.752263  0  0  -0.064315  0  3.998404  0  0  -0.061265  0  4.018969  0  0  -0.084007  -0.065837  0  3.984224  0
C  C78  1  0.61309135  0.30022543  0.05564333  1  0  0.279632  0  3.790332  0  0  0.269432  0  4.050225  0  0  0.280863  0  4.0659  0  0  0.087559  0.262257  0  4.038769  0
C  C79  1  0.38691336  0.69977549  0.94435128  1  0  0.279581  0  3.790863  0  0  0.269386  0  4.050705  0  0  0.280816  0  4.066382  0  0  0.087469  0.262205  0  4.039251  0
C  C80  1  0.65851967  0.40866825  0.02086965  1  0  -0.196387  0  3.778799  0  0  -0.212648  0  4.029328  0  0  -0.219047  0  4.049103  0  0  -0.103487  -0.208557  0  4.015805  0
C  C81  1  0.34148719  0.59133427  0.97913033  1  0  -0.196325  0  3.778767  0  0  -0.212612  0  4.02927  0  0  -0.219012  0  4.049046  0  0  -0.103403  -0.208521  0  4.01576  0
C  C82  1  0.61436743  0.50279789  0.10536397  1  0  -0.033034  0  3.72666  0  0  -0.059319  0  3.980194  0  0  -0.055677  0  3.997095  0  0  -0.080022  -0.061115  0  3.968396  0
C  C83  1  0.38563482  0.49719469  0.89464326  1  0  -0.03302  0  3.726667  0  0  -0.059191  0  3.980256  0  0  -0.055548  0  3.99715  0  0  -0.08  -0.061016  0  3.96845  0
C  C84  1  0.52355064  0.49017092  0.22450529  1  0  -0.10483  0  3.780597  0  0  -0.082994  0  4.016137  0  0  -0.092939  0  4.039681  0  0  -0.030264  -0.076734  0  4.000803  0
C  C85  1  0.47645686  0.50981014  0.77550050  1  0  -0.104846  0  3.780707  0  0  -0.08308  0  4.016303  0  0  -0.093028  0  4.039842  0  0  -0.030309  -0.076822  0  4.000975  0
C  C86  1  0.48107976  0.37981605  0.25732707  1  0  -0.042419  0  3.747377  0  0  -0.064738  0  3.996168  0  0  -0.062825  0  4.016131  0  0  -0.083323  -0.066246  0  3.982788  0
C  C87  1  0.51892188  0.62017805  0.74267473  1  0  -0.042442  0  3.747039  0  0  -0.064718  0  3.995844  0  0  -0.06279  0  4.015812  0  0  -0.083317  -0.066227  0  3.982462  0
C  C88  1  0.52623602  0.28442181  0.17354583  1  0  -0.179543  0  3.738665  0  0  -0.2039  0  3.998366  0  0  -0.209505  0  4.01715  0  0  -0.104881  -0.199658  0  3.984992  0
C  C89  1  0.47375277  0.71558199  0.82645626  1  0  -0.179555  0  3.73886  0  0  -0.203894  0  3.998578  0  0  -0.209493  0  4.017353  0  0  -0.104875  -0.199649  0  3.985195  0
C  C90  1  0.47443006  0.59008373  0.31730969  1  0  0.651194  0  3.931639  0  0  0.600595  0  4.230124  0  0  0.635097  0  4.222034  0  0  0.206755  0.577123  0  4.235216  0
C  C91  1  0.52557150  0.40991388  0.68270041  1  0  0.651148  0  3.931824  0  0  0.600605  0  4.230257  0  0  0.635105  0  4.222171  0  0  0.206812  0.577133  0  4.235351  0
N  N92  1  0.73846010  0.71657580  0.38896808  1  0  -0.332624  0  3.291728  0  0  -0.246064  0  3.569814  0  0  -0.266769  0  3.583508  0  0  -0.322046  -0.232317  0  3.560034  0
N  N93  1  0.26155021  0.28343889  0.61102326  1  0  -0.332536  0  3.291825  0  0  -0.245923  0  3.569878  0  0  -0.266629  0  3.583573  0  0  -0.322044  -0.232176  0  3.560096  0
N  N94  1  0.77163255  0.80119197  0.67784594  1  0  -0.471296  0  3.075491  0  0  -0.417977  0  3.32925  0  0  -0.437355  0  3.344989  0  0  -0.330676  -0.404892  0  3.318403  0
N  N95  1  0.22835764  0.19881858  0.32213779  1  0  -0.471356  0  3.075842  0  0  -0.418016  0  3.32963  0  0  -0.43739  0  3.345369  0  0  -0.330722  -0.404929  0  3.318778  0
N  N96  1  0.04897832  0.69260202  0.59966811  1  0  -0.379884  0  3.317124  0  0  -0.319097  0  3.54588  0  0  -0.337726  0  3.558138  0  0  -0.365152  -0.306524  0  3.53724  0
N  N97  1  0.95102219  0.30741196  0.40033448  1  0  -0.379792  0  3.317319  0  0  -0.31909  0  3.546031  0  0  -0.337703  0  3.558285  0  0  -0.365216  -0.306548  0  3.537338  0
O  O98  1  0.52162364  0.97475896  0.29763817  1  0  -0.831017  0  1.924308  0  0  -0.763541  0  2.15281  0  0  -0.786579  0  2.114451  0  0  -0.582315  -0.747086  0  2.179313  0
O  O99  1  0.47836360  0.02525995  0.70235905  1  0  -0.831053  0  1.924175  0  0  -0.763628  0  2.152827  0  0  -0.786664  0  2.114464  0  0  -0.582355  -0.747175  0  2.179337  0
O  O100  1  0.26423820  0.89323210  0.50234144  1  0  -0.622201  0  2.004622  0  0  -0.554461  0  2.268747  0  0  -0.582765  0  2.254337  0  0  -0.318833  -0.534976  0  2.277871  0
O  O101  1  0.73579373  0.10673615  0.49766043  1  0  -0.622374  0  2.00439  0  0  -0.554647  0  2.268522  0  0  -0.582935  0  2.254076  0  0  -0.319  -0.535159  0  2.277642  0
O  O102  1  0.38964458  0.91555480  0.59610205  1  0  -0.661528  0  2.046529  0  0  -0.596394  0  2.28324  0  0  -0.623725  0  2.273229  0  0  -0.317549  -0.577033  0  2.28917  0
O  O103  1  0.61035671  0.08445145  0.40390494  1  0  -0.661605  0  2.046266  0  0  -0.596554  0  2.283106  0  0  -0.623888  0  2.273092  0  0  -0.317589  -0.577168  0  2.288989  0
O  O104  1  0.64008567  0.21140818  0.97509295  1  0  -0.299913  0  2.354263  0  0  -0.230029  0  2.579544  0  0  -0.248911  0  2.581935  0  0  -0.149282  -0.216405  0  2.576971  0
O  O105  1  0.35991569  0.78859516  0.02489865  1  0  -0.299897  0  2.354409  0  0  -0.229999  0  2.579664  0  0  -0.248885  0  2.582057  0  0  -0.149222  -0.216373  0  2.577089  0
O  O106  1  0.37129457  0.59085340  0.41958873  1  0  -0.623051  0  1.952175  0  0  -0.5792  0  2.177035  0  0  -0.600797  0  2.166082  0  0  -0.324816  -0.563693  0  2.183766  0
O  O107  1  0.62868867  0.40915288  0.58041030  1  0  -0.623124  0  1.951919  0  0  -0.579285  0  2.17673  0  0  -0.600893  0  2.165795  0  0  -0.324898  -0.563793  0  2.183462  0
O  O108  1  0.54733779  0.66967470  0.28225723  1  0  -0.669623  0  2.054335  0  0  -0.596234  0  2.332147  0  0  -0.625722  0  2.314685  0  0  -0.336546  -0.575602  0  2.343536  0
O  O109  1  0.45267372  0.33031867  0.71775068  1  0  -0.669473  0  2.054426  0  0  -0.59614  0  2.332258  0  0  -0.625631  0  2.314807  0  0  -0.336541  -0.575512  0  2.343649  0
