# generated using pymatgen
data_SnH5C7NO4
_symmetry_space_group_name_H-M   'P 1'
_cell_length_a   5.33766285
_cell_length_b   8.39831778
_cell_length_c   9.35696466
_cell_angle_alpha   88.78472333
_cell_angle_beta   88.51876582
_cell_angle_gamma   86.36703457
_symmetry_Int_Tables_number   1
_chemical_formula_structural   SnH5C7NO4
_chemical_formula_sum   'Sn2 H10 C14 N2 O8'
_cell_volume   418.38497979
_cell_formula_units_Z   2
loop_
 _symmetry_equiv_pos_site_id
 _symmetry_equiv_pos_as_xyz
  1  'x, y, z'
loop_
 _atom_site_type_symbol
 _atom_site_label
 _atom_site_symmetry_multiplicity
 _atom_site_fract_x
 _atom_site_fract_y
 _atom_site_fract_z
 _atom_site_occupancy
 _atom_site_hle17_bader_spin_density
 _atom_site_hle17_ddec_charge
 _atom_site_hle17_ddec_spin_density
 _atom_site_hle17_ddec_sum_bond_order
 _atom_site_hle17_magmom
 _atom_site_hse06_10hf_bader_spin_density
 _atom_site_hse06_10hf_ddec_charge
 _atom_site_hse06_10hf_ddec_spin_density
 _atom_site_hse06_10hf_ddec_sum_bond_order
 _atom_site_hse06_10hf_magmom
 _atom_site_hse06_bader_spin_density
 _atom_site_hse06_ddec_charge
 _atom_site_hse06_ddec_spin_density
 _atom_site_hse06_ddec_sum_bond_order
 _atom_site_hse06_magmom
 _atom_site_pbe_bader_spin_density
 _atom_site_pbe_cm5_charge
 _atom_site_pbe_ddec_charge
 _atom_site_pbe_ddec_spin_density
 _atom_site_pbe_ddec_sum_bond_order
 _atom_site_pbe_magmom
Sn  Sn0  1  0.89803117  0.73500244  0.42238654  1  0  1.03108  0  1.897883  0  0  0.838593  0  2.356085  0  0  0.881935  0  2.331258  0  0  0.513685  0.803552  0  2.375443  0
Sn  Sn1  1  0.10199641  0.26500172  0.57761860  1  0  1.031216  0  1.897711  0  0  0.838782  0  2.355983  0  0  0.882113  0  2.331172  0  0  0.51374  0.803759  0  2.375287  0
H  H2  1  0.40277574  0.61393500  0.92027170  1  0  0.10907  0  0.951446  0  0  0.118618  0  1.01166  0  0  0.121975  0  1.010568  0  0  0.107498  0.116844  0  1.012197  0
H  H3  1  0.59717983  0.38605658  0.07970084  1  0  0.109078  0  0.951365  0  0  0.118656  0  1.01155  0  0  0.122024  0  1.010455  0  0  0.107507  0.116884  0  1.01209  0
H  H4  1  0.30285238  0.62882109  0.18409919  1  0  0.07678  0  0.958713  0  0  0.082368  0  1.031529  0  0  0.084933  0  1.029169  0  0  0.112572  0.081736  0  1.031617  0
H  H5  1  0.69715758  0.37117084  0.81588093  1  0  0.076767  0  0.95899  0  0  0.082494  0  1.031638  0  0  0.085067  0  1.02926  0  0  0.112604  0.081858  0  1.031729  0
H  H6  1  0.09980138  0.74587924  0.74955551  1  0  0.094566  0  0.947824  0  0  0.106663  0  1.009217  0  0  0.108619  0  1.00799  0  0  0.107314  0.104382  0  1.011511  0
H  H7  1  0.90013305  0.25411833  0.25043329  1  0  0.094649  0  0.947938  0  0  0.106664  0  1.00939  0  0  0.108626  0  1.008157  0  0  0.107337  0.104382  0  1.011683  0
H  H8  1  0.70762740  0.88809738  0.84616051  1  0  0.112695  0  0.953258  0  0  0.1208  0  1.014783  0  0  0.124188  0  1.013334  0  0  0.107194  0.119613  0  1.014351  0
H  H9  1  0.29233160  0.11190051  0.15385242  1  0  0.11273  0  0.953151  0  0  0.120833  0  1.014701  0  0  0.124228  0  1.013238  0  0  0.107191  0.119648  0  1.014272  0
H  H10  1  0.62899573  0.88649604  0.11349774  1  0  0.078525  0  0.962264  0  0  0.085506  0  1.029245  0  0  0.088062  0  1.02724  0  0  0.113711  0.084259  0  1.030192  0
H  H11  1  0.37100439  0.11350330  0.88651977  1  0  0.078692  0  0.962066  0  0  0.085497  0  1.029215  0  0  0.088134  0  1.027125  0  0  0.113699  0.084245  0  1.030177  0
C  C12  1  0.51746786  0.46678224  0.42319342  1  0  0.475338  0  4.006774  0  0  0.426757  0  4.312807  0  0  0.455317  0  4.308884  0  0  0.206562  0.407481  0  4.314796  0
C  C13  1  0.48258017  0.53322451  0.57682412  1  0  0.476312  0  4.008027  0  0  0.427708  0  4.314007  0  0  0.456246  0  4.310077  0  0  0.206792  0.408457  0  4.315985  0
C  C14  1  0.43184756  0.97300205  0.43338984  1  0  0.528026  0  3.90066  0  0  0.480282  0  4.188421  0  0  0.510865  0  4.180185  0  0  0.223744  0.459765  0  4.192935  0
C  C15  1  0.56815355  0.02700570  0.56663385  1  0  0.527358  0  3.900554  0  0  0.47997  0  4.187954  0  0  0.51057  0  4.179721  0  0  0.223517  0.459438  0  4.192487  0
C  C16  1  0.17419145  0.68331276  0.10550791  1  0  0.10989  0  3.718116  0  0  0.080974  0  3.964706  0  0  0.087368  0  3.984058  0  0  0.048119  0.077297  0  3.949601  0
C  C17  1  0.82580856  0.31668384  0.89446585  1  0  0.109938  0  3.718199  0  0  0.080961  0  3.964791  0  0  0.087351  0  3.984136  0  0  0.048118  0.077285  0  3.949685  0
C  C18  1  0.23034136  0.67605187  0.95954670  1  0  -0.118565  0  3.732043  0  0  -0.129826  0  3.979387  0  0  -0.137109  0  4.001269  0  0  -0.082024  -0.125465  0  3.963981  0
C  C19  1  0.76963336  0.32393757  0.04044373  1  0  -0.118555  0  3.731802  0  0  -0.129888  0  3.97916  0  0  -0.137183  0  4.001058  0  0  -0.082024  -0.125528  0  3.963762  0
C  C20  1  0.06126144  0.75018710  0.86426746  1  0  0.014453  0  3.692752  0  0  -0.0052  0  3.937959  0  0  -0.000913  0  3.955738  0  0  -0.060164  -0.007239  0  3.925966  0
C  C21  1  0.93869175  0.24981059  0.13572421  1  0  0.014284  0  3.693362  0  0  -0.005249  0  3.938558  0  0  -0.000971  0  3.956344  0  0  -0.060193  -0.007283  0  3.926563  0
C  C22  1  0.84208725  0.82865052  0.91811967  1  0  -0.120059  0  3.733771  0  0  -0.132095  0  3.986716  0  0  -0.139319  0  4.008391  0  0  -0.08255  -0.127494  0  3.970486  0
C  C23  1  0.15787500  0.17135088  0.08188243  1  0  -0.119921  0  3.733891  0  0  -0.132016  0  3.98681  0  0  -0.139239  0  4.008504  0  0  -0.082508  -0.127419  0  3.97058  0
C  C24  1  0.79859421  0.82911305  0.06538018  1  0  0.118595  0  3.709216  0  0  0.086973  0  3.957378  0  0  0.093337  0  3.9771  0  0  0.046525  0.083002  0  3.943262  0
C  C25  1  0.20140150  0.17089092  0.93462232  1  0  0.118402  0  3.709272  0  0  0.086967  0  3.957391  0  0  0.093254  0  3.977097  0  0  0.046531  0.082987  0  3.943286  0
N  N26  1  0.96150153  0.75773742  0.15747498  1  0  -0.31173  0  3.24271  0  0  -0.227344  0  3.484397  0  0  -0.246022  0  3.506773  0  0  -0.294647  -0.214119  0  3.468494  0
N  N27  1  0.03850195  0.24226421  0.84252852  1  0  -0.311783  0  3.24311  0  0  -0.227421  0  3.484757  0  0  -0.246091  0  3.507157  0  0  -0.294708  -0.214197  0  3.468858  0
O  O28  1  0.67371847  0.53197580  0.33897520  1  0  -0.552755  0  2.124196  0  0  -0.487437  0  2.374823  0  0  -0.512399  0  2.370371  0  0  -0.270387  -0.470303  0  2.377632  0
O  O29  1  0.32639067  0.46803326  0.66099202  1  0  -0.55305  0  2.125155  0  0  -0.487756  0  2.37577  0  0  -0.512745  0  2.371413  0  0  -0.270517  -0.470639  0  2.378583  0
O  O30  1  0.38855655  0.35257916  0.39053943  1  0  -0.546881  0  2.072429  0  0  -0.486116  0  2.312843  0  0  -0.510761  0  2.309458  0  0  -0.275391  -0.469031  0  2.314693  0
O  O31  1  0.61147263  0.64739135  0.60943769  1  0  -0.547011  0  2.073269  0  0  -0.486246  0  2.313722  0  0  -0.510884  0  2.31033  0  0  -0.275495  -0.469168  0  2.315574  0
O  O32  1  0.54934510  0.86861695  0.35440560  1  0  -0.547856  0  2.135005  0  0  -0.473941  0  2.383732  0  0  -0.499932  0  2.377703  0  0  -0.263599  -0.45594  0  2.386808  0
O  O33  1  0.45065331  0.13141595  0.64562818  1  0  -0.547712  0  2.135284  0  0  -0.47402  0  2.384048  0  0  -0.500018  0  2.37802  0  0  -0.26354  -0.455989  0  2.387053  0
O  O34  1  0.21527234  0.03260114  0.41037508  1  0  -0.551479  0  2.085106  0  0  -0.485855  0  2.321025  0  0  -0.510443  0  2.316539  0  0  -0.2582  -0.468633  0  2.323395  0
O  O35  1  0.78477336  0.96739506  0.58966842  1  0  -0.551087  0  2.084429  0  0  -0.485656  0  2.320413  0  0  -0.510181  0  2.315767  0  0  -0.25801  -0.468423  0  2.322778  0
