# generated using pymatgen
data_GdH15C12S2O15
_symmetry_space_group_name_H-M   'P 1'
_cell_length_a   6.94868078
_cell_length_b   10.75975182
_cell_length_c   12.08401946
_cell_angle_alpha   95.95598952
_cell_angle_beta   103.19207800
_cell_angle_gamma   89.65216735
_symmetry_Int_Tables_number   1
_chemical_formula_structural   GdH15C12S2O15
_chemical_formula_sum   'Gd2 H30 C24 S4 O30'
_cell_volume   874.73946776
_cell_formula_units_Z   2
loop_
 _symmetry_equiv_pos_site_id
 _symmetry_equiv_pos_as_xyz
  1  'x, y, z'
loop_
 _atom_site_type_symbol
 _atom_site_label
 _atom_site_symmetry_multiplicity
 _atom_site_fract_x
 _atom_site_fract_y
 _atom_site_fract_z
 _atom_site_occupancy
 _atom_site_hle17_bader_spin_density
 _atom_site_hle17_ddec_charge
 _atom_site_hle17_ddec_spin_density
 _atom_site_hle17_ddec_sum_bond_order
 _atom_site_hle17_magmom
 _atom_site_hse06_10hf_bader_spin_density
 _atom_site_hse06_10hf_ddec_charge
 _atom_site_hse06_10hf_ddec_spin_density
 _atom_site_hse06_10hf_ddec_sum_bond_order
 _atom_site_hse06_10hf_magmom
 _atom_site_hse06_bader_spin_density
 _atom_site_hse06_ddec_charge
 _atom_site_hse06_ddec_spin_density
 _atom_site_hse06_ddec_sum_bond_order
 _atom_site_hse06_magmom
 _atom_site_pbe_bader_spin_density
 _atom_site_pbe_cm5_charge
 _atom_site_pbe_ddec_charge
 _atom_site_pbe_ddec_spin_density
 _atom_site_pbe_ddec_sum_bond_order
 _atom_site_pbe_magmom
Gd  Gd0  1  0.78895160  0.40110911  0.21355185  1  0  2.276747  0  1.656399  0  0  2.205866  0  1.978174  0  0  2.245563  0  1.939641  0  0  1.462684  2.176295  0  2.006874  0
Gd  Gd1  1  0.21104790  0.59889314  0.78644810  1  0  2.276775  0  1.656357  0  0  2.20587  0  1.97815  0  0  2.245566  0  1.939616  0  0  1.462708  2.176304  0  2.006842  0
H  H2  1  0.03817942  0.77612854  0.26614069  1  0  0.42366  0  0.849765  0  0  0.391789  0  0.928497  0  0  0.403518  0  0.915331  0  0  0.318159  0.383495  0  0.93778  0
H  H3  1  0.96182134  0.22386717  0.73385800  1  0  0.423695  0  0.84969  0  0  0.391817  0  0.92843  0  0  0.403547  0  0.915264  0  0  0.318185  0.383524  0  0.937713  0
H  H4  1  0.21937872  0.41235504  0.16620079  1  0  0.445072  0  0.848704  0  0  0.417383  0  0.906661  0  0  0.427993  0  0.89101  0  0  0.303441  0.409863  0  0.917794  0
H  H5  1  0.78062066  0.58764441  0.83380137  1  0  0.445083  0  0.848689  0  0  0.417397  0  0.906639  0  0  0.428008  0  0.890987  0  0  0.303463  0.409879  0  0.91777  0
H  H6  1  0.12795620  0.54970619  0.16796722  1  0  0.437163  0  0.857951  0  0  0.407861  0  0.918055  0  0  0.418019  0  0.90306  0  0  0.303159  0.400588  0  0.928785  0
H  H7  1  0.87204470  0.45029420  0.83203440  1  0  0.437156  0  0.857959  0  0  0.407852  0  0.918065  0  0  0.41801  0  0.90307  0  0  0.30316  0.40058  0  0.928793  0
H  H8  1  0.64684941  0.64224816  0.09663389  1  0  0.442324  0  0.854175  0  0  0.411072  0  0.917906  0  0  0.421206  0  0.903047  0  0  0.308044  0.403881  0  0.928482  0
H  H9  1  0.35314857  0.35775316  0.90336742  1  0  0.442362  0  0.854122  0  0  0.411096  0  0.91787  0  0  0.421232  0  0.90301  0  0  0.308068  0.403904  0  0.928448  0
H  H10  1  0.74196622  0.55376129  0.01271288  1  0  0.452476  0  0.809313  0  0  0.426101  0  0.877987  0  0  0.435568  0  0.863763  0  0  0.324945  0.419369  0  0.886812  0
H  H11  1  0.25802733  0.44624004  0.98728620  1  0  0.452468  0  0.809332  0  0  0.426094  0  0.878  0  0  0.435561  0  0.863775  0  0  0.324939  0.419361  0  0.886827  0
H  H12  1  0.13239394  0.55230990  0.38968988  1  0  0.455983  0  0.834773  0  0  0.423737  0  0.899168  0  0  0.434275  0  0.88375  0  0  0.306987  0.416297  0  0.910043  0
H  H13  1  0.86760105  0.44769049  0.61031178  1  0  0.455956  0  0.834813  0  0  0.4237  0  0.899225  0  0  0.434239  0  0.883809  0  0  0.306954  0.416258  0  0.910106  0
H  H14  1  0.93236556  0.56021232  0.43099791  1  0  0.452183  0  0.799841  0  0  0.430501  0  0.859579  0  0  0.439439  0  0.84877  0  0  0.329618  0.424086  0  0.867442  0
H  H15  1  0.06762663  0.43979182  0.56899875  1  0  0.452062  0  0.799778  0  0  0.430379  0  0.859544  0  0  0.439316  0  0.848739  0  0  0.32957  0.423963  0  0.867412  0
H  H16  1  0.57227927  0.64623792  0.24706558  1  0  0.427756  0  0.873972  0  0  0.399584  0  0.933991  0  0  0.409086  0  0.91999  0  0  0.303301  0.392865  0  0.943911  0
H  H17  1  0.42771565  0.35376061  0.75293507  1  0  0.427677  0  0.87408  0  0  0.39947  0  0.934142  0  0  0.408973  0  0.920142  0  0  0.303278  0.392752  0  0.944059  0
H  H18  1  0.51676627  0.57259854  0.34029236  1  0  0.448254  0  0.844359  0  0  0.417319  0  0.907232  0  0  0.427699  0  0.891947  0  0  0.30507  0.410062  0  0.917871  0
H  H19  1  0.48322711  0.42739812  0.65970791  1  0  0.448278  0  0.844342  0  0  0.417339  0  0.907217  0  0  0.42772  0  0.891931  0  0  0.305112  0.410081  0  0.917856  0
H  H20  1  0.15936275  0.27336122  0.32461512  1  0  0.451029  0  0.841751  0  0  0.421969  0  0.900955  0  0  0.431975  0  0.886436  0  0  0.304727  0.414859  0  0.911282  0
H  H21  1  0.84063510  0.72663637  0.67538584  1  0  0.451028  0  0.84175  0  0  0.421959  0  0.900968  0  0  0.431965  0  0.886449  0  0  0.304721  0.414849  0  0.911296  0
H  H22  1  0.01610121  0.15664209  0.26745119  1  0  0.451526  0  0.837898  0  0  0.424736  0  0.89399  0  0  0.434886  0  0.879185  0  0  0.305931  0.417407  0  0.904683  0
H  H23  1  0.98389521  0.84335643  0.73254635  1  0  0.451527  0  0.837894  0  0  0.424734  0  0.89399  0  0  0.434884  0  0.879186  0  0  0.305934  0.417404  0  0.904684  0
H  H24  1  0.90344404  0.74636580  0.98408801  1  0  0.110694  0  0.97313  0  0  0.117375  0  1.040785  0  0  0.12146  0  1.036953  0  0  0.114702  0.114161  0  1.044171  0
H  H25  1  0.09655690  0.25363551  0.01591287  1  0  0.110659  0  0.973169  0  0  0.11737  0  1.040794  0  0  0.121456  0  1.036963  0  0  0.114688  0.114156  0  1.044181  0
H  H26  1  0.49176017  0.02077636  0.84724381  1  0  0.122915  0  0.947752  0  0  0.129386  0  1.012354  0  0  0.132896  0  1.01045  0  0  0.112711  0.126832  0  1.013769  0
H  H27  1  0.50823921  0.97922309  0.15275918  1  0  0.123017  0  0.947701  0  0  0.129429  0  1.012356  0  0  0.132941  0  1.010451  0  0  0.112739  0.126879  0  1.013764  0
H  H28  1  0.68402412  0.78649670  0.42295553  1  0  0.115865  0  0.966819  0  0  0.121086  0  1.036135  0  0  0.125568  0  1.031765  0  0  0.112819  0.117754  0  1.039496  0
H  H29  1  0.31597828  0.21350367  0.57704381  1  0  0.115895  0  0.966824  0  0  0.121116  0  1.036128  0  0  0.125595  0  1.031771  0  0  0.112823  0.117785  0  1.03949  0
H  H30  1  0.83170139  0.15934046  0.37102858  1  0  0.110026  0  1.002763  0  0  0.115067  0  1.071792  0  0  0.119775  0  1.067299  0  0  0.11779  0.111665  0  1.075017  0
H  H31  1  0.16829509  0.84065900  0.62896657  1  0  0.110016  0  1.002789  0  0  0.115042  0  1.071821  0  0  0.119748  0  1.067332  0  0  0.117789  0.111643  0  1.075042  0
C  C32  1  0.87198622  0.84313267  0.96953376  1  0  -0.060959  0  3.631655  0  0  -0.100966  0  3.884182  0  0  -0.096878  0  3.897924  0  0  -0.061801  -0.103928  0  3.875796  0
C  C33  1  0.12801913  0.15686770  0.03046763  1  0  -0.060867  0  3.631476  0  0  -0.100936  0  3.884091  0  0  -0.096847  0  3.897833  0  0  -0.061742  -0.1039  0  3.875707  0
C  C34  1  0.68578890  0.87328414  0.91084163  1  0  -0.037904  0  3.725275  0  0  -0.010321  0  3.958531  0  0  -0.018839  0  3.979402  0  0  -0.007453  -0.004829  0  3.944748  0
C  C35  1  0.31421352  0.12671812  0.08916450  1  0  -0.037742  0  3.725002  0  0  -0.010187  0  3.958311  0  0  -0.018705  0  3.979182  0  0  -0.007437  -0.004695  0  3.944531  0
C  C36  1  0.63999071  0.99866917  0.89218483  1  0  -0.037715  0  3.688883  0  0  -0.079663  0  3.942102  0  0  -0.075955  0  3.959627  0  0  -0.068536  -0.081874  0  3.930428  0
C  C37  1  0.36001313  0.00133121  0.10781884  1  0  -0.037852  0  3.688794  0  0  -0.079728  0  3.942023  0  0  -0.076021  0  3.959546  0  0  -0.068556  -0.081942  0  3.93035  0
C  C38  1  0.78252628  0.09084248  0.93088936  1  0  -0.149604  0  3.69418  0  0  -0.131281  0  3.950789  0  0  -0.138914  0  3.970893  0  0  -0.006667  -0.126311  0  3.93738  0
C  C39  1  0.21747313  0.90915790  0.06911372  1  0  -0.149652  0  3.694201  0  0  -0.131351  0  3.950828  0  0  -0.138983  0  3.970937  0  0  -0.006658  -0.126377  0  3.937415  0
C  C40  1  0.97834621  0.06392372  0.99013618  1  0  0.081303  0  3.709015  0  0  0.088144  0  3.940947  0  0  0.089112  0  3.962699  0  0  0.015691  0.087579  0  3.926243  0
C  C41  1  0.02165624  0.93607759  0.00986076  1  0  0.081406  0  3.709159  0  0  0.088203  0  3.941115  0  0  0.08917  0  3.96287  0  0  0.015721  0.087634  0  3.926413  0
C  C42  1  0.52902255  0.77538232  0.86590653  1  0  0.643473  0  3.91633  0  0  0.591261  0  4.218664  0  0  0.62555  0  4.210324  0  0  0.197051  0.568209  0  4.223355  0
C  C43  1  0.47098129  0.22461805  0.13409797  1  0  0.643408  0  3.916437  0  0  0.591228  0  4.218754  0  0  0.625517  0  4.21041  0  0  0.197014  0.568176  0  4.223447  0
C  C44  1  0.66123573  0.88657874  0.43480211  1  0  -0.065433  0  3.623446  0  0  -0.106476  0  3.881167  0  0  -0.102355  0  3.894957  0  0  -0.066328  -0.10913  0  3.872226  0
C  C45  1  0.33876369  0.11342071  0.56519591  1  0  -0.065531  0  3.623393  0  0  -0.106539  0  3.881135  0  0  -0.102422  0  3.894923  0  0  -0.066352  -0.109197  0  3.8722  0
C  C46  1  0.77302391  0.96704627  0.39141982  1  0  -0.061843  0  3.753988  0  0  -0.038956  0  3.997707  0  0  -0.048013  0  4.019914  0  0  -0.011411  -0.033019  0  3.982961  0
C  C47  1  0.22698132  0.03295036  0.60857955  1  0  -0.061929  0  3.754317  0  0  -0.039199  0  3.998171  0  0  -0.048257  0  4.020377  0  0  -0.011533  -0.03326  0  3.983425  0
C  C48  1  0.74361110  0.09702366  0.40529232  1  0  -0.048909  0  3.741673  0  0  -0.090541  0  3.99528  0  0  -0.087278  0  4.013222  0  0  -0.072972  -0.092313  0  3.983244  0
C  C49  1  0.25638977  0.90297485  0.59470581  1  0  -0.048811  0  3.741969  0  0  -0.090409  0  3.995573  0  0  -0.087145  0  4.013517  0  0  -0.072941  -0.092185  0  3.983534  0
C  C50  1  0.60110011  0.14522805  0.45873097  1  0  -0.157789  0  3.677719  0  0  -0.135472  0  3.927079  0  0  -0.143678  0  3.948735  0  0  -0.011183  -0.13038  0  3.913035  0
C  C51  1  0.39889925  0.85476953  0.54126605  1  0  -0.157887  0  3.677744  0  0  -0.135482  0  3.926997  0  0  -0.143689  0  3.948656  0  0  -0.011202  -0.130388  0  3.91295  0
C  C52  1  0.48296033  0.06643792  0.50624026  1  0  0.07707  0  3.70509  0  0  0.083656  0  3.938615  0  0  0.084313  0  3.961442  0  0  0.010039  0.083093  0  3.923734  0
C  C53  1  0.51703907  0.93356059  0.49375602  1  0  0.076987  0  3.705169  0  0  0.083506  0  3.938728  0  0  0.084161  0  3.961558  0  0  0.009957  0.082945  0  3.923843  0
C  C54  1  0.92196290  0.92280197  0.32557208  1  0  0.662124  0  3.793191  0  0  0.609824  0  4.093595  0  0  0.64231  0  4.086279  0  0  0.239465  0.587561  0  4.098444  0
C  C55  1  0.07804549  0.07719932  0.67442235  1  0  0.662147  0  3.793156  0  0  0.609975  0  4.093427  0  0  0.642462  0  4.086109  0  0  0.239593  0.58771  0  4.098279  0
S  S56  1  0.71517148  0.24621509  0.90393050  1  0  1.36361  0  5.534545  0  0  1.25695  0  6.052085  0  0  1.305042  0  6.02814  0  0  0.551505  1.223565  0  6.067888  0
S  S57  1  0.28483241  0.75378622  0.09607160  1  0  1.363729  0  5.534325  0  0  1.257103  0  6.051837  0  0  1.305191  0  6.027899  0  0  0.551628  1.223715  0  6.067641  0
S  S58  1  0.56976775  0.31058538  0.46145936  1  0  1.357275  0  5.57095  0  0  1.250951  0  6.09136  0  0  1.298946  0  6.068171  0  0  0.544959  1.217974  0  6.106314  0
S  S59  1  0.43023311  0.68941314  0.53853960  1  0  1.357199  0  5.57101  0  0  1.250846  0  6.091418  0  0  1.298842  0  6.068234  0  0  0.544896  1.21787  0  6.106371  0
O  O60  1  0.35298490  0.80931932  0.82874814  1  0  -0.666962  0  2.034801  0  0  -0.625676  0  2.280135  0  0  -0.651617  0  2.27555  0  0  -0.364783  -0.60738  0  2.282463  0
O  O61  1  0.64702057  0.19068479  0.17125360  1  0  -0.666923  0  2.035032  0  0  -0.625621  0  2.280318  0  0  -0.651582  0  2.275773  0  0  -0.364709  -0.607325  0  2.28265  0
O  O62  1  0.56985702  0.65819996  0.86518548  1  0  -0.733306  0  2.037507  0  0  -0.683809  0  2.275805  0  0  -0.708114  0  2.263538  0  0  -0.362536  -0.667028  0  2.284031  0
O  O63  1  0.43014392  0.34180135  0.13481541  1  0  -0.733331  0  2.037485  0  0  -0.683854  0  2.275793  0  0  -0.708157  0  2.263525  0  0  -0.36256  -0.667073  0  2.284021  0
O  O64  1  0.76804543  0.32669392  0.01246386  1  0  -0.755713  0  2.120328  0  0  -0.708585  0  2.398764  0  0  -0.730544  0  2.384287  0  0  -0.383251  -0.692819  0  2.408356  0
O  O65  1  0.23195990  0.67330646  0.98753835  1  0  -0.755853  0  2.120093  0  0  -0.708732  0  2.398528  0  0  -0.730691  0  2.384053  0  0  -0.383367  -0.692965  0  2.408121  0
O  O66  1  0.82799485  0.28516132  0.82328111  1  0  -0.677587  0  2.030721  0  0  -0.612912  0  2.272579  0  0  -0.634874  0  2.257123  0  0  -0.318466  -0.597076  0  2.282831  0
O  O67  1  0.17200744  0.71483625  0.17672044  1  0  -0.677571  0  2.03078  0  0  -0.612901  0  2.272615  0  0  -0.634863  0  2.257158  0  0  -0.318453  -0.597064  0  2.282871  0
O  O68  1  0.50016394  0.24129990  0.85458054  1  0  -0.671577  0  2.001538  0  0  -0.607143  0  2.236827  0  0  -0.629955  0  2.224429  0  0  -0.317703  -0.591101  0  2.245075  0
O  O69  1  0.49983837  0.75869861  0.14542110  1  0  -0.671609  0  2.001591  0  0  -0.607189  0  2.236867  0  0  -0.63  0  2.224472  0  0  -0.317733  -0.591151  0  2.245127  0
O  O70  1  0.94215405  0.79930450  0.31547930  1  0  -0.532762  0  2.084081  0  0  -0.48005  0  2.303278  0  0  -0.501618  0  2.289271  0  0  -0.320895  -0.465092  0  2.312862  0
O  O71  1  0.05785277  0.20069587  0.68452146  1  0  -0.532719  0  2.084137  0  0  -0.480023  0  2.303291  0  0  -0.501591  0  2.289284  0  0  -0.320869  -0.465049  0  2.31284  0
O  O72  1  0.01749878  0.99407963  0.28335289  1  0  -0.557706  0  1.955014  0  0  -0.511174  0  2.168437  0  0  -0.532905  0  2.162971  0  0  -0.279141  -0.496138  0  2.172271  0
O  O73  1  0.98249339  0.00592263  0.71663863  1  0  -0.557787  0  1.954868  0  0  -0.5113  0  2.168251  0  0  -0.533032  0  2.162782  0  0  -0.279253  -0.496265  0  2.172084  0
O  O74  1  0.68936889  0.35151446  0.38586603  1  0  -0.742452  0  2.105039  0  0  -0.691896  0  2.379717  0  0  -0.713213  0  2.365019  0  0  -0.384843  -0.676864  0  2.389194  0
O  O75  1  0.31062621  0.64848874  0.61413342  1  0  -0.742392  0  2.104864  0  0  -0.691843  0  2.379557  0  0  -0.713161  0  2.364857  0  0  -0.38486  -0.676817  0  2.389038  0
O  O76  1  0.64846252  0.36433972  0.58092966  1  0  -0.674985  0  2.015756  0  0  -0.6113  0  2.255905  0  0  -0.633921  0  2.241576  0  0  -0.320598  -0.595221  0  2.26514  0
O  O77  1  0.35153685  0.63565880  0.41907076  1  0  -0.674919  0  2.015842  0  0  -0.611255  0  2.256016  0  0  -0.633873  0  2.241678  0  0  -0.320556  -0.595174  0  2.265247  0
O  O78  1  0.35825794  0.33246648  0.42358509  1  0  -0.652711  0  1.983306  0  0  -0.594496  0  2.225159  0  0  -0.615664  0  2.210314  0  0  -0.318589  -0.579543  0  2.23486  0
O  O79  1  0.64174299  0.66753389  0.57641322  1  0  -0.652696  0  1.983411  0  0  -0.59445  0  2.225244  0  0  -0.61562  0  2.210401  0  0  -0.318532  -0.579497  0  2.234946  0
O  O80  1  0.09617233  0.45998268  0.16499248  1  0  -0.897393  0  1.853373  0  0  -0.851988  0  2.038844  0  0  -0.870402  0  2.007068  0  0  -0.641952  -0.838701  0  2.061253  0
O  O81  1  0.90382711  0.54001771  0.83500729  1  0  -0.897385  0  1.853356  0  0  -0.851984  0  2.03884  0  0  -0.870398  0  2.007062  0  0  -0.641973  -0.838698  0  2.061247  0
O  O82  1  0.73478883  0.57020931  0.09244928  1  0  -0.88702  0  1.868082  0  0  -0.847146  0  2.072468  0  0  -0.864046  0  2.04075  0  0  -0.635948  -0.834969  0  2.093471  0
O  O83  1  0.26521060  0.42979108  0.90755131  1  0  -0.887052  0  1.868062  0  0  -0.847156  0  2.072457  0  0  -0.864056  0  2.040738  0  0  -0.635963  -0.83498  0  2.093464  0
O  O84  1  0.00067560  0.51167461  0.37953531  1  0  -0.9075  0  1.88177  0  0  -0.868713  0  2.082105  0  0  -0.885969  0  2.052716  0  0  -0.641458  -0.856332  0  2.102743  0
O  O85  1  0.99931946  0.48832765  0.62046487  1  0  -0.907346  0  1.881679  0  0  -0.868546  0  2.081993  0  0  -0.885801  0  2.052609  0  0  -0.641381  -0.856165  0  2.102627  0
O  O86  1  0.60548231  0.57084456  0.28678575  1  0  -0.911891  0  1.902228  0  0  -0.874846  0  2.101458  0  0  -0.892359  0  2.069739  0  0  -0.647733  -0.86239  0  2.123587  0
O  O87  1  0.39451410  0.42915396  0.71321427  1  0  -0.911838  0  1.9023  0  0  -0.874757  0  2.101593  0  0  -0.892267  0  2.069877  0  0  -0.647752  -0.862304  0  2.123727  0
O  O88  1  0.03230829  0.24846662  0.27043619  1  0  -0.918811  0  1.865739  0  0  -0.878148  0  2.054564  0  0  -0.897016  0  2.024306  0  0  -0.648554  -0.86496  0  2.076244  0
O  O89  1  0.96769110  0.75153283  0.72956515  1  0  -0.918834  0  1.865786  0  0  -0.878144  0  2.054594  0  0  -0.897018  0  2.024341  0  0  -0.64856  -0.864963  0  2.076288  0
