# generated using pymatgen
data_MnH16C26(NO2)2
_symmetry_space_group_name_H-M   'P 1'
_cell_length_a   7.07984759
_cell_length_b   11.69003373
_cell_length_c   14.48531383
_cell_angle_alpha   113.81296639
_cell_angle_beta   103.05523402
_cell_angle_gamma   89.95962965
_symmetry_Int_Tables_number   1
_chemical_formula_structural   MnH16C26(NO2)2
_chemical_formula_sum   'Mn2 H32 C52 N4 O8'
_cell_volume   1062.92474726
_cell_formula_units_Z   2
loop_
 _symmetry_equiv_pos_site_id
 _symmetry_equiv_pos_as_xyz
  1  'x, y, z'
loop_
 _atom_site_type_symbol
 _atom_site_label
 _atom_site_symmetry_multiplicity
 _atom_site_fract_x
 _atom_site_fract_y
 _atom_site_fract_z
 _atom_site_occupancy
 _atom_site_hle17_ddec_charge
 _atom_site_hle17_ddec_spin_density
 _atom_site_hle17_ddec_sum_bond_order
 _atom_site_hle17_magmom
 _atom_site_hse06_10hf_ddec_charge
 _atom_site_hse06_10hf_ddec_spin_density
 _atom_site_hse06_10hf_ddec_sum_bond_order
 _atom_site_hse06_10hf_magmom
 _atom_site_hse06_ddec_charge
 _atom_site_hse06_ddec_spin_density
 _atom_site_hse06_ddec_sum_bond_order
 _atom_site_hse06_magmom
 _atom_site_pbe_cm5_charge
 _atom_site_pbe_ddec_charge
 _atom_site_pbe_ddec_spin_density
 _atom_site_pbe_ddec_sum_bond_order
 _atom_site_pbe_magmom
Mn  Mn0  1  0.74996401  0.61942859  0.00004078  1  1.157142  4.770426  1.88912  4.656  1.001982  4.660113  2.41032  4.48  1.051278  4.733077  2.336263  4.569  0.63647  0.969646  4.560071  2.464629  4.367
Mn  Mn1  1  0.25006229  0.38058504  0.99999719  1  1.157426  -4.770496  1.888687  -4.656  1.002114  -4.660305  2.40988  -4.48  1.051442  -4.733184  2.335833  -4.57  0.636545  0.969728  -4.560367  2.464178  -4.367
H  H2  1  0.04670117  0.79826679  0.21830257  1  0.084252  -0.000209  0.958001  0.0  0.08995  -2.2e-05  1.025303  0.0  0.091704  -0.0001  1.024628  0.0  0.118999  0.088954  4.3e-05  1.025588  0.0
H  H3  1  0.45333499  0.57993946  0.78139314  1  0.084008  -0.000211  0.957462  0.0  0.089639  -2.7e-05  1.024879  0.0  0.091301  -0.000105  1.024286  0.0  0.118603  0.088703  3.6e-05  1.025115  0.0
H  H4  1  0.95327399  0.20177220  0.78171593  1  0.084029  0.000209  0.957986  0.0  0.08988  2.2e-05  1.025166  0.0  0.091636  0.000101  1.024487  0.0  0.118944  0.088875  -4.3e-05  1.025451  0.0
H  H5  1  0.54670918  0.42004804  0.21858994  1  0.084039  0.000219  0.95697  0.0  0.08965  2.6e-05  1.02445  0.0  0.09131  0.000104  1.023859  0.0  0.118595  0.088702  -3.8e-05  1.02468  0.0
H  H6  1  0.16902454  0.02724286  0.32100853  1  0.09983  0.00024  0.952381  0.0  0.11184  0.000323  1.007246  0.0  0.113692  0.00026  1.008646  0.0  0.105237  0.111107  0.000371  1.005709  0.0
H  H7  1  0.33112473  0.70624343  0.67869058  1  0.099665  0.000241  0.95261  0.0  0.111631  0.000324  1.007645  0.0  0.113488  0.00026  1.009044  0.0  0.104979  0.110894  0.000372  1.006113  0.0
H  H8  1  0.83095922  0.97279525  0.67899407  1  0.09991  -0.000238  0.952469  0.0  0.111856  -0.000324  1.007427  0.0  0.113705  -0.000259  1.008833  0.0  0.105195  0.11112  -0.00037  1.005891  0.0
H  H9  1  0.66891729  0.29372998  0.32128350  1  0.099832  -0.000242  0.952639  0.0  0.111729  -0.000324  1.007716  0.0  0.113581  -0.00026  1.009123  0.0  0.105028  0.110986  -0.00037  1.006182  0.0
H  H10  1  0.05399092  0.17992993  0.24271720  1  0.091056  -4.8e-05  0.973151  0.0  0.103073  1.8e-05  1.036506  0.0  0.104807  0.0  1.035914  0.0  0.102992  0.102048  3.7e-05  1.036779  0.0
H  H11  1  0.44581110  0.93720532  0.75712410  1  0.091031  -4.5e-05  0.973244  0.0  0.10263  1.8e-05  1.037052  0.0  0.104377  -0.0  1.036422  0.0  0.10284  0.101603  3.7e-05  1.037325  0.0
H  H12  1  0.94598773  0.82007442  0.75724824  1  0.091128  5.5e-05  0.972763  0.0  0.103013  -1.8e-05  1.03628  0.0  0.10476  -0.0  1.035662  0.0  0.102996  0.101988  -3.7e-05  1.03657  0.0
H  H13  1  0.55420870  0.06277462  0.24285380  1  0.091078  5.4e-05  0.97322  0.0  0.102686  -1.7e-05  1.037036  0.0  0.104441  0.0  1.036384  0.0  0.102906  0.101657  -3.7e-05  1.037314  0.0
H  H14  1  0.86393391  0.21443383  0.08591951  1  0.115644  0.000342  0.949544  0.0  0.124314  0.000392  1.012899  0.0  0.12692  0.000377  1.012609  0.0  0.107659  0.122493  0.000393  1.013131  0.0
H  H15  1  0.63584217  0.12844903  0.91391899  1  0.115257  0.00034  0.949464  0.0  0.124105  0.000392  1.012734  0.0  0.126697  0.000378  1.012414  0.0  0.107655  0.122326  0.000394  1.012982  0.0
H  H16  1  0.13606545  0.78556395  0.91405574  1  0.115603  -0.000336  0.949537  0.0  0.124306  -0.000391  1.012852  0.0  0.126911  -0.000377  1.012566  0.0  0.10766  0.122495  -0.000394  1.013104  0.0
H  H17  1  0.36412570  0.87153269  0.08605856  1  0.115504  -0.00034  0.949508  0.0  0.124299  -0.000392  1.012772  0.0  0.12689  -0.000377  1.012455  0.0  0.107716  0.122523  -0.000394  1.013029  0.0
H  H18  1  0.78219467  0.64308975  0.29128983  1  0.096558  -0.000106  0.977496  0.0  0.103387  -0.000181  1.044285  0.0  0.106093  -0.000202  1.043497  0.0  0.100946  0.101133  -0.000137  1.045314  0.0
H  H19  1  0.71784972  0.35181452  0.70859503  1  0.096351  -0.000103  0.977415  0.0  0.102817  -0.000181  1.044533  0.0  0.10559  -0.000202  1.043668  0.0  0.100884  0.100557  -0.000136  1.045547  0.0
H  H20  1  0.21781207  0.35690116  0.70878478  1  0.096636  0.000113  0.977622  0.0  0.103548  0.000182  1.044316  0.0  0.106258  0.000203  1.04353  0.0  0.101044  0.101294  0.000139  1.04535  0.0
H  H21  1  0.28217532  0.64821810  0.29138412  1  0.096344  0.000111  0.977783  0.0  0.102785  0.000182  1.044954  0.0  0.105559  0.000202  1.044087  0.0  0.100785  0.100513  0.000138  1.04599  0.0
H  H22  1  0.79472661  0.64422711  0.46180826  1  0.086539  -2.4e-05  0.965696  0.0  0.099725  2.6e-05  1.022077  0.0  0.102972  1e-05  1.020409  0.0  0.097429  0.097292  4.8e-05  1.023641  0.0
H  H23  1  0.70500864  0.18233603  0.53807972  1  0.086762  -2.7e-05  0.966197  0.0  0.100122  2.6e-05  1.022299  0.0  0.103296  1e-05  1.020727  0.0  0.097602  0.097713  4.8e-05  1.023822  0.0
H  H24  1  0.20534091  0.35573476  0.53826704  1  0.086448  2.3e-05  0.965553  0.0  0.099713  -2.6e-05  1.021898  0.0  0.10293  -1e-05  1.02026  0.0  0.097272  0.097269  -4.6e-05  1.023466  0.0
H  H25  1  0.29499059  0.81768903  0.46189479  1  0.086655  2.5e-05  0.966184  0.0  0.100044  -2.6e-05  1.022263  0.0  0.103223  -1e-05  1.020699  0.0  0.097538  0.097658  -4.6e-05  1.023757  0.0
H  H26  1  0.19943023  0.36061103  0.40528515  1  0.083414  1e-06  0.968632  0.0  0.09679  1.4e-05  1.025376  0.0  0.100218  2e-05  1.023212  0.0  0.096938  0.094198  -7e-06  1.027319  0.0
H  H27  1  0.30108536  0.95551975  0.59489895  1  0.083516  -3e-06  0.968353  0.0  0.097059  1.4e-05  1.024879  0.0  0.100418  2e-05  1.022792  0.0  0.096938  0.094458  -7e-06  1.026822  0.0
H  H28  1  0.80051942  0.63930003  0.59471626  1  0.083474  -5e-06  0.968312  0.0  0.09696  -1.4e-05  1.024955  0.0  0.100396  -2e-05  1.022777  0.0  0.09696  0.094364  9e-06  1.026901  0.0
H  H29  1  0.69884877  0.04453437  0.40506197  1  0.083597  -8e-06  0.968359  0.0  0.097319  -1.4e-05  1.024699  0.0  0.100676  -2e-05  1.022615  0.0  0.096998  0.09477  9e-06  1.026582  0.0
H  H30  1  0.17093875  0.35577667  0.23112195  1  0.09183  0.000335  0.987712  0.0  0.098723  0.00038  1.056229  0.0  0.102068  0.000375  1.054714  0.0  0.100743  0.095881  0.000376  1.05777  0.0
H  H31  1  0.32958143  0.12504502  0.76899963  1  0.092484  0.00034  0.98753  0.0  0.098659  0.000381  1.056725  0.0  0.102031  0.000377  1.055191  0.0  0.10067  0.095739  0.000378  1.058356  0.0
H  H32  1  0.82904842  0.64419930  0.76890142  1  0.091804  -0.000334  0.987584  0.0  0.098614  -0.00038  1.056184  0.0  0.101944  -0.000376  1.054729  0.0  0.100709  0.095774  -0.000377  1.057736  0.0
H  H33  1  0.67041517  0.87499130  0.23098035  1  0.092454  -0.00033  0.987435  0.0  0.09876  -0.000381  1.056499  0.0  0.102128  -0.000377  1.054956  0.0  0.100696  0.095825  -0.000378  1.058176  0.0
C  C34  1  0.00173935  0.86791552  0.18765260  1  0.142491  0.001608  3.685109  0.002  0.112721  0.00367  3.940084  0.003  0.119587  0.002924  3.957428  0.003  0.062741  0.108548  0.004278  3.927463  0.003
C  C35  1  0.49811349  0.68025400  0.81214157  1  0.143305  0.001584  3.684279  0.002  0.113871  0.003624  3.939339  0.003  0.120829  0.002881  3.956674  0.002  0.063757  0.109637  0.004228  3.926743  0.003
C  C36  1  0.99826353  0.13210567  0.81235902  1  0.142767  -0.001614  3.685643  -0.002  0.112902  -0.003663  3.940563  -0.003  0.119773  -0.002919  3.957902  -0.003  0.062746  0.108723  -0.004272  3.927932  -0.003
C  C37  1  0.50190703  0.31972123  0.18784039  1  0.143427  -0.001617  3.684188  -0.002  0.113968  -0.003629  3.939305  -0.003  0.120933  -0.002886  3.956654  -0.002  0.06371  0.109739  -0.004235  3.926682  -0.003
C  C38  1  0.06808505  0.99637155  0.24452286  1  -0.128297  -0.000236  3.752443  0.0  -0.138659  -4.5e-05  4.002251  0.0  -0.146451  -0.000316  4.026057  0.0  -0.087653  -0.132935  0.000202  3.98443  0.0
C  C39  1  0.43174108  0.75184557  0.75527094  1  -0.128179  -0.000232  3.753008  0.0  -0.138448  -2.5e-05  4.002384  0.0  -0.146238  -0.000292  4.026134  0.0  -0.087472  -0.132724  0.000221  3.984606  0.0
C  C40  1  0.93189814  0.00365340  0.75547606  1  -0.128523  0.000244  3.752896  0.0  -0.138858  4.4e-05  4.002739  0.0  -0.146648  0.000314  4.026534  0.0  -0.087572  -0.133136  -0.000202  3.984925  0.0
C  C41  1  0.56829148  0.24813251  0.24471053  1  -0.128352  0.000246  3.753178  0.0  -0.138532  2.9e-05  4.002517  0.0  -0.146329  0.000295  4.026272  0.0  -0.087346  -0.13281  -0.000216  3.984733  0.0
C  C42  1  0.00587809  0.07987998  0.20111866  1  -0.056914  0.00139  3.713897  0.001  -0.081375  0.002782  3.959774  0.002  -0.079433  0.002314  3.979773  0.002  -0.068771  -0.08216  0.003247  3.945279  0.003
C  C43  1  0.49379170  0.87878023  0.79875232  1  -0.058157  0.001372  3.714536  0.001  -0.081699  0.002749  3.961072  0.002  -0.079732  0.002283  3.981074  0.002  -0.068945  -0.082488  0.003209  3.946564  0.002
C  C44  1  0.99411182  0.92013186  0.79886498  1  -0.057012  -0.001416  3.713611  -0.001  -0.081277  -0.002779  3.959471  -0.002  -0.079318  -0.00231  3.979467  -0.002  -0.068844  -0.082078  -0.003243  3.944993  -0.003
C  C45  1  0.50622319  0.12119596  0.20122104  1  -0.058233  -0.001399  3.714528  -0.001  -0.08177  -0.002757  3.960994  -0.002  -0.0798  -0.002289  3.980998  -0.002  -0.069077  -0.082574  -0.003217  3.946505  -0.002
C  C46  1  0.87872285  0.03537976  0.10066590  1  0.017748  -0.000191  3.800992  0.0  0.035062  3.2e-05  4.030869  0.0  0.032621  -0.000185  4.055377  0.0  -0.002414  0.036605  0.000237  4.014273  0.0
C  C47  1  0.62089695  0.93467430  0.89921784  1  0.019596  -0.000189  3.801121  0.0  0.035016  4.2e-05  4.033576  0.0  0.032527  -0.000174  4.058165  0.0  -0.002565  0.036589  0.000244  4.016939  0.0
C  C48  1  0.12128013  0.96461331  0.89931443  1  0.018089  0.000218  3.800907  0.0  0.035229  -3.3e-05  4.031014  0.0  0.03276  0.000184  4.05557  0.0  -0.002321  0.036773  -0.000237  4.01442  0.0
C  C49  1  0.37910704  0.06530655  0.10075998  1  0.019837  0.000207  3.80112  0.0  0.035181  -3.8e-05  4.03361  0.0  0.032698  0.000174  4.058194  0.0  -0.002755  0.036742  -0.000242  4.016978  0.0
C  C50  1  0.81655386  0.90461919  0.05066163  1  0.130549  0.00093  3.750906  0.001  0.125314  0.002551  3.986128  0.002  0.129537  0.002027  4.006816  0.002  0.125215  0.122316  0.002926  3.972408  0.003
C  C51  1  0.68313943  0.85389194  0.94918639  1  0.129774  0.000919  3.74964  0.001  0.124661  0.002527  3.986445  0.002  0.128881  0.002006  4.007178  0.002  0.125583  0.121674  0.002903  3.972696  0.003
C  C52  1  0.18343997  0.09537104  0.94931882  1  0.130593  -0.000943  3.750658  -0.001  0.125334  -0.002548  3.98603  -0.002  0.12956  -0.002028  4.006729  -0.002  0.125353  0.122338  -0.002927  3.972295  -0.003
C  C53  1  0.31687628  0.14609923  0.05080647  1  0.129463  -0.00093  3.749517  -0.001  0.124433  -0.002534  3.986282  -0.002  0.128654  -0.00201  4.007028  -0.002  0.125499  0.121448  -0.002911  3.97252  -0.003
C  C54  1  0.81224183  0.11450239  0.04837936  1  -0.089054  0.000123  3.696399  0.0  -0.113426  0.000169  3.95477  0.0  -0.116435  0.000154  3.977165  0.0  -0.081664  -0.111368  0.000187  3.93968  0.0
C  C55  1  0.68748950  0.06605583  0.95147390  1  -0.087647  0.000104  3.695704  0.0  -0.111515  0.000154  3.954281  0.0  -0.114466  0.000136  3.976742  0.0  -0.080787  -0.109552  0.000176  3.939163  0.0
C  C56  1  0.18775115  0.88549161  0.95159602  1  -0.088824  -0.000148  3.696157  0.0  -0.113149  -0.000168  3.954507  0.0  -0.116143  -0.000153  3.976906  0.0  -0.081553  -0.111116  -0.000186  3.939469  0.0
C  C57  1  0.31250534  0.93393157  0.04850850  1  -0.088237  -9.4e-05  3.695907  0.0  -0.112017  -0.000155  3.954436  0.0  -0.114975  -0.000137  3.976891  0.0  -0.080836  -0.110039  -0.000177  3.939346  0.0
C  C58  1  0.95657879  0.49255964  0.14182780  1  0.671622  -0.002451  3.876075  -0.002  0.615975  -0.003558  4.175392  -0.003  0.653658  -0.002536  4.164618  -0.002  0.223215  0.589331  -0.004426  4.182398  -0.004
C  C59  1  0.54363272  0.35096938  0.85820222  1  0.670397  -0.002444  3.880548  -0.002  0.614892  -0.003526  4.179309  -0.003  0.652621  -0.002511  4.168524  -0.002  0.222511  0.588227  -0.004385  4.186301  -0.004
C  C60  1  0.04341383  0.50743321  0.85821482  1  0.672092  0.002515  3.875639  0.002  0.616532  0.003597  4.174779  0.003  0.654232  0.002566  4.163969  0.002  0.22347  0.589877  0.004462  4.18182  0.004
C  C61  1  0.45638659  0.64903589  0.14179703  1  0.670392  0.002503  3.880626  0.002  0.614756  0.003578  4.179569  0.003  0.652516  0.002549  4.168757  0.002  0.222603  0.588079  0.004439  4.186588  0.004
C  C62  1  0.97229837  0.49707491  0.24834019  1  -0.064566  0.001964  3.745623  0.002  -0.043145  0.001176  3.981466  0.001  -0.049497  0.00124  3.999966  0.001  -0.01805  -0.041079  0.001214  3.97197  0.001
C  C63  1  0.52806813  0.24892214  0.75171386  1  -0.06554  0.002006  3.746237  0.002  -0.0442  0.001163  3.981852  0.001  -0.050603  0.001222  4.000377  0.001  -0.017912  -0.042116  0.001203  3.972347  0.001
C  C64  1  0.02770380  0.50292358  0.75171362  1  -0.064714  -0.002  3.745713  -0.002  -0.0433  -0.001175  3.981549  -0.001  -0.049644  -0.001246  4.00002  -0.001  -0.018142  -0.041257  -0.001201  3.972095  -0.001
C  C65  1  0.47195080  0.75110858  0.24826676  1  -0.065389  -0.001975  3.746142  -0.002  -0.043916  -0.001163  3.981661  -0.001  -0.050337  -0.001225  4.000172  -0.001  -0.01777  -0.041833  -0.00119  3.972164  -0.001
C  C66  1  0.87114915  0.57994001  0.31627197  1  -0.062328  -0.001945  3.744975  -0.002  -0.084755  -0.002174  3.992726  -0.002  -0.083175  -0.001757  4.011292  -0.001  -0.084823  -0.086181  -0.002732  3.981813  -0.002
C  C67  1  0.62902493  0.26372168  0.68372001  1  -0.061645  -0.001998  3.744606  -0.002  -0.083802  -0.002155  3.992481  -0.002  -0.082238  -0.001742  4.010955  -0.001  -0.084662  -0.085223  -0.002708  3.981635  -0.002
C  C68  1  0.12886474  0.42004060  0.68379041  1  -0.062527  0.00197  3.745519  0.002  -0.085039  0.002189  3.993292  0.002  -0.083462  0.001767  4.011844  0.001  -0.084953  -0.086456  0.002747  3.982382  0.002
C  C69  1  0.37096616  0.73630712  0.31625619  1  -0.061577  0.001958  3.744138  0.002  -0.083764  0.002172  3.992036  0.002  -0.082187  0.001751  4.010501  0.001  -0.084472  -0.085185  0.002727  3.981204  0.002
C  C70  1  0.88035750  0.58029507  0.41328783  1  -0.125156  0.001194  3.74483  0.001  -0.142016  0.001085  3.990047  0.001  -0.146295  0.000935  4.010247  0.001  -0.095273  -0.139537  0.001495  3.977479  0.001
C  C71  1  0.61963676  0.16700984  0.58668228  1  -0.125751  0.001242  3.745165  0.001  -0.142992  0.001072  3.990533  0.001  -0.147207  0.000925  4.010779  0.001  -0.0957  -0.140533  0.001482  3.977949  0.001
C  C72  1  0.11967279  0.41966019  0.58677083  1  -0.124691  -0.001223  3.745485  -0.001  -0.141694  -0.001085  3.990589  -0.001  -0.145929  -0.000936  4.010827  -0.001  -0.094894  -0.139204  -0.001492  3.977995  -0.001
C  C73  1  0.38033897  0.83304151  0.41329270  1  -0.125573  -0.001218  3.745368  -0.001  -0.142837  -0.001072  3.990765  -0.001  -0.147062  -0.000926  4.011018  -0.001  -0.095782  -0.140407  -0.001477  3.978154  -0.001
C  C74  1  0.99574078  0.50043980  0.44860386  1  0.046819  -0.001368  3.78815  -0.001  0.058449  -0.00145  4.025528  -0.001  0.060445  -0.001224  4.048399  -0.001  -0.014192  0.056403  -0.001666  4.011087  -0.001
C  C75  1  0.50436888  0.05189384  0.55142581  1  0.046857  -0.001391  3.788322  -0.001  0.058809  -0.00143  4.02531  -0.001  0.060757  -0.001207  4.048234  -0.001  -0.01431  0.056782  -0.001636  4.01082  -0.001
C  C76  1  0.00426146  0.49948352  0.55142258  1  0.046313  0.001393  3.788409  0.001  0.058272  0.001464  4.02556  0.001  0.0602  0.00123  4.04849  0.001  -0.014286  0.056259  0.001689  4.011086  0.001
C  C77  1  0.49558003  0.94815277  0.44854119  1  0.046409  0.001371  3.789063  0.001  0.058424  0.001444  4.026048  0.001  0.060365  0.001216  4.048987  0.001  -0.0143  0.05645  0.001665  4.011505  0.001
C  C78  1  0.10309931  0.42151988  0.38107424  1  -0.129567  0.001101  3.764472  0.001  -0.147742  0.000602  4.014393  0.001  -0.15171  0.000825  4.033839  0.001  -0.098548  -0.145575  0.000283  4.002594  0.0
C  C79  1  0.39737488  0.04056898  0.61905662  1  -0.129626  0.001145  3.764384  0.001  -0.148035  0.000594  4.014015  0.001  -0.151932  0.000815  4.033497  0.001  -0.098191  -0.145877  0.000276  4.002191  0.0
C  C80  1  0.89689148  0.57841379  0.61894535  1  -0.129527  -0.00108  3.764354  -0.001  -0.147883  -0.000598  4.014189  -0.001  -0.151842  -0.000825  4.03366  -0.001  -0.098557  -0.14572  -0.000274  4.002385  0.0
C  C81  1  0.60258028  0.95948048  0.38090856  1  -0.129706  -0.001061  3.764025  -0.001  -0.148299  -0.00059  4.013719  -0.001  -0.152197  -0.000816  4.033195  -0.001  -0.098226  -0.14618  -0.000267  4.001853  0.0
C  C82  1  0.08924944  0.41849168  0.28282397  1  -0.077142  -0.00059  3.768206  -0.001  -0.101337  -0.00013  4.020721  0.0  -0.099668  -0.000317  4.038289  0.0  -0.090565  -0.102866  0.000124  4.010901  0.0
C  C83  1  0.41123765  0.13589324  0.71728275  1  -0.076652  -0.000634  3.76719  -0.001  -0.100262  -0.000115  4.019603  0.0  -0.098601  -0.000303  4.037108  0.0  -0.090434  -0.101731  0.000144  4.009821  0.0
C  C84  1  0.91074904  0.58148243  0.71719936  1  -0.077094  0.000585  3.768382  0.001  -0.101177  0.000139  4.020887  0.0  -0.099517  0.000325  4.03844  0.0  -0.090581  -0.102706  -0.000116  4.011081  0.0
C  C85  1  0.58874141  0.86413272  0.28269119  1  -0.076622  0.000561  3.767215  0.001  -0.100402  0.000128  4.019691  0.0  -0.098712  0.00031  4.037194  0.0  -0.09055  -0.101883  -0.00013  4.009932  0.0
N  N86  1  0.87802189  0.82384848  0.09419467  1  -0.321506  0.025579  3.217992  0.015  -0.263158  0.029989  3.487142  0.017  -0.278817  0.02731  3.499921  0.015  -0.301337  -0.252123  0.032156  3.478681  0.019
N  N87  1  0.62168050  0.72959608  0.90564329  1  -0.320747  0.025488  3.21386  0.015  -0.263086  0.029953  3.483921  0.017  -0.278748  0.027277  3.496695  0.015  -0.301387  -0.252035  0.032115  3.475435  0.019
N  N88  1  0.12197712  0.17615675  0.90580301  1  -0.321496  -0.025567  3.218355  -0.015  -0.263166  -0.029985  3.487588  -0.017  -0.278832  -0.027303  3.500376  -0.015  -0.301329  -0.252128  -0.032146  3.479109  -0.019
N  N89  1  0.37833795  0.27039415  0.09435371  1  -0.320947  -0.025483  3.214368  -0.015  -0.26329  -0.029954  3.484446  -0.017  -0.278939  -0.027275  3.497147  -0.015  -0.301471  -0.252239  -0.032114  3.475953  -0.019
O  O90  1  0.88887809  0.58692125  0.12707600  1  -0.646233  0.02871  2.078735  0.012  -0.578935  0.028952  2.358634  0.006  -0.609938  0.028433  2.342782  0.006  -0.311302  -0.555062  0.029265  2.368577  0.007
O  O91  1  0.61122488  0.46003303  0.87289961  1  -0.645572  0.028702  2.081165  0.012  -0.578153  0.028892  2.360661  0.006  -0.609113  0.028382  2.344696  0.006  -0.310911  -0.554302  0.029196  2.370655  0.007
O  O92  1  0.11106503  0.41308935  0.87297660  1  -0.646206  -0.028709  2.079355  -0.012  -0.579032  -0.028933  2.359447  -0.006  -0.610036  -0.028419  2.343593  -0.006  -0.311265  -0.555149  -0.029236  2.369382  -0.007
O  O93  1  0.38883724  0.53998645  0.12709731  1  -0.645619  -0.028711  2.082128  -0.012  -0.578075  -0.028886  2.361647  -0.006  -0.609036  -0.028376  2.345654  -0.006  -0.310942  -0.554201  -0.02918  2.371618  -0.007
O  O94  1  0.00985065  0.39740031  0.07504204  1  -0.637294  -0.020129  2.035686  -0.007  -0.582454  -0.023803  2.308053  -0.007  -0.609289  -0.022154  2.291987  -0.005  -0.306516  -0.562912  -0.026067  2.31907  -0.009
O  O95  1  0.49036285  0.32269581  0.92500015  1  -0.636993  -0.020173  2.037049  -0.007  -0.581988  -0.023849  2.309152  -0.007  -0.608809  -0.022196  2.292963  -0.005  -0.306314  -0.562423  -0.026117  2.320174  -0.009
O  O96  1  0.99013325  0.60263013  0.92500846  1  -0.637516  0.020113  2.034908  0.007  -0.582868  0.023798  2.307512  0.007  -0.609708  0.02215  2.291423  0.005  -0.306667  -0.563309  0.026062  2.318554  0.009
O  O97  1  0.50966625  0.67731613  0.07497890  1  -0.63689  0.02015  2.03627  0.007  -0.581997  0.023834  2.308624  0.007  -0.608846  0.022178  2.292452  0.005  -0.306387  -0.562413  0.026106  2.319657  0.009
