# generated using pymatgen
data_CuH12C14NClO4
_symmetry_space_group_name_H-M   'P 1'
_cell_length_a   7.77813426
_cell_length_b   7.91598407
_cell_length_c   13.55351232
_cell_angle_alpha   91.21301776
_cell_angle_beta   103.65126851
_cell_angle_gamma   118.11985896
_symmetry_Int_Tables_number   1
_chemical_formula_structural   CuH12C14NClO4
_chemical_formula_sum   'Cu2 H24 C28 N2 Cl2 O8'
_cell_volume   706.62970816
_cell_formula_units_Z   2
loop_
 _symmetry_equiv_pos_site_id
 _symmetry_equiv_pos_as_xyz
  1  'x, y, z'
loop_
 _atom_site_type_symbol
 _atom_site_label
 _atom_site_symmetry_multiplicity
 _atom_site_fract_x
 _atom_site_fract_y
 _atom_site_fract_z
 _atom_site_occupancy
 _atom_site_hle17_ddec_charge
 _atom_site_hle17_ddec_spin_density
 _atom_site_hle17_ddec_sum_bond_order
 _atom_site_hle17_magmom
 _atom_site_hse06_10hf_ddec_charge
 _atom_site_hse06_10hf_ddec_spin_density
 _atom_site_hse06_10hf_ddec_sum_bond_order
 _atom_site_hse06_10hf_magmom
 _atom_site_hse06_ddec_charge
 _atom_site_hse06_ddec_spin_density
 _atom_site_hse06_ddec_sum_bond_order
 _atom_site_hse06_magmom
 _atom_site_pbe_cm5_charge
 _atom_site_pbe_ddec_charge
 _atom_site_pbe_ddec_spin_density
 _atom_site_pbe_ddec_sum_bond_order
 _atom_site_pbe_magmom
Cu  Cu0  1  0.70022174  0.43262482  0.37524921  1  0.886057  -0.375457  1.842331  -0.283  0.885795  -0.698928  2.240572  -0.569  0.993858  -0.845295  2.159628  -0.706  0.703093  0.801532  -0.310389  2.308506  -0.251
Cu  Cu1  1  0.54923642  0.69727653  0.45305419  1  0.82532  0.36001  1.856415  0.265  0.809954  0.675742  2.268102  0.538  0.926123  0.820733  2.178039  0.671  0.699956  0.722983  0.300776  2.338505  0.239
H  H2  1  0.73507041  0.48954024  0.64199986  1  0.058701  -0.000185  0.928282  0.0  0.065223  -0.00042  0.992518  0.0  0.065449  -0.00044  0.99117  0.0  0.099033  0.06546  -0.000177  0.993418  0.0
H  H3  1  0.19931875  0.05431334  0.88370078  1  0.094792  -3.1e-05  0.963736  0.0  0.102458  -4.2e-05  1.031694  0.0  0.105356  -3.1e-05  1.030312  0.0  0.094234  0.100472  -2.4e-05  1.032576  0.0
H  H4  1  0.38305074  0.30131779  0.78230042  1  0.085852  3e-06  0.946574  0.0  0.095153  -1e-06  1.009093  0.0  0.097941  -1e-06  1.007865  0.0  0.09618  0.093097  -1e-06  1.010259  0.0
H  H5  1  0.32186531  0.20527723  0.59423956  1  0.096721  9e-06  0.955686  0.0  0.108055  3e-05  1.015756  0.0  0.110539  2.7e-05  1.014106  0.0  0.101839  0.106019  1.6e-05  1.017333  0.0
H  H6  1  0.06836890  0.86909917  0.51040709  1  0.098814  4.9e-05  0.941756  0.0  0.108453  8.5e-05  1.004414  0.0  0.110987  7.8e-05  1.002881  0.0  0.104292  0.106346  4.5e-05  1.006109  0.0
H  H7  1  0.31993420  0.46479166  0.18410435  1  0.059688  0.001046  0.933914  0.001  0.066373  0.001287  0.998641  0.002  0.066811  0.001069  0.997121  0.001  0.098429  0.066144  0.000675  1.000063  0.001
H  H8  1  0.68878981  0.69827110  0.94099890  1  0.091378  2.6e-05  0.987412  0.0  0.097339  2.4e-05  1.05842  0.0  0.100307  2.1e-05  1.057015  0.0  0.088564  0.095303  1.2e-05  1.059306  0.0
H  H9  1  0.02478106  0.97048704  0.03839327  1  0.083998  -7e-06  0.944739  0.0  0.095294  -1e-05  1.005261  0.0  0.098246  -9e-06  1.003637  0.0  0.096344  0.093115  -5e-06  1.006671  0.0
H  H10  1  0.09034945  0.07604071  0.22565987  1  0.089923  -7e-06  0.95904  0.0  0.101337  -1.1e-05  1.019548  0.0  0.104115  -8e-06  1.017557  0.0  0.099324  0.099151  -6e-06  1.021262  0.0
H  H11  1  0.82468274  0.90320907  0.31235415  1  0.096798  -9.3e-05  0.948951  0.0  0.10223  -0.00017  1.020487  0.0  0.104839  -0.000189  1.018141  0.0  0.101239  0.100039  -7.7e-05  1.022795  0.0
H  H12  1  0.98105113  0.59245581  0.25171381  1  0.084313  -0.000406  0.958936  -0.001  0.089624  -0.000503  1.028127  -0.001  0.092226  -0.000382  1.024909  -0.001  0.11752  0.087104  -0.000285  1.031144  -0.001
H  H13  1  0.99455240  0.50365686  0.07932080  1  0.113884  -0.000109  0.971376  0.0  0.118787  -0.000207  1.040356  0.0  0.123326  -0.000185  1.038046  0.0  0.10365  0.115135  -0.00011  1.042517  0.0
H  H14  1  0.41598234  0.98307008  0.04427404  1  0.111552  -0.000114  0.949283  0.0  0.12249  -0.000242  1.008917  0.0  0.126487  -0.000202  1.006637  0.0  0.108958  0.119246  -0.000135  1.011159  0.0
H  H15  1  0.42603217  0.09683255  0.21617501  1  0.090102  -0.000506  0.976392  -0.001  0.095487  -0.000714  1.044579  -0.001  0.09824  -0.000573  1.04177  -0.001  0.117966  0.092914  -0.000399  1.047054  -0.001
H  H16  1  0.83959579  0.28876710  0.91695478  1  0.089462  0.000134  0.960112  0.0  0.100205  1e-05  1.024456  0.0  0.103552  5e-06  1.022368  0.0  0.096569  0.097559  5e-06  1.026402  0.0
H  H17  1  0.46642552  0.89618887  0.91294613  1  0.089553  -0.00015  0.954775  0.0  0.101071  -2.4e-05  1.01666  0.0  0.103926  -1.9e-05  1.015033  0.0  0.102359  0.098858  -1.1e-05  1.018202  0.0
H  H18  1  0.82525342  0.21475321  0.75554584  1  0.113586  9.4e-05  0.959875  0.0  0.121477  0.000204  1.023799  0.0  0.125973  0.000189  1.021238  0.0  0.106816  0.117828  0.000105  1.026212  0.0
H  H19  1  0.79969484  0.07951035  0.58544821  1  0.090794  0.000458  0.952825  0.001  0.098301  0.000627  1.017346  0.001  0.100819  0.000495  1.01518  0.001  0.120689  0.09574  0.000345  1.019701  0.001
H  H20  1  0.34021075  0.53517719  0.60275590  1  0.087391  0.000462  0.959963  0.001  0.093196  0.000662  1.029842  0.001  0.096204  0.000536  1.026139  0.001  0.119509  0.090318  0.000361  1.033167  0.001
H  H21  1  0.34355039  0.64797974  0.77484376  1  0.114254  0.00013  0.951467  0.0  0.121462  0.000292  1.017017  0.0  0.126005  0.000251  1.014278  0.0  0.106993  0.117791  0.000158  1.019595  0.0
H  H22  1  0.31514398  0.15729378  0.41300971  1  0.423564  1e-06  0.871502  0.0  0.403864  2e-05  0.918333  0.0  0.413543  1.9e-05  0.904084  0.0  0.288638  0.396929  1e-05  0.928545  0.0
H  H23  1  0.38901935  0.00785785  0.38682261  1  0.418238  -1.8e-05  0.881443  0.0  0.39392  3.1e-05  0.93534  0.0  0.406279  1.7e-05  0.917305  0.0  0.281582  0.385048  1.9e-05  0.948268  0.0
H  H24  1  0.22329806  0.37709192  0.37368506  1  0.391923  -0.000256  0.889134  0.0  0.360684  -0.00038  0.973885  0.0  0.3697  -0.000387  0.96012  0.0  0.287451  0.35414  -0.000186  0.983851  0.0
H  H25  1  0.06374757  0.31230087  0.43753733  1  0.423468  -1e-05  0.8758  0.0  0.393195  -7.6e-05  0.938755  0.0  0.405062  -4.7e-05  0.92167  0.0  0.282169  0.38473  -4.5e-05  0.950906  0.0
C  C26  1  0.93236326  0.44797991  0.57013772  1  0.627606  0.003593  3.836994  0.004  0.582079  0.001874  4.144223  0.003  0.615563  0.001525  4.140532  0.002  0.209934  0.558654  0.000899  4.144243  0.001
C  C27  1  0.83106172  0.56755482  0.59202698  1  0.074118  0.001758  3.730733  0.002  0.05736  0.001732  3.978227  0.002  0.067089  0.001433  3.991054  0.002  -0.015157  0.049034  0.000932  3.968733  0.001
C  C28  1  0.99177066  0.76877170  0.64807993  1  -0.012681  -0.000984  3.73501  -0.001  -0.002458  -0.000753  3.970775  -0.001  -0.003494  -0.00056  3.994329  0.0  -0.020978  -0.002274  -0.000433  3.955948  0.0
C  C29  1  0.03556588  0.82422466  0.75378562  1  0.092702  -0.000195  3.759078  0.0  0.098387  -0.000516  4.026365  -0.001  0.100485  -0.000495  4.048482  -0.001  0.009386  0.096655  -0.000259  4.011585  0.0
C  C30  1  0.17269107  0.01491806  0.80180226  1  -0.144537  -6.1e-05  3.796919  0.0  -0.166354  -1.2e-05  4.050879  0.0  -0.169778  4.8e-05  4.073303  0.0  -0.103368  -0.163475  -3.1e-05  4.035309  0.0
C  C31  1  0.27536664  0.15290554  0.74443623  1  -0.041631  -0.000181  3.763641  0.0  -0.055915  -0.000264  4.01598  0.0  -0.056964  -0.000277  4.036636  0.0  -0.088758  -0.055693  -0.000131  4.002351  0.0
C  C32  1  0.24115291  0.09970170  0.63987001  1  -0.059069  0.000259  3.749211  0.0  -0.077079  0.00022  4.003862  0.0  -0.07786  0.000224  4.025278  0.0  -0.090966  -0.076396  9.8e-05  3.989601  0.0
C  C33  1  0.09944847  0.91025674  0.59264443  1  -0.087413  -0.000317  3.715107  0.0  -0.109747  -0.000438  3.970047  0.0  -0.11346  -0.000449  3.993128  0.0  -0.087947  -0.107529  -0.000212  3.95526  0.0
C  C34  1  0.35794727  0.72789530  0.25721204  1  0.61428  -0.00225  3.853218  -0.003  0.56889  -0.000499  4.157503  -0.001  0.601804  -0.000325  4.154099  -0.001  0.205182  0.546257  -0.000265  4.157671  -0.001
C  C35  1  0.44700789  0.59795563  0.23423810  1  0.063365  -0.001728  3.748592  -0.003  0.04545  -0.001235  3.995102  -0.003  0.054485  -0.001089  4.007979  -0.003  -0.020398  0.037722  -0.000635  3.985848  -0.001
C  C36  1  0.60397421  0.70248744  0.17719905  1  -0.00951  0.000146  3.73463  0.0  0.00036  0.0002  3.970672  0.0  -0.000646  0.000252  3.994395  0.0  -0.02171  0.00085  5.8e-05  3.955024  0.0
C  C37  1  0.56897733  0.65078529  0.07196390  1  0.09457  0.000113  3.751914  0.0  0.100733  0.000235  4.017845  0.0  0.102946  0.000238  4.039512  0.0  0.009658  0.099029  9.9e-05  4.003153  0.0
C  C38  1  0.71952967  0.74475940  0.02238622  1  -0.144073  1.2e-05  3.803901  0.0  -0.165418  4e-06  4.056809  0.0  -0.168738  -1.7e-05  4.079286  0.0  -0.105143  -0.162715  1.2e-05  4.041282  0.0
C  C39  1  0.90775928  0.89738565  0.07751407  1  -0.038491  -4.9e-05  3.757895  0.0  -0.053628  2e-05  4.010747  0.0  -0.054573  6.1e-05  4.030957  0.0  -0.089003  -0.053302  -3e-06  3.99725  0.0
C  C40  1  0.94452563  0.95588828  0.18167991  1  -0.05894  -3.4e-05  3.758952  0.0  -0.076571  -7.3e-05  4.01395  0.0  -0.077156  -8.1e-05  4.034798  0.0  -0.091094  -0.076066  -3.2e-05  3.999941  0.0
C  C41  1  0.79420838  0.85813314  0.23060046  1  -0.091976  3.3e-05  3.722918  0.0  -0.115308  0.000139  3.981225  0.0  -0.118946  0.000148  4.004105  0.0  -0.089605  -0.11295  7.2e-05  3.966223  0.0
C  C42  1  0.86056251  0.45778543  0.20346434  1  0.127062  0.004148  3.706154  0.004  0.09917  0.001168  3.961005  0.002  0.109032  0.001797  3.979469  0.002  0.041646  0.092226  0.000343  3.949676  0.001
C  C43  1  0.86581178  0.40655885  0.10621885  1  -0.158331  -0.00569  3.681279  -0.006  -0.172255  -0.003476  3.918777  -0.004  -0.180787  -0.003465  3.938557  -0.004  -0.083402  -0.167277  -0.001613  3.907114  -0.002
C  C44  1  0.70670763  0.23311129  0.04441837  1  0.138005  0.004897  3.797071  0.005  0.155173  0.002593  4.022265  0.003  0.162131  0.002757  4.043195  0.003  0.008381  0.150329  0.001192  4.008598  0.001
C  C45  1  0.54553944  0.12009319  0.08575398  1  -0.150101  -0.005951  3.681804  -0.006  -0.16813  -0.003553  3.924076  -0.004  -0.175929  -0.003517  3.943573  -0.004  -0.080207  -0.163517  -0.00165  3.912322  -0.002
C  C46  1  0.54908386  0.18193733  0.18289463  1  0.127335  0.004065  3.690391  0.004  0.100587  0.001182  3.942278  0.002  0.110248  0.001891  3.960227  0.003  0.0408  0.093619  0.00028  3.93156  0.0
C  C47  1  0.71529988  0.17956816  0.94314110  1  -0.099852  -0.006451  3.70262  -0.006  -0.12031  -0.002838  3.947951  -0.003  -0.123542  -0.002992  3.966325  -0.003  -0.081819  -0.118501  -0.00122  3.936434  -0.001
C  C48  1  0.58523099  0.00551962  0.88375441  1  -0.086027  0.006437  3.734929  0.006  -0.103188  0.00281  3.981805  0.003  -0.104988  0.002942  4.001434  0.003  -0.075844  -0.102515  0.001218  3.969356  0.001
C  C49  1  0.58647091  0.94230270  0.78271427  1  0.13189  -0.004779  3.796458  -0.005  0.147624  -0.002639  4.021852  -0.003  0.153742  -0.002882  4.042986  -0.003  0.008943  0.143545  -0.001178  4.007888  -0.001
C  C50  1  0.71457692  0.06300904  0.72643673  1  -0.14305  0.005935  3.661329  0.006  -0.155508  0.003703  3.895389  0.004  -0.162959  0.003742  3.914189  0.004  -0.07501  -0.151213  0.001684  3.884176  0.002
C  C51  1  0.70087323  0.98904651  0.62972042  1  0.137109  -0.003896  3.685697  -0.004  0.107257  -0.001133  3.939028  -0.002  0.116874  -0.001879  3.958059  -0.003  0.046956  0.100527  -0.000261  3.927687  0.0
C  C52  1  0.44579532  0.68415104  0.63991246  1  0.127007  -0.004107  3.692576  -0.005  0.099531  -0.001213  3.942812  -0.002  0.109868  -0.001927  3.960693  -0.003  0.042222  0.092238  -0.000326  3.932347  -0.001
C  C53  1  0.45005334  0.74877317  0.73671271  1  -0.149798  0.005914  3.687703  0.006  -0.166994  0.003827  3.931138  0.004  -0.174367  0.003844  3.949526  0.005  -0.079148  -0.162819  0.001742  3.920299  0.002
N  N54  1  0.70470817  0.34729466  0.24168091  1  -0.321112  -0.031807  3.385647  -0.041  -0.273508  -0.037211  3.691944  -0.05  -0.306228  -0.03515  3.709313  -0.049  -0.367494  -0.251415  -0.018446  3.682643  -0.024
N  N55  1  0.56815273  0.80284954  0.58670877  1  -0.317711  0.032427  3.394823  0.042  -0.265286  0.039774  3.700411  0.053  -0.299609  0.038797  3.718734  0.054  -0.369949  -0.242763  0.019165  3.690886  0.025
Cl  Cl56  1  0.91824651  0.65502722  0.83011652  1  -0.106591  -4.6e-05  1.353828  0.0  -0.085039  -0.000258  1.587686  0.0  -0.088726  -0.00021  1.582122  0.0  0.008638  -0.082066  -0.000135  1.591401  0.0
Cl  Cl57  1  0.33418205  0.46385412  0.99762158  1  -0.111927  0.000202  1.316097  0.0  -0.088088  0.00039  1.538908  0.0  -0.091441  0.000274  1.533464  0.0  0.001215  -0.085459  0.00023  1.542677  0.0
O  O58  1  0.91017480  0.39878263  0.47334825  1  -0.633248  -0.031841  2.063926  -0.045  -0.589887  -0.038841  2.332928  -0.059  -0.636852  -0.034449  2.32102  -0.054  -0.329485  -0.554779  -0.019448  2.340948  -0.029
O  O59  1  0.02747253  0.40550349  0.64239513  1  -0.548783  -0.007429  1.954173  -0.01  -0.527232  -0.006012  2.192623  -0.008  -0.5617  -0.003391  2.191649  -0.005  -0.29046  -0.495692  -0.003871  2.188923  -0.005
O  O60  1  0.71342658  0.57351777  0.49729499  1  -0.587399  -0.004444  2.255183  -0.005  -0.587988  0.002582  2.615171  0.005  -0.658876  0.003704  2.619006  0.008  -0.391828  -0.531426  0.001037  2.610238  0.002
O  O61  1  0.38578405  0.78061018  0.35463688  1  -0.635188  0.031601  2.066341  0.044  -0.585497  0.040042  2.333726  0.06  -0.630923  0.036658  2.317794  0.057  -0.335492  -0.552688  0.019854  2.345192  0.029
O  O62  1  0.26743677  0.77606794  0.18594591  1  -0.539899  0.009261  1.970954  0.012  -0.513025  0.008003  2.207653  0.011  -0.544935  0.004531  2.205714  0.006  -0.286134  -0.48436  0.005009  2.20516  0.006
O  O63  1  0.52805437  0.55544074  0.32875686  1  -0.608017  0.016059  2.234198  0.02  -0.596969  0.012992  2.577035  0.017  -0.664799  0.012332  2.579686  0.017  -0.389412  -0.543272  0.005492  2.573905  0.007
O  O64  1  0.43282499  0.14553513  0.40750247  1  -0.851386  0.000606  1.814649  0.0  -0.814513  0.000762  1.977995  0.0  -0.835456  0.000853  1.941468  0.0  -0.606765  -0.798695  0.000341  2.004764  0.0
O  O65  1  0.15605006  0.27740113  0.41356602  1  -0.828433  -0.0003  1.785844  0.0  -0.778131  -0.000574  1.955513  -0.001  -0.796447  -0.000565  1.923607  -0.001  -0.589782  -0.764829  -0.000286  1.978207  0.0
