# generated using pymatgen
data_CuSiH16C20(N4F3)2
_symmetry_space_group_name_H-M   'P 1'
_cell_length_a   8.09540160
_cell_length_b   13.10178969
_cell_length_c   13.10174791
_cell_angle_alpha   89.69321896
_cell_angle_beta   85.71328573
_cell_angle_gamma   85.71300637
_symmetry_Int_Tables_number   1
_chemical_formula_structural   CuSiH16C20(N4F3)2
_chemical_formula_sum   'Cu1 Si1 H16 C20 N8 F6'
_cell_volume   1381.86240515
_cell_formula_units_Z   1
loop_
 _symmetry_equiv_pos_site_id
 _symmetry_equiv_pos_as_xyz
  1  'x, y, z'
loop_
 _atom_site_type_symbol
 _atom_site_label
 _atom_site_symmetry_multiplicity
 _atom_site_fract_x
 _atom_site_fract_y
 _atom_site_fract_z
 _atom_site_occupancy
 _atom_site_pbe_bader_charge
 _atom_site_pbe_bader_spin_density
 _atom_site_pbe_cm5_charge
 _atom_site_pbe_ddec_charge
 _atom_site_pbe_ddec_spin_density
 _atom_site_pbe_ddec_sum_bond_order
 _atom_site_pbe_magmom
Cu  Cu0  1  0.50000159  0.49999788  0.49999959  1  1.135586  0.565781  0.777801  0.685739  0.729358  2.27324  0.563
Si  Si1  1  0.00000479  0.49999641  0.49999450  1  3.17849  -0.000179  0.244228  1.725934  -0.000328  3.936819  0.0
H  H2  1  0.26310154  0.49998000  0.33786259  1  0.213272  0.002086  0.121849  0.111838  0.000988  1.04143  0.002
H  H3  1  0.27372349  0.49988624  0.14643040  1  0.120363  0.001084  0.118903  0.128082  0.000579  0.999026  0.001
H  H4  1  0.80710931  0.50001261  0.14300210  1  0.139331  0.001177  0.12191  0.133435  0.000636  0.974178  0.001
H  H5  1  0.77773643  0.50004418  0.33540776  1  0.165088  0.002302  0.123438  0.113383  0.001075  1.037642  0.002
H  H6  1  0.19289909  0.49999082  0.85700291  1  0.139417  0.001176  0.121868  0.133408  0.000636  0.974156  0.001
H  H7  1  0.72628683  0.50011183  0.85356616  1  0.120407  0.001084  0.118937  0.12808  0.000579  0.998963  0.001
H  H8  1  0.73689879  0.50001883  0.66213289  1  0.213257  0.002086  0.121851  0.111807  0.000988  1.04136  0.002
H  H9  1  0.22226311  0.49996077  0.66459536  1  0.165127  0.002302  0.123474  0.113428  0.001075  1.037537  0.002
H  H10  1  0.26310348  0.33786289  0.49997564  1  0.213279  0.002086  0.121844  0.111839  0.000987  1.04143  0.002
H  H11  1  0.27371879  0.14643110  0.49988130  1  0.120317  0.001084  0.118925  0.128098  0.000579  0.998998  0.001
H  H12  1  0.80710556  0.14299496  0.50001384  1  0.139341  0.001176  0.121863  0.133398  0.000636  0.974245  0.001
H  H13  1  0.77773958  0.33540309  0.50004330  1  0.165138  0.002301  0.123437  0.113414  0.001075  1.037586  0.002
H  H14  1  0.19289283  0.85699927  0.49999015  1  0.139346  0.001176  0.121902  0.133427  0.000636  0.974152  0.001
H  H15  1  0.72628290  0.85356696  0.50010801  1  0.120427  0.001084  0.118916  0.128028  0.000579  0.999039  0.001
H  H16  1  0.73690096  0.66213288  0.50001509  1  0.213318  0.002086  0.121836  0.111753  0.000987  1.041437  0.002
H  H17  1  0.22226369  0.66459191  0.49995589  1  0.165102  0.002301  0.123447  0.113404  0.001075  1.037605  0.002
C  C18  1  0.38094036  0.49997836  0.29198165  1  0.393881  -0.000705  0.054689  0.104633  -0.001185  3.890592  0.0
C  C19  1  0.38708907  0.49994169  0.18600029  1  0.080764  0.006143  -0.07065  -0.173033  0.004196  3.90146  0.005
C  C20  1  0.54217583  0.49995204  0.13070295  1  0.33297  -0.003235  0.102697  0.194035  -0.003798  4.04266  -0.002
C  C21  1  0.68523267  0.49999034  0.18426781  1  -0.074075  0.006305  -0.065414  -0.171383  0.004192  3.894755  0.005
C  C22  1  0.66954452  0.50000303  0.29080122  1  0.488619  -0.001279  0.058012  0.106597  -0.001663  3.885062  -0.001
C  C23  1  0.31477326  0.50001308  0.81573427  1  -0.074113  0.006306  -0.065324  -0.171329  0.004193  3.894585  0.005
C  C24  1  0.45783506  0.50005139  0.86929737  1  0.333121  -0.003237  0.102663  0.194024  -0.0038  4.042695  -0.002
C  C25  1  0.61291735  0.50005791  0.81399644  1  0.08065  0.006143  -0.070646  -0.173015  0.004196  3.901523  0.005
C  C26  1  0.61906253  0.50001970  0.70801677  1  0.393823  -0.000706  0.05471  0.104721  -0.001186  3.890397  0.0
C  C27  1  0.33045789  0.49999886  0.70920102  1  0.488658  -0.001279  0.057942  0.106515  -0.001663  3.885042  -0.001
C  C28  1  0.38093873  0.29197961  0.49997634  1  0.393853  -0.000706  0.054662  0.104615  -0.001186  3.890655  0.0
C  C29  1  0.38708554  0.18600007  0.49993855  1  0.080642  0.006144  -0.070636  -0.173062  0.004196  3.901674  0.005
C  C30  1  0.54217125  0.13070097  0.49994983  1  0.333138  -0.003238  0.102691  0.194033  -0.0038  4.042581  -0.002
C  C31  1  0.68523074  0.18426327  0.49998951  1  -0.074207  0.006306  -0.065329  -0.17128  0.004192  3.894698  0.005
C  C32  1  0.66954686  0.29079664  0.50000365  1  0.488618  -0.00128  0.057916  0.106439  -0.001663  3.88496  -0.001
C  C33  1  0.31476880  0.81573173  0.50001214  1  -0.074104  0.006305  -0.06539  -0.171398  0.004192  3.894797  0.005
C  C34  1  0.45782944  0.86929479  0.50004947  1  0.333116  -0.003238  0.102699  0.19409  -0.0038  4.042732  -0.002
C  C35  1  0.61291641  0.81399570  0.50005535  1  0.080688  0.006143  -0.070654  -0.172997  0.004196  3.901687  0.005
C  C36  1  0.61906446  0.70801616  0.50001751  1  0.393719  -0.000706  0.054676  0.104665  -0.001186  3.890537  0.0
C  C37  1  0.33045478  0.70920142  0.49999711  1  0.488608  -0.001278  0.057962  0.106495  -0.001662  3.885086  -0.001
N  N38  1  0.51990140  0.49999100  0.34333051  1  -1.210747  0.096539  -0.3293  -0.213795  0.064628  3.561479  0.085
N  N39  1  0.56649942  0.49993755  0.02240793  1  -0.450359  -0.00112  -0.132403  -0.119736  -0.001147  3.233981  -0.001
N  N40  1  0.43351022  0.50006588  0.97759245  1  -0.503495  -0.001122  -0.132334  -0.119585  -0.001147  3.23393  -0.001
N  N41  1  0.48009882  0.50000859  0.65666955  1  -1.210744  0.096531  -0.329308  -0.213833  0.064623  3.561497  0.085
N  N42  1  0.51990153  0.34332900  0.49998952  1  -1.210623  0.096532  -0.329243  -0.213709  0.064624  3.561343  0.085
N  N43  1  0.56649284  0.02240560  0.49993597  1  -0.503514  -0.001122  -0.132373  -0.119673  -0.001148  3.233807  -0.001
N  N44  1  0.43350413  0.97759016  0.50006349  1  -0.450329  -0.00112  -0.132344  -0.11962  -0.001147  3.233841  -0.001
N  N45  1  0.48010031  0.65666753  0.50000743  1  -1.210689  0.096536  -0.329226  -0.213633  0.064626  3.56117  0.085
F  F46  1  0.21495880  0.50105256  0.50104967  1  -0.843119  -0.001688  -0.205527  -0.535797  -0.001819  1.327205  -0.001
F  F47  1  0.78505107  0.49893938  0.49894007  1  -0.842931  -0.001688  -0.205562  -0.535858  -0.001819  1.327264  -0.001
F  F48  1  0.99999912  0.59250651  0.40748508  1  -0.830372  0.000157  -0.25656  -0.549142  0.000157  1.054415  0.0
F  F49  1  0.00000551  0.40748773  0.59250489  1  -0.830379  0.000157  -0.256604  -0.549167  0.000157  1.054385  0.0
F  F50  1  0.02478254  0.40747828  0.40747589  1  -0.828811  0.000155  -0.256509  -0.54917  0.000156  1.054503  0.0
F  F51  1  0.97522838  0.59251520  0.59251151  1  -0.828853  0.000156  -0.256412  -0.549141  0.000156  1.054567  0.0
