# generated using pymatgen
data_ZnH5C18N2O6F5
_symmetry_space_group_name_H-M   'P 1'
_cell_length_a   9.96355067
_cell_length_b   11.24312329
_cell_length_c   23.80174359
_cell_angle_alpha   88.70342947
_cell_angle_beta   90.31520883
_cell_angle_gamma   90.79203585
_symmetry_Int_Tables_number   1
_chemical_formula_structural   ZnH5C18N2O6F5
_chemical_formula_sum   'Zn2 H10 C36 N4 O12 F10'
_cell_volume   2665.33206439
_cell_formula_units_Z   2
loop_
 _symmetry_equiv_pos_site_id
 _symmetry_equiv_pos_as_xyz
  1  'x, y, z'
loop_
 _atom_site_type_symbol
 _atom_site_label
 _atom_site_symmetry_multiplicity
 _atom_site_fract_x
 _atom_site_fract_y
 _atom_site_fract_z
 _atom_site_occupancy
 _atom_site_pbe_bader_charge
 _atom_site_pbe_bader_spin_density
 _atom_site_pbe_cm5_charge
 _atom_site_pbe_ddec_charge
 _atom_site_pbe_ddec_spin_density
 _atom_site_pbe_ddec_sum_bond_order
 _atom_site_pbe_magmom
Zn  Zn0  1  0.37178208  0.49608710  0.50121184  1  1.300326  0  0.665842  0.821239  0  2.46191  0
Zn  Zn1  1  0.64296877  0.49469140  0.49908227  1  1.29519  0  0.667397  0.84452  0  2.446761  0
H  H2  1  0.71023848  0.46291117  0.21625078  1  0.088727  0  0.112721  0.123647  0  0.977796  0
H  H3  1  0.71887168  0.53653434  0.78533495  1  0.099166  0  0.124789  0.156815  0  0.955953  0
H  H4  1  0.70670421  0.46299439  0.32146592  1  0.088996  0  0.109416  0.112412  0  0.991607  0
H  H5  1  0.70144777  0.10779709  0.50894680  1  0.110719  0  0.112668  0.128173  0  0.977531  0
H  H6  1  0.39203222  0.09601387  0.51486455  1  0.113024  0  0.108804  0.133153  0  1.002927  0
H  H7  1  0.87589053  0.36171453  0.44688740  1  0.186933  0  0.153254  0.13662  0  0.924981  0
H  H8  1  0.89706573  0.55888119  0.52557636  1  0.485917  0  0.324228  0.303495  0  0.917129  0
H  H9  1  0.50448465  0.20345218  0.05506074  1  0.13395  0  0.13223  0.162939  0  0.957961  0
H  H10  1  0.29422511  0.47978534  0.67805236  1  0.122562  0  0.121816  0.151593  0  0.971109  0
H  H11  1  0.28535418  0.53263304  0.21442093  1  0.116054  0  0.120557  0.151125  0  0.965289  0
C  C12  1  0.50809291  0.72573111  0.49798600  1  1.641525  0  0.203949  0.554889  0  4.258232  0
C  C13  1  0.49179013  0.71833561  0.02777223  1  0.546894  0  0.119683  0.18577  0  4.036689  0
C  C14  1  0.49031802  0.71884530  0.96826118  1  0.526583  0  0.123412  0.190951  0  4.030673  0
C  C15  1  0.49285532  0.61407491  0.93842328  1  0.03989  0  -0.009121  -0.155751  0  3.971531  0
C  C16  1  0.49671474  0.50391787  0.96928025  1  0.066421  0  0.007465  0.062531  0  3.991856  0
C  C17  1  0.49975531  0.39423100  0.94045159  1  0.106792  0  -0.01163  -0.177343  0  3.949626  0
C  C18  1  0.50219173  0.28876603  0.97264376  1  0.433044  0  0.12972  0.306759  0  4.022136  0
C  C19  1  0.50246698  0.28758007  0.03140904  1  0.061722  0  -0.069867  -0.196709  0  3.929134  0
C  C20  1  0.49179833  0.61719729  0.87605896  1  1.373882  0  0.244978  0.454962  0  4.092138  0
C  C21  1  0.50172702  0.39255941  0.87824287  1  1.334436  0  0.244641  0.455695  0  4.092239  0
C  C22  1  0.38655303  0.49036841  0.75977036  1  0.502197  0  0.102156  0.213187  0  4.059108  0
C  C23  1  0.50481823  0.50360471  0.60938792  1  1.628632  0  0.217497  0.613639  0  4.159612  0
C  C24  1  0.38717056  0.49113624  0.70169461  1  0.051377  0  -0.080275  -0.178015  0  3.958181  0
C  C25  1  0.50820138  0.50641411  0.67235175  1  0.003324  0  -0.01429  -0.110243  0  3.944124  0
C  C26  1  0.62611199  0.52250584  0.70390605  1  0.472557  0  0.110457  0.288082  0  4.027768  0
C  C27  1  0.62544393  0.52284388  0.76229076  1  0.080005  0  -0.085535  -0.255329  0  3.965187  0
C  C28  1  0.50472672  0.50598893  0.79059183  1  0.423925  0  0.088101  0.110053  0  4.060771  0
C  C29  1  0.37841549  0.51559486  0.23719676  1  0.042189  0  -0.091802  -0.281191  0  3.956986  0
C  C30  1  0.37892157  0.51318285  0.29564092  1  0.474223  0  0.115242  0.307541  0  4.012295  0
C  C31  1  0.49621750  0.49387955  0.32725403  1  0.02795  0  -0.018343  -0.140807  0  3.931365  0
C  C32  1  0.61504561  0.47679767  0.29720665  1  -0.027517  0  -0.072398  -0.045026  0  3.973934  0
C  C33  1  0.61731187  0.47744897  0.23882482  1  0.056149  0  -0.087373  -0.172331  0  3.986247  0
C  C34  1  0.50306133  0.26399678  0.50691915  1  1.504914  0  0.208718  0.63958  0  4.163004  0
C  C35  1  0.49826619  0.49716301  0.20922702  1  0.281094  0  0.095474  0.223299  0  4.031891  0
C  C36  1  0.60295211  0.06380820  0.51055960  1  -0.034644  0  -0.080687  -0.118553  0  4.014499  0
C  C37  1  0.49308794  0.13267977  0.51108500  1  0.061725  0  -0.085021  -0.192196  0  3.864479  0
C  C38  1  0.60701789  0.93579012  0.51125777  1  0.52937  0  0.097066  0.196988  0  4.071111  0
C  C39  1  0.50487679  0.85735203  0.50109096  1  0.526676  0  0.086325  0.02081  0  3.933258  0
C  C40  1  0.07076860  0.42788216  0.47405684  1  1.239627  0  0.286365  0.362707  0  3.988413  0
C  C41  1  0.92288603  0.42881303  0.47366792  1  0.787088  0  0.129277  0.103884  0  3.863386  0
C  C42  1  0.50045136  0.49118098  0.39033243  1  1.635727  0  0.217902  0.618809  0  4.157045  0
C  C43  1  0.50069831  0.38886232  0.12188068  1  1.335091  0  0.245616  0.435393  0  4.100494  0
C  C44  1  0.49656477  0.61248247  0.12139143  1  1.340657  0  0.245825  0.454116  0  4.081489  0
C  C45  1  0.49511623  0.61256829  0.05894151  1  0.090555  0  -0.010724  -0.155475  0  3.991125  0
C  C46  1  0.49735457  0.50399542  0.02931200  1  -0.077136  0  -0.001518  0.023681  0  4.00793  0
C  C47  1  0.50036842  0.39394944  0.05948873  1  0.087931  0  -0.000911  -0.028846  0  3.99363  0
N  N48  1  0.49842014  0.49916588  0.14849288  1  -1.196133  0  -0.230872  -0.212847  0  3.556126  0
N  N49  1  0.50160456  0.50549683  0.85088810  1  -1.180183  0  -0.23391  -0.201107  0  3.577995  0
N  N50  1  0.15823965  0.49360604  0.49924906  1  -0.505314  0  -0.149749  -0.075799  0  3.16135  0
N  N51  1  0.84836802  0.49810920  0.50101588  1  -1.153909  0  -0.411606  -0.320162  0  3.234143  0
O  O52  1  0.39527843  0.67517138  0.48886200  1  -1.139933  0  -0.320264  -0.528097  0  2.325751  0
O  O53  1  0.49618318  0.70295946  0.14909538  1  -1.059269  0  -0.26351  -0.40994  0  2.07303  0
O  O54  1  0.48422535  0.70841086  0.84715723  1  -1.073161  0  -0.263843  -0.410427  0  2.069072  0
O  O55  1  0.50471301  0.30214067  0.85059166  1  -1.064908  0  -0.26255  -0.410306  0  2.072899  0
O  O56  1  0.62093175  0.67577991  0.50465873  1  -1.143544  0  -0.316203  -0.529198  0  2.323309  0
O  O57  1  0.39113797  0.52128394  0.58605222  1  -1.157964  0  -0.319232  -0.542543  0  2.294799  0
O  O58  1  0.61389021  0.48233354  0.58437834  1  -1.150708  0  -0.316759  -0.544318  0  2.328716  0
O  O59  1  0.39289861  0.31837511  0.51450338  1  -1.149525  0  -0.32628  -0.55701  0  2.294695  0
O  O60  1  0.61645403  0.31309418  0.49575762  1  -1.169105  0  -0.325995  -0.563532  0  2.28428  0
O  O61  1  0.39048139  0.47396676  0.41623209  1  -1.151589  0  -0.319736  -0.55252  0  2.348562  0
O  O62  1  0.61565463  0.50548546  0.41308764  1  -1.161873  0  -0.321646  -0.555797  0  2.290396  0
O  O63  1  0.50247572  0.29493647  0.14912992  1  -1.088414  0  -0.268359  -0.420178  0  2.05924  0
F  F64  1  0.48954607  0.82502326  0.05150003  1  -0.595815  0  -0.067555  -0.08344  0  1.395636  0
F  F65  1  0.25979393  0.53287784  0.32093744  1  -0.626086  0  -0.106038  -0.146775  0  1.336442  0
F  F66  1  0.73207379  0.89258992  0.52089705  1  -0.615894  0  -0.099874  -0.125912  0  1.352351  0
F  F67  1  0.38171769  0.90428877  0.49154146  1  -0.614476  0  -0.085573  -0.091929  0  1.409569  0
F  F68  1  0.12303624  0.34391029  0.44274369  1  -0.579145  0  -0.023925  -0.069079  0  1.348691  0
F  F69  1  0.09796938  0.58012595  0.53160194  1  -0.288035  0  0.025731  -0.024381  0  1.242181  0
F  F70  1  0.48696669  0.82603802  0.94295220  1  -0.590911  0  -0.062017  -0.076273  0  1.400068  0
F  F71  1  0.50475275  0.18239196  0.94814434  1  -0.603945  0  -0.07285  -0.106729  0  1.358978  0
F  F72  1  0.26892199  0.47459064  0.78786856  1  -0.629965  0  -0.106611  -0.140539  0  1.311297  0
F  F73  1  0.74645946  0.54092377  0.67855934  1  -0.626641  0  -0.104871  -0.142403  0  1.338778  0
