# generated using pymatgen
data_PrH15C22S2(NO4)2
_symmetry_space_group_name_H-M   'P 1'
_cell_length_a   8.89587719
_cell_length_b   11.93473181
_cell_length_c   12.78880107
_cell_angle_alpha   104.92826186
_cell_angle_beta   108.58081494
_cell_angle_gamma   100.91807082
_symmetry_Int_Tables_number   1
_chemical_formula_structural   PrH15C22S2(NO4)2
_chemical_formula_sum   'Pr2 H30 C44 S4 N4 O16'
_cell_volume   1187.68289565
_cell_formula_units_Z   2
loop_
 _symmetry_equiv_pos_site_id
 _symmetry_equiv_pos_as_xyz
  1  'x, y, z'
loop_
 _atom_site_type_symbol
 _atom_site_label
 _atom_site_symmetry_multiplicity
 _atom_site_fract_x
 _atom_site_fract_y
 _atom_site_fract_z
 _atom_site_occupancy
 _atom_site_hle17_bader_spin_density
 _atom_site_hle17_ddec_charge
 _atom_site_hle17_ddec_spin_density
 _atom_site_hle17_ddec_sum_bond_order
 _atom_site_hle17_magmom
 _atom_site_hse06_10hf_bader_spin_density
 _atom_site_hse06_10hf_ddec_charge
 _atom_site_hse06_10hf_ddec_spin_density
 _atom_site_hse06_10hf_ddec_sum_bond_order
 _atom_site_hse06_10hf_magmom
 _atom_site_hse06_bader_spin_density
 _atom_site_hse06_ddec_charge
 _atom_site_hse06_ddec_spin_density
 _atom_site_hse06_ddec_sum_bond_order
 _atom_site_hse06_magmom
 _atom_site_pbe_bader_spin_density
 _atom_site_pbe_cm5_charge
 _atom_site_pbe_ddec_charge
 _atom_site_pbe_ddec_spin_density
 _atom_site_pbe_ddec_sum_bond_order
 _atom_site_pbe_magmom
Pr  Pr0  1  0.54645211  0.42639717  0.35879148  1  0  2.266677  0  1.685851  0  0  2.085183  0  2.163525  0  0  2.122837  0  2.118652  0  0  1.520038  2.056861  0  2.197208  0
Pr  Pr1  1  0.45355010  0.57360562  0.64120977  1  0  2.266698  0  1.685796  0  0  2.085231  0  2.163428  0  0  2.122882  0  2.118555  0  0  1.520043  2.05693  0  2.197078  0
H  H2  1  0.88499670  0.30229145  0.77555715  1  0  0.098894  0  0.960468  0  0  0.108867  0  1.026155  0  0  0.11212  0  1.023591  0  0  0.103032  0.106502  0  1.028047  0
H  H3  1  0.11500398  0.69771322  0.22444109  1  0  0.098846  0  0.960476  0  0  0.108821  0  1.026162  0  0  0.112074  0  1.023597  0  0  0.103021  0.106457  0  1.028056  0
H  H4  1  0.81331314  0.11896836  0.84147976  1  0  0.117758  0  0.926592  0  0  0.129173  0  0.98211  0  0  0.132881  0  0.979463  0  0  0.111896  0.126396  0  0.984148  0
H  H5  1  0.18668749  0.88103976  0.15852638  1  0  0.117744  0  0.926654  0  0  0.129194  0  0.982132  0  0  0.132902  0  0.979483  0  0  0.111896  0.126417  0  0.984169  0
H  H6  1  0.33012075  0.85742984  0.65016160  1  0  0.091246  0  0.963765  0  0  0.101383  0  1.028378  0  0  0.104814  0  1.025328  0  0  0.109376  0.098892  0  1.030549  0
H  H7  1  0.66987954  0.14256834  0.34984116  1  0  0.091276  0  0.963798  0  0  0.101426  0  1.028379  0  0  0.104865  0  1.025327  0  0  0.109398  0.098938  0  1.030549  0
H  H8  1  0.24872117  0.98117067  0.52237938  1  0  0.081887  0  0.982841  0  0  0.092927  0  1.048151  0  0  0.095266  0  1.047606  0  0  0.097625  0.091258  0  1.048616  0
H  H9  1  0.75128573  0.01882586  0.47761983  1  0  0.081932  0  0.982817  0  0  0.092972  0  1.048114  0  0  0.095314  0  1.047563  0  0  0.097642  0.091304  0  1.04858  0
H  H10  1  0.30234342  0.16695821  0.47951775  1  0  0.120734  0  0.925707  0  0  0.134402  0  0.980812  0  0  0.137784  0  0.979911  0  0  0.11091  0.131921  0  0.981748  0
H  H11  1  0.69766213  0.83303752  0.52047624  1  0  0.120723  0  0.925781  0  0  0.134402  0  0.980871  0  0  0.137783  0  0.979968  0  0  0.110888  0.131922  0  0.981808  0
H  H12  1  0.93185430  0.63229717  0.50202746  1  0  0.094856  0  0.939339  0  0  0.102268  0  1.001285  0  0  0.105531  0  0.997695  0  0  0.127532  0.099789  0  1.004003  0
H  H13  1  0.06814060  0.36770200  0.49796959  1  0  0.094834  0  0.939351  0  0  0.10226  0  1.001288  0  0  0.105523  0  0.997699  0  0  0.127527  0.099783  0  1.004004  0
H  H14  1  0.10588639  0.82943438  0.51831026  1  0  0.100429  0  0.985637  0  0  0.1129  0  1.04336  0  0  0.11521  0  1.04348  0  0  0.107815  0.111276  0  1.043344  0
H  H15  1  0.89411282  0.17056734  0.48169627  1  0  0.100399  0  0.985672  0  0  0.112897  0  1.043367  0  0  0.115205  0  1.043489  0  0  0.107819  0.111273  0  1.043352  0
H  H16  1  0.00738282  0.92008990  0.36003969  1  0  0.096345  0  0.931064  0  0  0.110999  0  0.985871  0  0  0.113742  0  0.984072  0  0  0.111031  0.108995  0  0.987188  0
H  H17  1  0.99261610  0.07990469  0.63996027  1  0  0.09643  0  0.930897  0  0  0.110996  0  0.985806  0  0  0.113732  0  0.984012  0  0  0.111029  0.108994  0  0.987123  0
H  H18  1  0.78439876  0.90451810  0.17222025  1  0  0.116275  0  0.922101  0  0  0.130728  0  0.97209  0  0  0.133847  0  0.971182  0  0  0.115693  0.128441  0  0.97284  0
H  H19  1  0.21560732  0.09547307  0.82777427  1  0  0.116276  0  0.921982  0  0  0.130746  0  0.971962  0  0  0.133868  0  0.971048  0  0  0.11568  0.128459  0  0.972715  0
H  H20  1  0.50586816  0.79888006  0.01861583  1  0  0.12236  0  0.968798  0  0  0.130388  0  1.029699  0  0  0.133914  0  1.027876  0  0  0.11075  0.127702  0  1.031247  0
H  H21  1  0.49413384  0.20111913  0.98138368  1  0  0.122354  0  0.968792  0  0  0.13037  0  1.029711  0  0  0.133899  0  1.027882  0  0  0.110741  0.127684  0  1.031258  0
H  H22  1  0.24434878  0.62138270  0.92909421  1  0  0.110964  0  0.933927  0  0  0.124077  0  0.988466  0  0  0.127192  0  0.985903  0  0  0.116543  0.121744  0  0.990434  0
H  H23  1  0.75565057  0.37861841  0.07090046  1  0  0.11088  0  0.933983  0  0  0.123987  0  0.988543  0  0  0.127103  0  0.985976  0  0  0.116505  0.121653  0  0.99051  0
H  H24  1  0.09287087  0.42408595  0.92983051  1  0  0.103467  0  0.959486  0  0  0.113394  0  1.0201  0  0  0.116358  0  1.019492  0  0  0.106219  0.111282  0  1.020681  0
H  H25  1  0.90712950  0.57591506  0.07016830  1  0  0.103489  0  0.959479  0  0  0.113408  0  1.020098  0  0  0.116372  0  1.01949  0  0  0.106227  0.111293  0  1.020689  0
H  H26  1  0.22725830  0.34391534  0.08821464  1  0  0.094909  0  0.914064  0  0  0.105061  0  0.969963  0  0  0.108104  0  0.966897  0  0  0.131822  0.102737  0  0.972328  0
H  H27  1  0.77273841  0.65608559  0.91178563  1  0  0.094915  0  0.91406  0  0  0.105093  0  0.969933  0  0  0.10812  0  0.966886  0  0  0.131838  0.102769  0  0.972298  0
H  H28  1  0.83138379  0.38742140  0.26870744  1  0  0.452722  0  0.831442  0  0  0.423128  0  0.890958  0  0  0.433485  0  0.875738  0  0  0.305408  0.415788  0  0.90173  0
H  H29  1  0.16861301  0.61257959  0.73129052  1  0  0.452705  0  0.83147  0  0  0.423105  0  0.890998  0  0  0.433461  0  0.875777  0  0  0.305395  0.415764  0  0.90177  0
H  H30  1  0.67636260  0.26047421  0.21149424  1  0  0.441622  0  0.855944  0  0  0.41109  0  0.917675  0  0  0.422088  0  0.901581  0  0  0.299459  0.403325  0  0.929009  0
H  H31  1  0.32363056  0.73952393  0.78850683  1  0  0.44162  0  0.855943  0  0  0.411133  0  0.917606  0  0  0.422129  0  0.901515  0  0  0.299461  0.403369  0  0.928938  0
C  C32  1  0.70073997  0.34327580  0.64832380  1  0  -0.252582  0  3.745644  0  0  -0.231401  0  4.005658  0  0  -0.2426  0  4.026654  0  0  -0.028297  -0.224293  0  3.991781  0
C  C33  1  0.29925669  0.65672789  0.35167559  1  0  -0.252754  0  3.745651  0  0  -0.231528  0  4.005658  0  0  -0.242735  0  4.026663  0  0  -0.028279  -0.224405  0  3.991759  0
C  C34  1  0.75644277  0.27270489  0.71337100  1  0  -0.077309  0  3.737793  0  0  -0.11569  0  3.998014  0  0  -0.111582  0  4.016618  0  0  -0.081839  -0.118325  0  3.985609  0
C  C35  1  0.24355432  0.72729348  0.28662245  1  0  -0.077202  0  3.73774  0  0  -0.115605  0  3.99796  0  0  -0.111493  0  4.01656  0  0  -0.08185  -0.118248  0  3.985557  0
C  C36  1  0.64666939  0.16150611  0.69925336  1  0  0.039629  0  3.769647  0  0  0.058687  0  4.003293  0  0  0.054207  0  4.028024  0  0  -0.012948  0.06149  0  3.986541  0
C  C37  1  0.35332426  0.83849301  0.30074495  1  0  0.039632  0  3.769642  0  0  0.058666  0  4.003258  0  0  0.054187  0  4.027985  0  0  -0.012987  0.06147  0  3.986508  0
C  C38  1  0.69083302  0.08964023  0.77070539  1  0  -0.098702  0  3.70068  0  0  -0.131183  0  3.945972  0  0  -0.128463  0  3.963907  0  0  -0.078208  -0.132825  0  3.933963  0
C  C39  1  0.30916820  0.91035711  0.22929503  1  0  -0.098676  0  3.70071  0  0  -0.131187  0  3.946011  0  0  -0.128467  0  3.963942  0  0  -0.078173  -0.13283  0  3.934002  0
C  C40  1  0.57602780  0.98391697  0.75304852  1  0  -0.116194  0  3.753678  0  0  -0.091384  0  4.005768  0  0  -0.099195  0  4.028405  0  0  -0.019404  -0.086618  0  3.990695  0
C  C41  1  0.42397167  0.01608491  0.24695185  1  0  -0.116197  0  3.753664  0  0  -0.091411  0  4.005811  0  0  -0.099222  0  4.028454  0  0  -0.019426  -0.086644  0  3.990739  0
C  C42  1  0.41608154  0.94234321  0.66193676  1  0  -0.066509  0  3.783265  0  0  -0.09679  0  4.044032  0  0  -0.095397  0  4.063554  0  0  -0.085646  -0.097325  0  4.030626  0
C  C43  1  0.58392312  0.05765338  0.33805881  1  0  -0.06651  0  3.783417  0  0  -0.096787  0  4.044159  0  0  -0.095404  0  4.063689  0  0  -0.085662  -0.097323  0  4.030754  0
C  C44  1  0.37123068  0.01010958  0.59224668  1  0  -0.113505  0  3.762643  0  0  -0.134028  0  4.018441  0  0  -0.13805  0  4.039303  0  0  -0.091375  -0.131555  0  4.004155  0
C  C45  1  0.62877401  0.98989329  0.40775283  1  0  -0.113555  0  3.762718  0  0  -0.134118  0  4.018506  0  0  -0.13814  0  4.039368  0  0  -0.091391  -0.131644  0  4.004221  0
C  C46  1  0.48201527  0.12195242  0.61008134  1  0  0.087768  0  3.806436  0  0  0.101651  0  4.033921  0  0  0.105458  0  4.057536  0  0  -0.004756  0.09952  0  4.017688  0
C  C47  1  0.51798581  0.87804692  0.38991173  1  0  0.087707  0  3.806344  0  0  0.101691  0  4.033681  0  0  0.105498  0  4.057291  0  0  -0.004723  0.099561  0  4.017447  0
C  C48  1  0.42889715  0.19554375  0.54469306  1  0  -0.221319  0  3.690628  0  0  -0.251636  0  3.951501  0  0  -0.260223  0  3.971494  0  0  -0.098709  -0.246569  0  3.938357  0
C  C49  1  0.57110290  0.80445637  0.45530466  1  0  -0.221324  0  3.690659  0  0  -0.251669  0  3.951472  0  0  -0.260257  0  3.971475  0  0  -0.098682  -0.246598  0  3.938322  0
C  C50  1  0.53186827  0.30865458  0.56652637  1  0  0.346565  0  3.948343  0  0  0.328734  0  4.212923  0  0  0.343355  0  4.227189  0  0  0.076978  0.319025  0  4.202956  0
C  C51  1  0.46813539  0.69134281  0.43347307  1  0  0.346726  0  3.948234  0  0  0.328877  0  4.212823  0  0  0.343498  0  4.22709  0  0  0.077011  0.319165  0  4.202857  0
C  C52  1  0.89045868  0.67362238  0.43550280  1  0  0.173487  0  3.680175  0  0  0.139449  0  3.945123  0  0  0.148746  0  3.957571  0  0  0.067283  0.133436  0  3.936486  0
C  C53  1  0.10953584  0.32637309  0.56449634  1  0  0.173406  0  3.680026  0  0  0.139334  0  3.945039  0  0  0.14863  0  3.957488  0  0  0.067251  0.13332  0  3.936404  0
C  C54  1  0.98861334  0.78485795  0.44355858  1  0  -0.122232  0  3.740442  0  0  -0.136336  0  3.995394  0  0  -0.143201  0  4.016701  0  0  -0.082952  -0.13186  0  3.980879  0
C  C55  1  0.01138377  0.21514113  0.55644288  1  0  -0.122126  0  3.740438  0  0  -0.136235  0  3.995358  0  0  -0.1431  0  4.016662  0  0  -0.082933  -0.131759  0  3.980845  0
C  C56  1  0.93419206  0.83385912  0.35683133  1  0  -0.052577  0  3.705123  0  0  -0.077185  0  3.955802  0  0  -0.075257  0  3.974249  0  0  -0.063637  -0.078088  0  3.94301  0
C  C57  1  0.06581020  0.16614093  0.64317080  1  0  -0.052683  0  3.705144  0  0  -0.077238  0  3.955823  0  0  -0.075302  0  3.974263  0  0  -0.063643  -0.078141  0  3.943031  0
C  C58  1  0.77975972  0.77204528  0.26221211  1  0  0.026734  0  3.793558  0  0  0.042994  0  4.024819  0  0  0.040538  0  4.050139  0  0  0.001017  0.044473  0  4.007691  0
C  C59  1  0.22024270  0.22795486  0.73778617  1  0  0.026727  0  3.793835  0  0  0.043005  0  4.025002  0  0  0.040548  0  4.050321  0  0  0.001024  0.044483  0  4.007872  0
C  C60  1  0.71190490  0.81941485  0.17158086  1  0  -0.09815  0  3.728371  0  0  -0.121114  0  3.982403  0  0  -0.125459  0  4.006254  0  0  -0.079696  -0.118075  0  3.966199  0
C  C61  1  0.28810278  0.18058353  0.82841743  1  0  -0.098119  0  3.728353  0  0  -0.121102  0  3.982358  0  0  -0.125448  0  4.006211  0  0  -0.079685  -0.118062  0  3.966153  0
C  C62  1  0.55707276  0.76055625  0.08597696  1  0  -0.0869  0  3.706315  0  0  -0.11194  0  3.964684  0  0  -0.115079  0  3.987899  0  0  -0.077799  -0.109717  0  3.949048  0
C  C63  1  0.44292870  0.23944471  0.91402443  1  0  -0.086944  0  3.706342  0  0  -0.111958  0  3.964724  0  0  -0.115099  0  3.98794  0  0  -0.077788  -0.109734  0  3.949087  0
C  C64  1  0.46118767  0.64798671  0.08272353  1  0  0.027999  0  3.775965  0  0  0.04384  0  4.008948  0  0  0.040824  0  4.034241  0  0  0.001765  0.045641  0  3.991845  0
C  C65  1  0.53881220  0.35201609  0.91727639  1  0  0.028137  0  3.776172  0  0  0.043979  0  4.009277  0  0  0.040956  0  4.034565  0  0  0.001801  0.045778  0  3.992173  0
C  C66  1  0.30071332  0.58416172  0.99592534  1  0  -0.02656  0  3.649957  0  0  -0.051666  0  3.897279  0  0  -0.048405  0  3.91407  0  0  -0.053952  -0.053457  0  3.885706  0
C  C67  1  0.69928292  0.41584102  0.00407527  1  0  -0.026492  0  3.650177  0  0  -0.051569  0  3.897491  0  0  -0.048312  0  3.914289  0  0  -0.053921  -0.05336  0  3.885917  0
C  C68  1  0.21629770  0.47460054  0.99639451  1  0  -0.114633  0  3.723732  0  0  -0.129086  0  3.982095  0  0  -0.136407  0  4.003486  0  0  -0.081768  -0.124431  0  3.967611  0
C  C69  1  0.78369996  0.52539678  0.00360506  1  0  -0.11468  0  3.723765  0  0  -0.129126  0  3.982124  0  0  -0.136447  0  4.003513  0  0  -0.081782  -0.124472  0  3.967638  0
C  C70  1  0.29121883  0.42944768  0.08447281  1  0  0.162382  0  3.706236  0  0  0.129706  0  3.970557  0  0  0.13853  0  3.985479  0  0  0.063972  0.124113  0  3.960138  0
C  C71  1  0.70877561  0.57055678  0.91553095  1  0  0.162413  0  3.706087  0  0  0.129719  0  3.970388  0  0  0.138556  0  3.985316  0  0  0.063985  0.124127  0  3.959968  0
C  C72  1  0.52657409  0.59616981  0.16923222  1  0  0.136423  0  3.766307  0  0  0.132599  0  4.005412  0  0  0.13635  0  4.02781  0  0  0.121197  0.130162  0  3.990125  0
C  C73  1  0.47342559  0.40383009  0.83077396  1  0  0.136494  0  3.766267  0  0  0.132429  0  4.005656  0  0  0.136205  0  4.028029  0  0  0.121163  0.129993  0  3.990367  0
C  C74  1  0.68766396  0.66039060  0.26193047  1  0  0.140721  0  3.750698  0  0  0.136934  0  3.988331  0  0  0.140998  0  4.00956  0  0  0.123968  0.134257  0  3.973895  0
C  C75  1  0.31233261  0.33961026  0.73807287  1  0  0.140497  0  3.75081  0  0  0.136843  0  3.988408  0  0  0.140899  0  4.009634  0  0  0.123917  0.134167  0  3.973971  0
S  S76  1  0.82774010  0.48187329  0.65644456  1  0  1.363167  0  5.591165  0  0  1.264384  0  6.108446  0  0  1.313889  0  6.081634  0  0  0.533854  1.230228  0  6.125811  0
S  S77  1  0.17226037  0.51812778  0.34355193  1  0  1.363084  0  5.591501  0  0  1.264259  0  6.108833  0  0  1.313764  0  6.082024  0  0  0.533771  1.2301  0  6.126192  0
S  S78  1  0.61683171  0.89400383  0.84427833  1  0  1.32735  0  5.625042  0  0  1.229875  0  6.148378  0  0  1.27771  0  6.125453  0  0  0.521496  1.197413  0  6.162161  0
S  S79  1  0.38317451  0.10599716  0.15572419  1  0  1.32715  0  5.625202  0  0  1.229637  0  6.148573  0  0  1.277471  0  6.125645  0  0  0.521403  1.197175  0  6.162357  0
N  N80  1  0.74424161  0.61297541  0.34768123  1  0  -0.432924  0  3.24271  0  0  -0.381569  0  3.514711  0  0  -0.394916  0  3.530438  0  0  -0.387171  -0.372363  0  3.503709  0
N  N81  1  0.25575907  0.38702370  0.65232108  1  0  -0.432812  0  3.242524  0  0  -0.381465  0  3.514495  0  0  -0.394815  0  3.530228  0  0  -0.387142  -0.37226  0  3.503491  0
N  N82  1  0.44096901  0.48895973  0.16949517  1  0  -0.460236  0  3.253044  0  0  -0.41026  0  3.528279  0  0  -0.424936  0  3.545616  0  0  -0.386376  -0.400106  0  3.516054  0
N  N83  1  0.55902758  0.51104392  0.83050576  1  0  -0.460256  0  3.252814  0  0  -0.410219  0  3.528163  0  0  -0.424889  0  3.545455  0  0  -0.386366  -0.400068  0  3.515937  0
O  O84  1  0.99822099  0.50222119  0.73537980  1  0  -0.647181  0  1.94582  0  0  -0.588692  0  2.179225  0  0  -0.610607  0  2.166588  0  0  -0.319795  -0.573347  0  2.187471  0
O  O85  1  0.00177831  0.49777504  0.26461465  1  0  -0.647163  0  1.945716  0  0  -0.588687  0  2.179154  0  0  -0.6106  0  2.166517  0  0  -0.319808  -0.573342  0  2.187401  0
O  O86  1  0.75634531  0.57786507  0.69812713  1  0  -0.737023  0  2.037288  0  0  -0.682782  0  2.298814  0  0  -0.702786  0  2.28194  0  0  -0.380755  -0.66854  0  2.310214  0
O  O87  1  0.24365078  0.42213411  0.30187020  1  0  -0.736998  0  2.037396  0  0  -0.682736  0  2.298915  0  0  -0.702737  0  2.282046  0  0  -0.380728  -0.668488  0  2.310313  0
O  O88  1  0.81087239  0.46292482  0.53295853  1  0  -0.748101  0  1.983273  0  0  -0.692111  0  2.250757  0  0  -0.713103  0  2.234388  0  0  -0.388186  -0.676961  0  2.261346  0
O  O89  1  0.18912386  0.53707446  0.46703495  1  0  -0.748021  0  1.983399  0  0  -0.692019  0  2.250862  0  0  -0.713008  0  2.234491  0  0  -0.388109  -0.67688  0  2.261468  0
O  O90  1  0.47098387  0.87185205  0.87633942  1  0  -0.666034  0  1.945168  0  0  -0.609625  0  2.173133  0  0  -0.63087  0  2.157906  0  0  -0.331193  -0.594663  0  2.182906  0
O  O91  1  0.52902261  0.12814979  0.12366572  1  0  -0.665992  0  1.945384  0  0  -0.609504  0  2.17332  0  0  -0.630749  0  2.158097  0  0  -0.331157  -0.594539  0  2.183093  0
O  O92  1  0.61450437  0.77722460  0.76214216  1  0  -0.801003  0  1.994102  0  0  -0.738683  0  2.266883  0  0  -0.759512  0  2.24903  0  0  -0.454188  -0.724202  0  2.278672  0
O  O93  1  0.38550061  0.22277357  0.23786326  1  0  -0.80094  0  1.99401  0  0  -0.738608  0  2.266779  0  0  -0.759447  0  2.248953  0  0  -0.454182  -0.724124  0  2.278568  0
O  O94  1  0.77523147  0.95578742  0.94073899  1  0  -0.60141  0  1.869638  0  0  -0.563302  0  2.08692  0  0  -0.582639  0  2.073855  0  0  -0.333109  -0.549208  0  2.095029  0
O  O95  1  0.22477246  0.04421988  0.05926537  1  0  -0.601319  0  1.869562  0  0  -0.563218  0  2.086866  0  0  -0.582555  0  2.073802  0  0  -0.333053  -0.549122  0  2.094972  0
O  O96  1  0.47645439  0.38592759  0.51582250  1  0  -0.861516  0  2.195533  0  0  -0.790922  0  2.460031  0  0  -0.811573  0  2.450356  0  0  -0.520575  -0.775889  0  2.465475  0
O  O97  1  0.52354600  0.61407065  0.48417795  1  0  -0.861571  0  2.195582  0  0  -0.79098  0  2.460088  0  0  -0.811626  0  2.450406  0  0  -0.520622  -0.775947  0  2.465535  0
O  O98  1  0.73308171  0.34110976  0.27606045  1  0  -0.940779  0  1.828639  0  0  -0.887476  0  2.01922  0  0  -0.905559  0  1.985768  0  0  -0.654361  -0.874308  0  2.042484  0
O  O99  1  0.26691427  0.65889213  0.72393754  1  0  -0.94075  0  1.828673  0  0  -0.887471  0  2.019197  0  0  -0.905555  0  1.985746  0  0  -0.654329  -0.874308  0  2.042459  0
