# generated using pymatgen
data_MgH6C9NO4
_symmetry_space_group_name_H-M   'P 1'
_cell_length_a   6.86030347
_cell_length_b   28.84521616
_cell_length_c   28.84092619
_cell_angle_alpha   119.39457159
_cell_angle_beta   94.54282571
_cell_angle_gamma   94.53522731
_symmetry_Int_Tables_number   1
_chemical_formula_structural   MgH6C9NO4
_chemical_formula_sum   'Mg6 H36 C54 N6 O24'
_cell_volume   4910.95196909
_cell_formula_units_Z   6
loop_
 _symmetry_equiv_pos_site_id
 _symmetry_equiv_pos_as_xyz
  1  'x, y, z'
loop_
 _atom_site_type_symbol
 _atom_site_label
 _atom_site_symmetry_multiplicity
 _atom_site_fract_x
 _atom_site_fract_y
 _atom_site_fract_z
 _atom_site_occupancy
 _atom_site_pbe_bader_charge
 _atom_site_pbe_bader_spin_density
 _atom_site_pbe_cm5_charge
 _atom_site_pbe_ddec_charge
 _atom_site_pbe_ddec_spin_density
 _atom_site_pbe_ddec_sum_bond_order
 _atom_site_pbe_magmom
Mg  Mg0  1  0.41062758  0.67963037  0.30523004  1  1.6835  0  0.907053  1.410151  0  1.324152  0
Mg  Mg1  1  0.64476667  0.32424380  0.69757478  1  1.683399  0  0.906674  1.409971  0  1.325353  0
Mg  Mg2  1  0.10532899  0.69467155  0.37447572  1  1.683887  0  0.906865  1.409375  0  1.324833  0
Mg  Mg3  1  0.94723169  0.30250863  0.62650408  1  1.68344  0  0.906745  1.410298  0  1.32505  0
Mg  Mg4  1  0.73107952  0.62545742  0.32024829  1  1.684002  0  0.906962  1.409503  0  1.325001  0
Mg  Mg5  1  0.32057315  0.37362132  0.67590968  1  1.684011  0  0.906485  1.409414  0  1.326092  0
H  H6  1  0.63307753  0.03739382  0.48241654  1  0.435035  0  0.323858  0.278038  0  0.923049  0
H  H7  1  0.87416177  0.16891312  0.59367507  1  0.134251  0  0.112277  0.149985  0  1.020818  0
H  H8  1  0.16743119  0.15360693  0.52855677  1  0.114531  0  0.106692  0.110778  0  0.995837  0
H  H9  1  0.34078610  0.07276224  0.48804112  1  0.056217  0  0.096952  0.105267  0  1.012938  0
H  H10  1  0.97764590  0.00366173  0.46090870  1  0.083241  0  0.107978  0.1238  0  0.964171  0
H  H11  1  0.81323762  0.97302372  0.48421097  1  0.043858  0  0.100904  0.110012  0  0.996166  0
H  H12  1  0.07413641  0.98841601  0.55811988  1  0.056334  0  0.105012  0.117473  0  0.964843  0
H  H13  1  0.23452317  0.02590053  0.54075578  1  0.064727  0  0.103941  0.116182  0  0.995342  0
H  H14  1  0.40548701  0.95429939  0.54275095  1  0.454946  0  0.325307  0.280906  0  0.919171  0
H  H15  1  0.18277833  0.83092578  0.42060937  1  0.128492  0  0.113967  0.150204  0  1.010027  0
H  H16  1  0.88642378  0.84019778  0.48373463  1  0.114842  0  0.10623  0.110388  0  0.996643  0
H  H17  1  0.71318671  0.92028175  0.53151370  1  0.020556  0  0.096879  0.104388  0  1.012993  0
H  H18  1  0.15082627  0.51772340  0.55496948  1  0.439641  0  0.323538  0.277876  0  0.923663  0
H  H19  1  0.28011545  0.40647060  0.57524241  1  0.150237  0  0.112461  0.149697  0  1.021372  0
H  H20  1  0.63842213  0.47160796  0.62495779  1  0.090524  0  0.106558  0.110625  0  0.996177  0
H  H21  1  0.85254882  0.51212968  0.58471068  1  0.040526  0  0.096707  0.105084  0  1.012292  0
H  H22  1  0.51702445  0.53915410  0.54276325  1  0.088616  0  0.108  0.123628  0  0.964841  0
H  H23  1  0.32961327  0.51577731  0.48872934  1  0.043149  0  0.10095  0.109699  0  0.996683  0
H  H24  1  0.51693548  0.44183452  0.43038368  1  0.065376  0  0.104841  0.117607  0  0.965211  0
H  H25  1  0.69453080  0.45933420  0.48532044  1  0.049797  0  0.104101  0.11617  0  0.995415  0
H  H26  1  0.86373828  0.45720342  0.41167107  1  0.448114  0  0.324991  0.280302  0  0.919964  0
H  H27  1  0.76260193  0.57919195  0.41028837  1  0.134768  0  0.113607  0.150023  0  1.010988  0
H  H28  1  0.40340805  0.51624405  0.35648717  1  0.106403  0  0.106167  0.109938  0  0.996576  0
H  H29  1  0.18266925  0.46842926  0.38877849  1  0.053897  0  0.096759  0.104564  0  1.013229  0
H  H30  1  0.59570302  0.44488172  0.96266432  1  0.442353  0  0.323957  0.277934  0  0.922357  0
H  H31  1  0.70491695  0.42469460  0.83113363  1  0.132862  0  0.11257  0.14976  0  1.020814  0
H  H32  1  0.01352055  0.37503720  0.84649993  1  0.0899  0  0.10661  0.110738  0  0.995739  0
H  H33  1  0.26783649  0.41516122  0.92728269  1  0.042025  0  0.097127  0.1058  0  1.012151  0
H  H34  1  0.97396708  0.45727044  0.99644388  1  0.048872  0  0.108008  0.123909  0  0.96441  0
H  H35  1  0.84054743  0.51132868  0.02705413  1  0.053944  0  0.100791  0.10991  0  0.995976  0
H  H36  1  0.08628114  0.56958562  0.01142199  1  0.056335  0  0.104844  0.117858  0  0.964563  0
H  H37  1  0.20884865  0.51462441  0.97395488  1  0.085221  0  0.104192  0.116778  0  0.995164  0
H  H38  1  0.45167290  0.58837268  0.04561524  1  0.445895  0  0.324973  0.280172  0  0.919745  0
H  H39  1  0.35228585  0.58957773  0.16896909  1  0.136834  0  0.113684  0.150188  0  1.010408  0
H  H40  1  0.04658356  0.64344327  0.15974336  1  0.105945  0  0.106391  0.110166  0  0.996506  0
H  H41  1  0.79341879  0.61118861  0.07966948  1  0.020048  0  0.096803  0.104419  0  1.013623  0
C  C42  1  0.88430719  0.05952373  0.53539260  1  1.393634  0  0.237679  0.523043  0  4.078117  0
C  C43  1  0.61869341  0.11576056  0.53911808  1  0.313444  0  0.096418  0.277956  0  4.078176  0
C  C44  1  0.71990942  0.16518820  0.57889833  1  0.040675  0  -0.114381  -0.320184  0  3.903759  0
C  C45  1  0.62486066  0.21144778  0.60101847  1  0.556965  0  0.098335  0.386289  0  4.086775  0
C  C46  1  0.41955663  0.20669893  0.58291873  1  0.053486  0  -0.045102  -0.220891  0  3.954902  0
C  C47  1  0.32291356  0.15625727  0.54202432  1  -0.028409  0  -0.081338  -0.034887  0  4.03226  0
C  C48  1  0.41875812  0.11138472  0.51977295  1  -0.102183  0  -0.120959  -0.243644  0  4.047425  0
C  C49  1  0.30368837  0.25185008  0.60471551  1  1.502299  0  0.236311  0.67872  0  4.126181  0
C  C50  1  0.94024238  0.00459816  0.49779499  1  -0.049429  0  -0.16157  -0.279662  0  3.987893  0
C  C51  1  0.11403429  0.99205693  0.52368991  1  -0.048894  0  -0.160543  -0.279765  0  3.988566  0
C  C52  1  0.18506449  0.94046502  0.48344585  1  1.39935  0  0.236824  0.523689  0  4.081894  0
C  C53  1  0.43678885  0.88077435  0.47827854  1  0.327357  0  0.0963  0.276235  0  4.079094  0
C  C54  1  0.33659645  0.83342698  0.43494877  1  0.018393  0  -0.111997  -0.314305  0  3.90421  0
C  C55  1  0.43095289  0.78746734  0.40861754  1  0.582886  0  0.098797  0.38677  0  4.083816  0
C  C56  1  0.63558667  0.79058926  0.42620451  1  -0.031331  0  -0.044195  -0.220199  0  3.955611  0
C  C57  1  0.73160917  0.83890929  0.47067890  1  0.031764  0  -0.082857  -0.039963  0  4.030396  0
C  C58  1  0.63578867  0.88337026  0.49704876  1  -0.058754  0  -0.120877  -0.242064  0  4.045139  0
C  C59  1  0.75054488  0.74563573  0.40050804  1  1.506207  0  0.236032  0.67824  0  4.124935  0
C  C60  1  0.34909548  0.46471080  0.52418840  1  1.405418  0  0.237514  0.522937  0  4.077895  0
C  C61  1  0.07937124  0.46104781  0.57663287  1  0.286851  0  0.096648  0.278888  0  4.078035  0
C  C62  1  0.14064242  0.42126500  0.58627455  1  0.06058  0  -0.114751  -0.319994  0  3.904422  0
C  C63  1  0.02337450  0.39915223  0.61038142  1  0.561301  0  0.098708  0.387076  0  4.085805  0
C  C64  1  0.83611738  0.41723369  0.62369097  1  0.016719  0  -0.045375  -0.221756  0  3.956413  0
C  C65  1  0.78049198  0.45815000  0.61418745  1  0.000265  0  -0.081794  -0.034897  0  4.032544  0
C  C66  1  0.89877207  0.48041164  0.59161516  1  -0.077764  0  -0.120121  -0.243544  0  4.045867  0
C  C67  1  0.69865876  0.39540549  0.64701184  1  1.495546  0  0.236338  0.679081  0  4.126151  0
C  C68  1  0.44289505  0.50224016  0.50681995  1  -0.0547  0  -0.161571  -0.278866  0  3.986421  0
C  C69  1  0.59108702  0.47631807  0.46844757  1  -0.020533  0  -0.160788  -0.279844  0  3.987652  0
C  C70  1  0.70229696  0.51650972  0.45704402  1  1.366172  0  0.236877  0.522477  0  4.081171  0
C  C71  1  0.95925125  0.52160807  0.40249824  1  0.329961  0  0.096591  0.276341  0  4.079992  0
C  C72  1  0.90214137  0.56489174  0.39844552  1  0.050127  0  -0.111552  -0.313073  0  3.905283  0
C  C73  1  0.02264475  0.59125567  0.37884419  1  0.576145  0  0.098847  0.385088  0  4.084176  0
C  C74  1  0.20978410  0.57371862  0.36440890  1  -0.034754  0  -0.044451  -0.219035  0  3.954573  0
C  C75  1  0.26159185  0.52927130  0.36825601  1  -0.026547  0  -0.082964  -0.039941  0  4.029767  0
C  C76  1  0.13961709  0.50289298  0.38635746  1  -0.062921  0  -0.120797  -0.242346  0  4.046328  0
C  C77  1  0.35038011  0.59945463  0.34521129  1  1.503087  0  0.235912  0.677855  0  4.127568  0
C  C78  1  0.82465476  0.47575277  0.94050208  1  1.404629  0  0.23719  0.521165  0  4.080477  0
C  C79  1  0.50278696  0.42326875  0.88431104  1  0.32752  0  0.096804  0.279039  0  4.076768  0
C  C80  1  0.55441863  0.41368170  0.83488662  1  0.019551  0  -0.114935  -0.320069  0  3.903142  0
C  C81  1  0.41303790  0.38967421  0.78866379  1  0.600736  0  0.098346  0.386744  0  4.085201  0
C  C82  1  0.21249424  0.37637123  0.79343266  1  -0.024963  0  -0.045213  -0.22159  0  3.957094  0
C  C83  1  0.16637478  0.38580526  0.84384040  1  -0.049526  0  -0.081873  -0.034585  0  4.032928  0
C  C84  1  0.30721165  0.40830129  0.88867093  1  -0.017735  0  -0.120578  -0.244697  0  4.046833  0
C  C85  1  0.05162866  0.35313218  0.74829227  1  1.502091  0  0.236257  0.678229  0  4.127203  0
C  C86  1  0.93575640  0.49318360  0.99542769  1  -0.02537  0  -0.161293  -0.279021  0  3.985737  0
C  C87  1  0.12235865  0.53152268  0.00784508  1  -0.05756  0  -0.160623  -0.280671  0  3.987185  0
C  C88  1  0.24501084  0.54291765  0.05944804  1  1.371787  0  0.236557  0.522697  0  4.081899  0
C  C89  1  0.55644054  0.59741278  0.11913544  1  0.296527  0  0.09666  0.276985  0  4.078065  0
C  C90  1  0.50356221  0.60141774  0.16647798  1  0.040597  0  -0.111726  -0.314445  0  3.903734  0
C  C91  1  0.64379220  0.62102619  0.21243719  1  0.547905  0  0.099549  0.387042  0  4.082198  0
C  C92  1  0.84528747  0.63547803  0.20932090  1  0.052417  0  -0.044906  -0.220431  0  3.956627  0
C  C93  1  0.89304288  0.63169114  0.16103272  1  -0.09035  0  -0.083235  -0.040124  0  4.031653  0
C  C94  1  0.75286651  0.61361547  0.11657119  1  0.025534  0  -0.120639  -0.242002  0  4.046868  0
C  C95  1  0.00506718  0.65471554  0.25426851  1  1.481927  0  0.236404  0.678798  0  4.125086  0
N  N96  1  0.70954435  0.06896490  0.51639991  1  -1.235706  0  -0.403469  -0.395189  0  3.571489  0
N  N97  1  0.34257118  0.92665051  0.50486899  1  -1.258271  0  -0.405986  -0.403405  0  3.566464  0
N  N98  1  0.19316370  0.48373821  0.55257522  1  -1.258824  0  -0.403127  -0.395446  0  3.571549  0
N  N99  1  0.83857592  0.49506450  0.42184253  1  -1.251357  0  -0.405277  -0.402704  0  3.56626  0
N  N100  1  0.64055434  0.44727970  0.93108240  1  -1.258832  0  -0.403849  -0.395188  0  3.571092  0
N  N101  1  0.41633836  0.57815252  0.07326282  1  -1.2438  0  -0.405645  -0.402872  0  3.565197  0
O  O102  1  0.93107974  0.74964893  0.41809747  1  -1.244312  0  -0.356123  -0.64669  0  2.143624  0
O  O103  1  0.66426202  0.70159804  0.35874047  1  -1.300348  0  -0.403883  -0.772059  0  2.410708  0
O  O104  1  0.32175178  0.74295343  0.36853859  1  -1.314475  0  -0.446799  -0.773339  0  2.30229  0
O  O105  1  0.12248485  0.24612883  0.58661099  1  -1.245162  0  -0.356515  -0.647037  0  2.141683  0
O  O106  1  0.38979346  0.29788791  0.64366927  1  -1.303624  0  -0.404904  -0.773059  0  2.41355  0
O  O107  1  0.73396864  0.25777383  0.63798325  1  -1.313183  0  -0.447443  -0.774335  0  2.304393  0
O  O108  1  0.98730865  0.09225171  0.57795126  1  -1.130525  0  -0.288965  -0.462403  0  2.082129  0
O  O109  1  0.10901394  0.91369701  0.43622296  1  -1.139639  0  -0.292602  -0.465399  0  2.068697  0
O  O110  1  0.51344626  0.58190668  0.33169283  1  -1.242387  0  -0.355614  -0.646437  0  2.145545  0
O  O111  1  0.30562133  0.64118001  0.34289782  1  -1.295977  0  -0.404389  -0.772503  0  2.411692  0
O  O112  1  0.95337370  0.63132470  0.37442212  1  -1.306384  0  -0.446821  -0.772272  0  2.30083  0
O  O113  1  0.53562098  0.41353392  0.65947859  1  -1.241784  0  -0.356519  -0.646727  0  2.142126  0
O  O114  1  0.74590784  0.35640096  0.65399079  1  -1.297934  0  -0.404819  -0.773471  0  2.412233  0
O  O115  1  0.09559229  0.36219451  0.61973436  1  -1.302031  0  -0.447464  -0.774394  0  2.303894  0
O  O116  1  0.40938437  0.42215702  0.51440497  1  -1.129002  0  -0.288805  -0.462361  0  2.083249  0
O  O117  1  0.67314588  0.56370726  0.47742167  1  -1.124537  0  -0.292794  -0.464828  0  2.068289  0
O  O118  1  0.18159432  0.66824814  0.25023492  1  -1.240519  0  -0.355536  -0.64622  0  2.143918  0
O  O119  1  0.96266574  0.65706252  0.29832771  1  -1.297046  0  -0.404765  -0.772764  0  2.410892  0
O  O120  1  0.57895527  0.62543463  0.25693098  1  -1.303522  0  -0.446875  -0.773282  0  2.300802  0
O  O121  1  0.87609247  0.34076539  0.75398357  1  -1.237635  0  -0.356713  -0.646929  0  2.142387  0
O  O122  1  0.09186259  0.34610643  0.70228204  1  -1.298591  0  -0.404631  -0.77239  0  2.412543  0
O  O123  1  0.47590022  0.38039739  0.74235830  1  -1.304407  0  -0.446741  -0.773989  0  2.303566  0
O  O124  1  0.89466393  0.48559099  0.90775495  1  -1.127029  0  -0.288477  -0.461203  0  2.083558  0
O  O125  1  0.19577782  0.52248903  0.08623410  1  -1.121835  0  -0.292753  -0.464977  0  2.069893  0
