# generated using pymatgen
data_MnH24C28(N7O2)2
_symmetry_space_group_name_H-M   'P 1'
_cell_length_a   7.30745924
_cell_length_b   7.56578578
_cell_length_c   14.32180892
_cell_angle_alpha   100.25532588
_cell_angle_beta   93.22599706
_cell_angle_gamma   115.71999375
_symmetry_Int_Tables_number   1
_chemical_formula_structural   MnH24C28(N7O2)2
_chemical_formula_sum   'Mn1 H24 C28 N14 O4'
_cell_volume   693.95200070
_cell_formula_units_Z   1
loop_
 _symmetry_equiv_pos_site_id
 _symmetry_equiv_pos_as_xyz
  1  'x, y, z'
loop_
 _atom_site_type_symbol
 _atom_site_label
 _atom_site_symmetry_multiplicity
 _atom_site_fract_x
 _atom_site_fract_y
 _atom_site_fract_z
 _atom_site_occupancy
 _atom_site_hle17_bader_charge
 _atom_site_hle17_bader_spin_density
 _atom_site_hle17_ddec_charge
 _atom_site_hle17_ddec_spin_density
 _atom_site_hle17_ddec_sum_bond_order
 _atom_site_hle17_magmom
 _atom_site_hse06_10hf_bader_charge
 _atom_site_hse06_10hf_bader_spin_density
 _atom_site_hse06_10hf_ddec_charge
 _atom_site_hse06_10hf_ddec_spin_density
 _atom_site_hse06_10hf_ddec_sum_bond_order
 _atom_site_hse06_10hf_magmom
 _atom_site_hse06_bader_charge
 _atom_site_hse06_bader_spin_density
 _atom_site_hse06_ddec_charge
 _atom_site_hse06_ddec_spin_density
 _atom_site_hse06_ddec_sum_bond_order
 _atom_site_hse06_magmom
 _atom_site_pbe_cm5_charge
 _atom_site_pbe_ddec_charge
 _atom_site_pbe_ddec_spin_density
 _atom_site_pbe_ddec_sum_bond_order
 _atom_site_pbe_magmom
Mn  Mn0  1  0.99999756  0.99999892  0.00003130  1  1.379971  -1.098287  0.825704  -1.148594  3.093562  -1.102  1.422686  -1.015225  0.737489  -1.054583  3.684239  -1.012  1.446989  -0.98933  0.788151  -1.03818  3.59826  -0.989  0.769315  0.706226  -1.039108  3.730186  -0.995
H  H1  1  0.17650605  0.49962939  0.33855772  1  0.513021  1e-06  0.313282  -5e-06  0.958066  0.0  0.510602  1e-06  0.280965  1e-06  1.049213  0.0  0.525026  -8e-06  0.290557  -4e-06  1.040846  0.0  0.289115  0.274188  4e-06  1.05509  0.0
H  H2  1  0.82349890  0.50037238  0.66143782  1  0.513129  1e-06  0.313254  -5e-06  0.957893  0.0  0.510722  1e-06  0.280925  1e-06  1.049077  0.0  0.52512  -8e-06  0.290518  -4e-06  1.04071  0.0  0.289097  0.274146  4e-06  1.05495  0.0
H  H3  1  0.08591977  0.56296643  0.44377232  1  0.531567  2e-06  0.33531  2e-06  0.913864  0.0  0.528272  3e-06  0.316185  5e-06  0.975762  0.0  0.539308  0.0  0.325382  1e-05  0.968313  0.0  0.297572  0.309697  9e-06  0.981065  0.0
H  H4  1  0.91408448  0.43703384  0.55622306  1  0.531541  2e-06  0.335264  2e-06  0.913895  0.0  0.528156  3e-06  0.316143  5e-06  0.975776  0.0  0.539309  0.0  0.325339  1e-05  0.96833  0.0  0.29756  0.309655  9e-06  0.981081  0.0
H  H5  1  0.05287396  0.27378472  0.20587291  1  0.084389  0.000178  0.088683  0.000238  0.936978  0.0  0.128327  0.000363  0.099871  0.000373  0.997441  0.0  0.131888  0.000212  0.101685  0.000256  0.995069  0.0  0.126271  0.098535  0.000289  0.999271  0.0
H  H6  1  0.94713165  0.72621553  0.79412181  1  0.084398  0.000179  0.088606  0.000239  0.937023  0.0  0.128465  0.000362  0.099804  0.000372  0.997475  0.0  0.131974  0.000212  0.101618  0.000256  0.995104  0.0  0.126274  0.098465  0.000289  0.9993  0.0
H  H7  1  0.89727590  0.88100382  0.40469725  1  0.083302  -0.000134  0.107497  -5.5e-05  0.952694  0.0  0.127979  4.7e-05  0.118007  4.8e-05  1.014697  0.0  0.134358  1.3e-05  0.121454  2.2e-05  1.010938  0.0  0.11328  0.115508  9.2e-05  1.017266  0.0
H  H8  1  0.10273049  0.11900398  0.59530028  1  0.083301  -0.000133  0.107502  -5.5e-05  0.952576  0.0  0.127934  4.7e-05  0.117948  4.8e-05  1.014667  0.0  0.134436  1.3e-05  0.121384  2.2e-05  1.010922  0.0  0.113278  0.115455  9.2e-05  1.017237  0.0
H  H9  1  0.85796287  0.60184830  0.26926241  1  0.051581  0.00031  0.113138  0.000237  0.945746  0.0  0.094623  0.00011  0.121165  9.4e-05  1.008048  0.0  0.096894  7e-05  0.1242  7.9e-05  1.007072  0.0  0.110109  0.11887  9.6e-05  1.009086  0.0
H  H10  1  0.14204486  0.39815349  0.73073599  1  0.051901  0.000309  0.11318  0.000236  0.945733  0.0  0.094574  0.00011  0.121227  9.3e-05  1.007995  0.0  0.096681  6.9e-05  0.124259  7.9e-05  1.00702  0.0  0.110128  0.118953  9.6e-05  1.009001  0.0
H  H11  1  0.92149035  0.67830925  0.10710194  1  0.075453  4.4e-05  0.080617  -1.1e-05  0.989467  0.0  0.153569  0.000435  0.086377  0.000319  1.059841  0.0  0.158095  0.000399  0.08779  0.000542  1.058462  0.0  0.118946  0.0851  0.000432  1.061591  0.0
H  H12  1  0.07850017  0.32167902  0.89289546  1  0.075587  4.6e-05  0.080594  -9e-06  0.98955  0.0  0.153293  0.000435  0.086389  0.000319  1.059902  0.0  0.157956  0.000399  0.087799  0.000542  1.058528  0.0  0.118932  0.085113  0.000432  1.061654  0.0
H  H13  1  0.59390028  0.64911120  0.46568049  1  0.556838  1e-06  0.349386  0.0  0.914872  0.0  0.55345  1e-06  0.328154  0.0  0.97912  0.0  0.566765  -1e-06  0.337899  -2e-06  0.970829  0.0  0.296635  0.321224  3e-06  0.985049  0.0
H  H14  1  0.40609993  0.35089211  0.53431716  1  0.556855  1e-06  0.349408  0.0  0.914836  0.0  0.553478  1e-06  0.328167  0.0  0.979099  0.0  0.566718  -1e-06  0.337915  -2e-06  0.970803  0.0  0.296614  0.321236  3e-06  0.985029  0.0
H  H15  1  0.68993578  0.91401831  0.50268239  1  0.479883  8e-06  0.327601  1.3e-05  0.912648  0.0  0.485227  8e-06  0.305578  1e-05  0.986956  0.0  0.494098  -4e-06  0.313427  -1.2e-05  0.980343  0.0  0.299792  0.299957  2.3e-05  0.991774  0.0
H  H16  1  0.31006645  0.08598348  0.49731448  1  0.479915  8e-06  0.327631  1.4e-05  0.912652  0.0  0.484671  8e-06  0.305597  1e-05  0.986986  0.0  0.49413  -4e-06  0.313448  -1.2e-05  0.980368  0.0  0.299793  0.299975  2.3e-05  0.9918  0.0
H  H17  1  0.68729524  0.15147820  0.58407088  1  0.041641  2e-06  0.075756  5e-06  0.979053  0.0  0.086723  6e-06  0.084297  5e-06  1.045017  0.0  0.138383  -1e-06  0.087274  -2e-06  1.042183  0.0  0.115698  0.082123  1.1e-05  1.047075  0.0
H  H18  1  0.31270774  0.84852512  0.41592894  1  0.041683  3e-06  0.075767  5e-06  0.979029  0.0  0.086757  6e-06  0.084304  4e-06  1.045015  0.0  0.138461  -1e-06  0.087282  -3e-06  1.042181  0.0  0.115714  0.08213  1.2e-05  1.047074  0.0
H  H19  1  0.40944989  0.75012955  0.76891658  1  0.086067  5.9e-05  0.098995  2.8e-05  0.954975  0.0  0.12954  5.2e-05  0.10649  3e-05  1.022653  0.0  0.13445  -2.6e-05  0.11004  -5.7e-05  1.019324  0.0  0.108729  0.103825  3.8e-05  1.025325  0.0
H  H20  1  0.59055031  0.24987076  0.23108219  1  0.086046  5.9e-05  0.098957  2.8e-05  0.955  0.0  0.129413  5.2e-05  0.106449  3e-05  1.022691  0.0  0.134439  -2.6e-05  0.109999  -5.7e-05  1.019364  0.0  0.108716  0.103784  3.8e-05  1.025363  0.0
H  H21  1  0.44060144  0.05129604  0.89046431  1  -0.002439  0.000325  0.088884  0.000518  0.997459  0.0  0.096395  0.000327  0.100117  0.000475  1.059749  0.0  0.098396  0.000318  0.100964  0.000435  1.062015  0.0  0.104159  0.098798  0.000521  1.059653  0.0
H  H22  1  0.55939942  0.94870275  0.10953364  1  -0.002404  0.000325  0.088846  0.000518  0.997508  0.0  0.09639  0.000326  0.100078  0.000475  1.059807  0.0  0.098421  0.000318  0.100925  0.000435  1.062074  0.0  0.104147  0.09876  0.000522  1.059712  0.0
H  H23  1  0.60568570  0.39136401  0.85165716  1  0.025129  3.5e-05  0.076557  6.5e-05  0.935529  0.0  0.11554  -1e-06  0.086425  2.7e-05  0.997641  0.0  0.12406  -3.9e-05  0.089044  5e-06  0.995608  0.0  0.11312  0.085063  5.9e-05  0.998713  0.0
H  H24  1  0.39431518  0.60863479  0.14834149  1  0.025098  3.5e-05  0.076539  6.5e-05  0.935515  0.0  0.115515  -1e-06  0.086405  2.7e-05  0.997632  0.0  0.124033  -3.9e-05  0.089034  5e-06  0.995589  0.0  0.113111  0.085044  5.9e-05  0.998707  0.0
C  C25  1  0.46648031  0.26847946  0.04326884  1  1.403526  0.038329  0.474693  0.04511  3.939741  0.031  1.469676  -0.003231  0.440658  -0.0025  4.228045  -0.003  1.530666  -0.000389  0.465337  0.000777  4.243597  0.0  0.304968  0.415617  0.012136  4.231401  0.009
C  C26  1  0.53351265  0.73152853  0.95674374  1  1.403412  0.038361  0.474998  0.045143  3.939426  0.031  1.469634  -0.003229  0.440972  -0.002493  4.227759  -0.003  1.530715  -0.000394  0.465651  0.000774  4.243297  0.0  0.305094  0.415937  0.012143  4.231124  0.009
C  C27  1  0.77623823  0.26271720  0.03875917  1  1.486044  0.01143  0.475222  0.014914  3.928191  0.009  1.56137  0.019406  0.427876  0.021479  4.238931  0.016  1.643963  0.002601  0.46017  0.00376  4.240706  0.002  0.305768  0.411696  0.009392  4.224046  0.007
C  C28  1  0.22375929  0.73726814  0.96124861  1  1.486063  0.011444  0.475362  0.014934  3.928113  0.009  1.561111  0.019413  0.428  0.021487  4.238875  0.016  1.64262  0.002597  0.4603  0.003755  4.240653  0.002  0.305806  0.41183  0.009399  4.223976  0.007
C  C29  1  0.01258501  0.12887061  0.22416369  1  0.467117  0.002774  0.107485  0.003362  3.638634  0.002  0.435804  -0.00114  0.072423  -0.00019  3.880388  -0.001  0.453154  -0.00604  0.082774  -0.004152  3.898472  -0.004  0.060256  0.065033  0.000549  3.867847  0.0
C  C30  1  0.98741713  0.87112813  0.77582870  1  0.466762  0.002743  0.107683  0.00333  3.638822  0.002  0.435446  -0.001128  0.072582  -0.000181  3.880485  -0.001  0.453034  -0.006006  0.082916  -0.004125  3.898582  -0.004  0.060266  0.065207  0.000553  3.867926  0.0
C  C31  1  0.97782493  0.09939988  0.31662536  1  0.075525  -0.001443  -0.11934  -0.001037  3.758937  -0.001  0.068672  0.001268  -0.091777  0.001396  3.990698  0.001  0.071601  0.003939  -0.105548  0.004284  4.015466  0.003  -0.010979  -0.083186  0.00143  3.974316  0.001
C  C32  1  0.02217793  0.90060037  0.68336859  1  0.077154  -0.001421  -0.119266  -0.001018  3.75884  -0.001  0.068803  0.001263  -0.09171  0.001391  3.990542  0.001  0.071367  0.003921  -0.105481  0.004265  4.015325  0.003  -0.010961  -0.083118  0.001427  3.974157  0.001
C  C33  1  0.92158678  0.90711563  0.33320455  1  -0.005648  0.004329  -0.007597  0.004656  3.679793  0.003  -0.061628  -0.000669  -0.040325  -0.000558  3.92918  0.0  -0.062757  -0.007043  -0.031134  -0.005694  3.942792  -0.004  -0.061105  -0.045349  0.001073  3.919232  0.001
C  C34  1  0.07841751  0.09288765  0.66679181  1  -0.007777  0.004287  -0.007673  0.004612  3.679668  0.003  -0.061674  -0.000665  -0.040393  -0.000555  3.929117  0.0  -0.063011  -0.007005  -0.031219  -0.005663  3.94275  -0.004  -0.061112  -0.045412  0.001073  3.919166  0.001
C  C35  1  0.90233740  0.75292806  0.25829198  1  0.087534  -0.000561  -0.106018  -0.000138  3.724043  0.0  0.035018  0.001294  -0.117627  0.001403  3.979119  0.001  0.038688  0.003879  -0.126382  0.004142  3.998539  0.003  -0.078695  -0.112619  0.00175  3.966059  0.001
C  C36  1  0.09766690  0.24707523  0.74170508  1  0.089215  -0.000542  -0.105956  -0.000122  3.72393  0.0  0.034934  0.001289  -0.117554  0.001398  3.97902  0.001  0.038905  0.00386  -0.1263  0.004121  3.998448  0.003  -0.078688  -0.112558  0.001744  3.965933  0.001
C  C37  1  0.93855312  0.79419089  0.16849606  1  0.482528  0.002853  0.126224  0.003405  3.676868  0.002  0.424712  -0.001035  0.091868  -0.000618  3.93204  -0.001  0.441196  -0.006572  0.10289  -0.00517  3.949473  -0.005  0.055504  0.085583  0.000369  3.919421  0.0
C  C38  1  0.06144153  0.20580338  0.83150061  1  0.482131  0.002824  0.126157  0.003373  3.677293  0.002  0.425013  -0.001026  0.091699  -0.000611  3.932476  -0.001  0.441379  -0.006537  0.1027  -0.00514  3.949924  -0.005  0.055418  0.085418  0.000375  3.919857  0.0
C  C39  1  0.98556842  0.26006528  0.39717577  1  1.414876  0.00011  0.618867  0.000121  3.856431  0.0  1.470981  0.000171  0.567721  0.000175  4.145594  0.0  1.532907  0.000156  0.598045  0.000172  4.145753  0.0  0.240742  0.547326  0.000214  4.144891  0.0
C  C40  1  0.01443647  0.73993346  0.60281739  1  1.413882  0.000109  0.618917  0.00012  3.856615  0.0  1.471048  0.000171  0.567861  0.000175  4.145617  0.0  1.533141  0.000155  0.598187  0.000172  4.145771  0.0  0.240807  0.547464  0.000213  4.144916  0.0
C  C41  1  0.63162967  0.12209159  0.65150765  1  0.560125  0.000109  0.104199  0.000123  3.7016  0.0  0.528372  6.8e-05  0.070261  7.1e-05  3.950783  0.0  0.507221  5e-06  0.077706  1.2e-05  3.967459  0.0  0.046381  0.065536  0.000165  3.939711  0.0
C  C42  1  0.36837257  0.87790720  0.34849033  1  0.560194  0.000109  0.104206  0.000123  3.701608  0.0  0.528369  6.6e-05  0.070256  6.9e-05  3.950787  0.0  0.50726  5e-06  0.077701  1.2e-05  3.967462  0.0  0.046372  0.065528  0.000165  3.93972  0.0
C  C43  1  0.54523222  0.92672888  0.66712131  1  0.006383  -4.2e-05  -0.11693  -3.3e-05  3.757178  0.0  -0.004769  0.000109  -0.091493  0.000107  3.9919  0.0  -0.013037  3.4e-05  -0.102694  4.3e-05  4.015887  0.0  -0.014903  -0.084626  0.000188  3.976061  0.0
C  C44  1  0.45477073  0.07327443  0.33287712  1  0.006691  -4.2e-05  -0.116938  -3.3e-05  3.757347  0.0  -0.004719  0.000112  -0.091479  0.00011  3.992027  0.0  -0.013136  3.5e-05  -0.102679  4.3e-05  4.016014  0.0  -0.014913  -0.084612  0.000188  3.976185  0.0
C  C45  1  0.47709400  0.90089346  0.75514404  1  -0.005052  0.000111  -0.01456  0.000146  3.699989  0.0  -0.057064  9.2e-05  -0.044946  0.000111  3.949302  0.0  -0.051889  -2.9e-05  -0.040311  -2.6e-05  3.967431  0.0  -0.063055  -0.047679  0.0003  3.937527  0.0
C  C46  1  0.52290549  0.09910534  0.24485388  1  -0.005399  0.000111  -0.014461  0.000146  3.700084  0.0  -0.057028  8.9e-05  -0.044857  0.000108  3.94938  0.0  -0.051785  -2.9e-05  -0.040222  -2.7e-05  3.967508  0.0  -0.063015  -0.047591  0.0003  3.937602  0.0
C  C47  1  0.49679214  0.06767425  0.82227681  1  0.087561  0.000245  -0.120459  0.000338  3.750558  0.0  -0.078174  0.000224  -0.131704  0.000335  4.001608  0.0  -0.016652  -7.5e-05  -0.140716  -3.4e-05  4.02806  0.0  -0.086226  -0.126517  0.000391  3.984973  0.0
C  C48  1  0.50320876  0.93232756  0.17772212  1  0.087539  0.000245  -0.120478  0.000339  3.750601  0.0  -0.078117  0.000228  -0.131724  0.000338  4.001659  0.0  -0.016684  -7.5e-05  -0.140738  -3.4e-05  4.028118  0.0  -0.086217  -0.126536  0.000391  3.985013  0.0
C  C49  1  0.58598590  0.25673165  0.80026310  1  0.5389  5.5e-05  0.124977  6.5e-05  3.71469  0.0  0.527461  3.4e-05  0.096468  3.3e-05  3.971945  0.0  0.480145  -0.000147  0.10348  -0.000144  3.988198  0.0  0.046269  0.091987  0.000143  3.960406  0.0
C  C50  1  0.41401500  0.74326716  0.19973695  1  0.53857  5.5e-05  0.12499  6.5e-05  3.714679  0.0  0.527785  3.2e-05  0.096487  3.1e-05  3.971936  0.0  0.4802  -0.000148  0.103491  -0.000145  3.988188  0.0  0.04627  0.092009  0.000143  3.960393  0.0
C  C51  1  0.52207118  0.74553706  0.59512363  1  1.417914  5e-06  0.615049  7e-06  3.862485  0.0  1.475286  2.9e-05  0.564247  3.2e-05  4.153802  0.0  1.529144  1.5e-05  0.59438  2.8e-05  4.153601  0.0  0.238168  0.54405  8.5e-05  4.153196  0.0
C  C52  1  0.47793173  0.25446323  0.40487381  1  1.417914  5e-06  0.614908  7e-06  3.862857  0.0  1.474663  2.9e-05  0.564153  3.1e-05  4.154079  0.0  1.529043  1.6e-05  0.594285  2.8e-05  4.153879  0.0  0.238128  0.543956  8.5e-05  4.153472  0.0
N  N53  1  0.28545283  0.20078125  0.03217166  1  -1.184674  -0.012704  -0.526747  -0.009506  3.091629  -0.015  -1.256038  0.000301  -0.495779  0.007233  3.392222  0.012  -1.294233  -0.000179  -0.522025  0.004857  3.406123  0.007  -0.398612  -0.485894  -0.003253  3.41143  -0.002
N  N54  1  0.71453902  0.79921788  0.96785961  1  -1.184386  -0.012713  -0.526982  -0.009511  3.091534  -0.015  -1.255694  0.00032  -0.496  0.007233  3.392101  0.012  -1.293982  -0.000176  -0.522239  0.004854  3.405995  0.007  -0.398663  -0.486127  -0.003252  3.411328  -0.002
N  N55  1  0.66575044  0.35620902  0.05791594  1  -1.252321  -0.00851  -0.450882  -0.007391  3.301055  -0.012  -1.303507  -0.015876  -0.400028  -0.013162  3.574034  -0.016  -1.362007  -0.005512  -0.426032  -0.004118  3.574485  -0.005  -0.304263  -0.381097  -0.018421  3.572903  -0.021
N  N56  1  0.33424285  0.64379726  0.94207624  1  -1.252916  -0.008505  -0.451039  -0.007389  3.301426  -0.012  -1.30392  -0.015864  -0.400226  -0.013155  3.57446  -0.016  -1.3623  -0.005513  -0.426219  -0.004119  3.574897  -0.005  -0.304383  -0.381308  -0.018419  3.573351  -0.021
N  N57  1  0.89258274  0.19371579  0.02529715  1  -1.238613  -0.001588  -0.530125  0.003067  3.098742  0.007  -1.282887  -0.00483  -0.509629  -0.002469  3.459955  -0.006  -1.336088  -0.001402  -0.527591  0.00255  3.442118  0.004  -0.403122  -0.488789  -0.002115  3.438842  0.0
N  N58  1  0.10740082  0.80628031  0.97473083  1  -1.238278  -0.0016  -0.53027  0.003057  3.098164  0.007  -1.282527  -0.004848  -0.509761  -0.002482  3.4594  -0.006  -1.334813  -0.001405  -0.527733  0.002545  3.441575  0.004  -0.403136  -0.488937  -0.002128  3.438298  0.0
N  N59  1  0.99085399  0.97819139  0.15134972  1  -1.227903  0.012861  -0.257514  0.016114  3.258472  0.016  -1.250382  0.009626  -0.185984  0.012636  3.5177  0.014  -1.306397  0.009902  -0.214516  0.015888  3.537629  0.017  -0.29202  -0.165995  0.012784  3.499408  0.014
N  N60  1  0.00913572  0.02180131  0.84863830  1  -1.227584  0.012875  -0.257793  0.016114  3.258494  0.016  -1.250204  0.009609  -0.186136  0.012619  3.517578  0.014  -1.30594  0.009892  -0.214652  0.015853  3.53751  0.017  -0.291883  -0.166143  0.012767  3.499272  0.014
N  N61  1  0.08528707  0.45125061  0.39039553  1  -1.355181  -0.000137  -0.664572  -0.000121  3.129945  0.0  -1.37434  0.000195  -0.622527  0.000195  3.376071  0.0  -1.426498  0.000359  -0.647021  0.000391  3.370658  0.0  -0.562063  -0.605668  0.000272  3.379519  0.0
N  N62  1  0.91471995  0.54875266  0.60960020  1  -1.355216  -0.000136  -0.664549  -0.000119  3.129883  0.0  -1.374254  0.000194  -0.622539  0.000194  3.376016  0.0  -1.426794  0.000358  -0.647033  0.00039  3.370604  0.0  -0.562108  -0.60568  0.000271  3.379461  0.0
N  N63  1  0.65299651  0.28422129  0.71612857  1  -1.25211  1.5e-05  -0.317952  3e-06  3.136194  0.0  -1.278027  0.000129  -0.266603  0.00012  3.397655  0.0  -1.330488  3.2e-05  -0.279135  5.4e-05  3.411562  0.0  -0.317344  -0.258361  0.000316  3.388278  0.0
N  N64  1  0.34700369  0.71577902  0.28387020  1  -1.251859  1.5e-05  -0.317959  3e-06  3.136327  0.0  -1.278382  0.000132  -0.26661  0.000123  3.39778  0.0  -1.330578  3.2e-05  -0.279141  5.4e-05  3.41169  0.0  -0.317352  -0.258371  0.000317  3.388408  0.0
N  N65  1  0.60724702  0.77427335  0.51497629  1  -1.337485  2.3e-05  -0.68928  2e-05  3.112046  0.0  -1.363571  -2.1e-05  -0.650891  -2e-05  3.358208  0.0  -1.410598  -2.3e-05  -0.675306  -1.6e-05  3.352657  0.0  -0.568509  -0.634063  4.1e-05  3.36184  0.0
N  N66  1  0.39275247  0.22572544  0.48502093  1  -1.337494  2.3e-05  -0.689314  2e-05  3.112114  0.0  -1.363022  -2.1e-05  -0.650936  -2.1e-05  3.35825  0.0  -1.410467  -2.3e-05  -0.675349  -1.6e-05  3.352692  0.0  -0.568514  -0.634103  4.1e-05  3.361884  0.0
O  O67  1  0.89448140  0.20954799  0.46749182  1  -1.198925  4.8e-05  -0.615361  5.1e-05  1.934237  0.0  -1.21129  4.5e-05  -0.559755  3.7e-05  2.15679  0.0  -1.2517  0.000217  -0.583461  0.000227  2.1501  0.0  -0.310158  -0.543363  0.000101  2.161136  0.0
O  O68  1  0.10552283  0.79045226  0.53250216  1  -1.199101  4.9e-05  -0.615442  5.3e-05  1.934542  0.0  -1.211393  4.5e-05  -0.55987  3.7e-05  2.157094  0.0  -1.251723  0.000215  -0.583574  0.000226  2.150392  0.0  -0.310165  -0.543479  0.000101  2.161443  0.0
O  O69  1  0.42594765  0.57406906  0.61196832  1  -1.186533  5e-06  -0.577776  -2e-06  1.904831  0.0  -1.197234  6.3e-05  -0.524653  5.7e-05  2.117084  0.0  -1.231598  -2e-05  -0.546514  -9e-06  2.110665  0.0  -0.305103  -0.50945  7.2e-05  2.121009  0.0
O  O70  1  0.57405389  0.42593123  0.38802839  1  -1.186559  5e-06  -0.577661  -2e-06  1.904998  0.0  -1.196617  6.4e-05  -0.524572  5.8e-05  2.117227  0.0  -1.231582  -2.1e-05  -0.546434  -9e-06  2.110811  0.0  -0.305056  -0.509372  7.2e-05  2.121154  0.0
