# generated using pymatgen
data_NiP2H18C20(NO3)2
_symmetry_space_group_name_H-M   'P 1'
_cell_length_a   7.76654584
_cell_length_b   10.71251221
_cell_length_c   11.59939180
_cell_angle_alpha   82.91164630
_cell_angle_beta   87.99038525
_cell_angle_gamma   87.27574775
_symmetry_Int_Tables_number   1
_chemical_formula_structural   NiP2H18C20(NO3)2
_chemical_formula_sum   'Ni2 P4 H36 C40 N4 O12'
_cell_volume   956.18685763
_cell_formula_units_Z   2
loop_
 _symmetry_equiv_pos_site_id
 _symmetry_equiv_pos_as_xyz
  1  'x, y, z'
loop_
 _atom_site_type_symbol
 _atom_site_label
 _atom_site_symmetry_multiplicity
 _atom_site_fract_x
 _atom_site_fract_y
 _atom_site_fract_z
 _atom_site_occupancy
 _atom_site_hle17_ddec_charge
 _atom_site_hle17_ddec_spin_density
 _atom_site_hle17_ddec_sum_bond_order
 _atom_site_hle17_magmom
 _atom_site_hse06_10hf_ddec_charge
 _atom_site_hse06_10hf_ddec_spin_density
 _atom_site_hse06_10hf_ddec_sum_bond_order
 _atom_site_hse06_10hf_magmom
 _atom_site_hse06_ddec_charge
 _atom_site_hse06_ddec_spin_density
 _atom_site_hse06_ddec_sum_bond_order
 _atom_site_hse06_magmom
 _atom_site_pbe_cm5_charge
 _atom_site_pbe_ddec_charge
 _atom_site_pbe_ddec_spin_density
 _atom_site_pbe_ddec_sum_bond_order
 _atom_site_pbe_magmom
Ni  Ni0  1  0.22446262  0.52676460  0.14855089  1  0.906095  0.00254  2.009467  0.002  0.902439  -2.6e-05  2.417352  -0.001  1.000205  0.000408  2.32857  0.0  0.67444  0.839094  -0.000966  2.47631  -0.002
Ni  Ni1  1  0.77548475  0.47331092  0.85141143  1  0.905906  0.002522  2.010704  0.002  0.902405  -1.1e-05  2.418621  -0.001  1.00006  0.00042  2.329929  0.0  0.674913  0.839136  -0.000946  2.477575  -0.002
P  P2  1  0.84343450  0.66928188  0.04693331  1  1.495854  -0.003325  4.733473  -0.002  1.355294  -0.003771  5.230474  -0.002  1.408416  -0.0032  5.191822  -0.002  0.354062  1.317432  -0.004124  5.256008  -0.002
P  P3  1  0.15663710  0.33067624  0.95301580  1  1.495784  -0.003325  4.733507  -0.002  1.3552  -0.003776  5.230574  -0.002  1.408308  -0.003198  5.191941  -0.002  0.354072  1.317379  -0.004132  5.256115  -0.002
P  P4  1  0.66520133  0.35167229  0.10801555  1  1.508539  0.004473  4.708498  0.002  1.369588  0.00487  5.199859  0.003  1.421402  0.004008  5.162989  0.003  0.364468  1.333031  0.005487  5.224318  0.003
P  P5  1  0.33468512  0.64837438  0.89198424  1  1.508511  0.004476  4.708251  0.002  1.369456  0.00487  5.199778  0.003  1.421313  0.004005  5.162905  0.003  0.364164  1.332909  0.005492  5.224239  0.003
H  H6  1  0.59453297  0.58720062  0.10143219  1  0.434656  -4.2e-05  0.876416  0.0  0.400588  -4.9e-05  0.946548  0.0  0.411737  -4.7e-05  0.930618  0.0  0.30691  0.392784  -4.6e-05  0.957705  0.0
H  H7  1  0.40548160  0.41275722  0.89863633  1  0.434942  -4.2e-05  0.876237  0.0  0.400973  -4.9e-05  0.946034  0.0  0.412106  -4.7e-05  0.930124  0.0  0.307119  0.393172  -4.6e-05  0.957197  0.0
H  H8  1  0.94066641  0.37687778  0.13215609  1  0.433943  0.00017  0.866665  0.0  0.400209  0.00014  0.944112  0.0  0.41211  0.000141  0.92701  0.0  0.312234  0.391568  0.000136  0.956393  0.0
H  H9  1  0.05928804  0.62311279  0.86774355  1  0.434054  0.00017  0.8666  0.0  0.400188  0.00014  0.944261  0.0  0.412127  0.000141  0.927096  0.0  0.312236  0.391535  0.000135  0.956645  0.0
H  H10  1  0.37966662  0.78962301  0.12947513  1  0.104987  -0.000824  0.946616  -0.001  0.109893  -0.000694  1.010536  -0.001  0.112087  -0.00056  1.007447  -0.001  0.127382  0.107962  -0.000791  1.013418  -0.001
H  H11  1  0.62039002  0.21046728  0.87059428  1  0.105114  -0.000821  0.946772  -0.001  0.110109  -0.000693  1.010586  -0.001  0.112285  -0.000559  1.00754  -0.001  0.127535  0.108182  -0.000789  1.013458  -0.001
H  H12  1  0.47437607  0.92125788  0.27884947  1  0.10248  -0.000395  0.966785  0.0  0.111958  -0.000335  1.025749  0.0  0.113733  -0.000266  1.027468  0.0  0.104107  0.11051  -0.000389  1.024964  0.0
H  H13  1  0.52580713  0.07871527  0.72128164  1  0.10234  -0.000394  0.966484  0.0  0.111628  -0.000334  1.025734  0.0  0.113404  -0.000266  1.02745  0.0  0.103866  0.110188  -0.000387  1.024939  0.0
H  H14  1  0.44041386  0.84042560  0.49091126  1  0.093202  -0.000182  0.938871  0.0  0.106824  -2.3e-05  0.994874  0.0  0.109616  -1e-06  0.992647  0.0  0.105731  0.104587  -5e-05  0.997076  0.0
H  H15  1  0.55973803  0.15947362  0.50920502  1  0.093236  -0.000178  0.938726  0.0  0.106806  -2.3e-05  0.994824  0.0  0.1096  -1e-06  0.992583  0.0  0.105685  0.104579  -5.1e-05  0.997023  0.0
H  H16  1  0.33888715  0.65887643  0.64393689  1  0.104333  -0.000194  0.974896  0.0  0.114764  -0.000114  1.038497  0.0  0.117337  -8.2e-05  1.037373  0.0  0.106298  0.112579  -0.000143  1.039594  0.0
H  H17  1  0.66114718  0.34106171  0.35609038  1  0.10417  -0.000191  0.974681  0.0  0.114612  -0.000114  1.038321  0.0  0.117181  -8.2e-05  1.03721  0.0  0.106194  0.112429  -0.000142  1.039412  0.0
H  H18  1  0.22339270  0.44844828  0.68714934  1  0.139328  0.000141  0.941507  0.0  0.147492  7.5e-05  1.000486  0.0  0.151262  5.1e-05  0.998455  0.0  0.114439  0.144431  9.8e-05  1.002083  0.0
H  H19  1  0.77659956  0.55150153  0.31284559  1  0.139281  0.000139  0.941014  0.0  0.147413  7.5e-05  1.000012  0.0  0.151189  5.2e-05  0.997981  0.0  0.114349  0.144341  9.8e-05  1.001639  0.0
H  H20  1  0.14009558  0.24539646  0.61036997  1  0.108871  0.000132  0.954561  0.0  0.119981  9e-06  1.014503  0.0  0.122437  -4e-06  1.012856  0.0  0.110032  0.11775  2.7e-05  1.016485  0.0
H  H21  1  0.85986198  0.75464637  0.38965283  1  0.108795  0.000131  0.954467  0.0  0.119796  1e-05  1.014595  0.0  0.122255  -4e-06  1.012941  0.0  0.109929  0.117625  2.7e-05  1.016507  0.0
H  H22  1  0.09385930  0.13471185  0.43531968  1  0.091678  0.000366  0.970421  0.0  0.103052  0.000332  1.030276  0.0  0.105372  0.000262  1.030348  0.0  0.102012  0.101243  0.000395  1.030624  0.0
H  H23  1  0.90603440  0.86530767  0.56471587  1  0.091633  0.000366  0.970308  0.0  0.102987  0.000332  1.030209  0.0  0.105305  0.000262  1.030279  0.0  0.101953  0.101174  0.000394  1.030554  0.0
H  H24  1  0.12932371  0.25103771  0.23621936  1  0.095525  0.000667  0.946829  0.001  0.103446  0.000615  1.008577  0.001  0.105181  0.000486  1.006404  0.001  0.126415  0.101638  0.000727  1.011098  0.001
H  H25  1  0.87073822  0.74892614  0.76379137  1  0.095843  0.000667  0.947197  0.001  0.103664  0.000614  1.009006  0.001  0.105472  0.000486  1.00672  0.001  0.126545  0.101847  0.000726  1.011547  0.001
H  H26  1  0.02253771  0.83505674  0.97379651  1  0.142282  9.4e-05  0.960181  0.0  0.154678  -2e-05  1.020457  0.0  0.15678  -1.9e-05  1.021373  0.0  0.108631  0.153095  -1.8e-05  1.019962  0.0
H  H27  1  0.97745202  0.16494104  0.02617307  1  0.142415  9.4e-05  0.959954  0.0  0.154752  -2e-05  1.020333  0.0  0.156871  -1.9e-05  1.021252  0.0  0.108642  0.153163  -1.8e-05  1.019845  0.0
H  H28  1  0.80900091  0.86934278  0.92653224  1  0.120542  0.000143  0.947257  0.0  0.134329  7.5e-05  1.006821  0.0  0.136652  6.2e-05  1.006155  0.0  0.099739  0.133006  8.5e-05  1.006968  0.0
H  H29  1  0.19096554  0.13062282  0.07347867  1  0.120533  0.000142  0.947372  0.0  0.134373  7.5e-05  1.006839  0.0  0.136728  6.2e-05  1.006154  0.0  0.099726  0.133043  8.5e-05  1.006997  0.0
H  H30  1  0.64493008  0.02780800  0.01369216  1  0.090578  2e-06  0.957497  0.0  0.103715  1e-06  1.019802  0.0  0.106431  -1e-06  1.01876  0.0  0.097377  0.101719  4e-06  1.020724  0.0
H  H31  1  0.35500833  0.97210636  0.98631412  1  0.090812  3e-06  0.957365  0.0  0.103887  1e-06  1.019678  0.0  0.1066  -1e-06  1.018637  0.0  0.097569  0.101893  5e-06  1.020602  0.0
H  H32  1  0.05653485  0.82453156  0.20275006  1  0.100288  7.5e-05  0.985109  0.0  0.108928  6e-06  1.049639  0.0  0.111483  1.3e-05  1.049441  0.0  0.09951  0.10716  1e-06  1.04986  0.0
H  H33  1  0.94360957  0.17556124  0.79719728  1  0.100392  7.2e-05  0.98519  0.0  0.108968  6e-06  1.049762  0.0  0.111561  1.2e-05  1.04952  0.0  0.099637  0.107147  1e-06  1.05004  0.0
H  H34  1  0.01195893  0.96226507  0.35945247  1  0.066712  1.9e-05  0.970031  0.0  0.079954  2.9e-05  1.030129  0.0  0.082353  2.1e-05  1.029194  0.0  0.08983  0.078692  3.5e-05  1.030243  0.0
H  H35  1  0.98809767  0.03779847  0.64049936  1  0.06669  1.9e-05  0.970107  0.0  0.079998  2.9e-05  1.030158  0.0  0.0824  2.1e-05  1.029226  0.0  0.089818  0.078751  3.5e-05  1.030251  0.0
H  H36  1  0.78346654  0.13445829  0.34290549  1  0.083625  1.4e-05  0.97299  0.0  0.094267  2e-06  1.040037  0.0  0.096727  7e-06  1.039389  0.0  0.093052  0.092892  -2e-06  1.040123  0.0
H  H37  1  0.21649620  0.86552226  0.65707790  1  0.083668  1.2e-05  0.972988  0.0  0.094369  2e-06  1.04  0.0  0.096831  7e-06  1.039351  0.0  0.093003  0.092993  -2e-06  1.040078  0.0
H  H38  1  0.50506360  0.21764204  0.24680902  1  0.120283  0.000554  0.952427  0.001  0.132936  0.000484  1.014232  0.0  0.134132  0.000357  1.015039  0.0  0.100659  0.1329  0.000598  1.012822  0.0
H  H39  1  0.49489039  0.78235331  0.75311507  1  0.120449  0.00056  0.952088  0.001  0.133139  0.000486  1.013998  0.0  0.134337  0.000358  1.014811  0.0  0.100698  0.133099  0.0006  1.012593  0.0
H  H40  1  0.46803118  0.19003379  0.10217455  1  0.142162  -0.000172  0.951239  0.0  0.154781  -3e-05  1.011354  0.0  0.157452  -2.8e-05  1.01039  0.0  0.108972  0.152797  -3.3e-05  1.012025  0.0
H  H41  1  0.53198984  0.80994535  0.89774823  1  0.142132  -0.000169  0.951171  0.0  0.155019  -3.1e-05  1.010983  0.0  0.157701  -2.8e-05  1.010013  0.0  0.108964  0.153033  -3.3e-05  1.011653  0.0
C  C42  1  0.36803727  0.75788999  0.22189246  1  0.163691  0.005848  3.623088  0.005  0.134043  0.000325  3.8804  0.001  0.148581  0.001222  3.892506  0.001  0.066842  0.122239  -0.000338  3.874881  0.0
C  C43  1  0.63201326  0.24218043  0.77817336  1  0.164221  0.00582  3.622833  0.005  0.134406  0.000324  3.880224  0.001  0.148949  0.001219  3.892327  0.001  0.067351  0.122601  -0.000337  3.874716  0.0
C  C44  1  0.41862983  0.83068254  0.30702421  1  -0.112621  -0.006995  3.72587  -0.006  -0.124152  -0.002764  3.974373  -0.003  -0.13167  -0.0028  3.99387  -0.003  -0.079526  -0.119813  -0.002763  3.963574  -0.003
C  C45  1  0.58147409  0.16930088  0.69306177  1  -0.112663  -0.006954  3.725058  -0.006  -0.123971  -0.002759  3.973637  -0.003  -0.131484  -0.002796  3.993121  -0.003  -0.079677  -0.119636  -0.002756  3.962861  -0.003
C  C46  1  0.40098077  0.78561293  0.42369852  1  -0.063835  0.006997  3.717516  0.006  -0.086557  0.001682  3.963234  0.001  -0.082029  0.002131  3.979086  0.002  -0.069879  -0.091079  0.001352  3.954493  0.001
C  C47  1  0.59909706  0.21434284  0.57638263  1  -0.064018  0.006941  3.717994  0.006  -0.086756  0.001676  3.963644  0.001  -0.082219  0.002124  3.979496  0.002  -0.069916  -0.091294  0.001346  3.954931  0.001
C  C48  1  0.33353199  0.66558114  0.45579349  1  0.025274  -0.004768  3.82007  -0.005  0.039399  -0.001942  4.053967  -0.002  0.036342  -0.00194  4.07849  -0.002  -0.002716  0.041654  -0.001993  4.037993  -0.002
C  C49  1  0.66645755  0.33438479  0.54423928  1  0.024817  -0.004736  3.820251  -0.005  0.039002  -0.001937  4.054071  -0.002  0.03593  -0.001936  4.078608  -0.002  -0.002919  0.041258  -0.001986  4.038115  -0.002
C  C50  1  0.30894287  0.60743198  0.57263875  1  -0.094053  0.002198  3.712495  0.002  -0.119973  0.000261  3.974298  0.0  -0.12376  0.000654  3.997617  0.001  -0.083707  -0.117397  -2.4e-05  3.958932  0.0
C  C51  1  0.69106378  0.39254545  0.42739231  1  -0.093714  0.002158  3.71206  0.002  -0.119671  0.000261  3.973868  0.0  -0.12345  0.000653  3.997195  0.001  -0.083481  -0.117117  -2.4e-05  3.958517  0.0
C  C52  1  0.24681656  0.48937078  0.59719673  1  -0.074413  -0.002334  3.649116  -0.002  -0.10007  -0.000335  3.905586  0.0  -0.102594  -0.000736  3.926939  -0.001  -0.075113  -0.098312  -4.2e-05  3.89153  0.0
C  C53  1  0.75317671  0.51061307  0.40282525  1  -0.074328  -0.002293  3.648593  -0.002  -0.099924  -0.000334  3.905075  0.0  -0.102447  -0.000734  3.926419  -0.001  -0.074969  -0.098181  -4.2e-05  3.891041  0.0
C  C54  1  0.20928648  0.41819073  0.50504378  1  0.029716  0.004242  3.792937  0.004  0.046335  0.001652  4.024584  0.002  0.042938  0.001662  4.047139  0.002  0.002011  0.048859  0.001721  4.01008  0.002
C  C55  1  0.79068145  0.58183614  0.49496341  1  0.029657  0.00422  3.792847  0.004  0.046323  0.001652  4.024426  0.002  0.042924  0.001662  4.046977  0.002  0.002114  0.048847  0.00172  4.009955  0.002
C  C56  1  0.15691132  0.29272441  0.52220965  1  -0.047734  -0.005897  3.685341  -0.005  -0.074374  -0.001001  3.933203  -0.001  -0.067403  -0.001486  3.9477  -0.001  -0.066162  -0.080947  -0.000625  3.925829  -0.001
C  C57  1  0.84302885  0.70731067  0.47780840  1  -0.047604  -0.005866  3.685588  -0.005  -0.074195  -0.000999  3.933524  -0.001  -0.067209  -0.001485  3.948005  -0.001  -0.066122  -0.08083  -0.000626  3.926146  -0.001
C  C58  1  0.13147306  0.23220102  0.42578674  1  -0.134456  0.005874  3.758768  0.005  -0.147309  0.00225  4.013048  0.002  -0.156336  0.002278  4.032832  0.002  -0.087667  -0.141646  0.002311  4.001936  0.002
C  C59  1  0.86847237  0.76781713  0.57422369  1  -0.134209  0.005851  3.757991  0.005  -0.147054  0.002248  4.012321  0.002  -0.15608  0.002277  4.032106  0.002  -0.08764  -0.141383  0.002309  4.001234  0.002
C  C60  1  0.15205209  0.29602770  0.31299066  1  0.15724  -0.004463  3.642008  -0.004  0.126857  0.000525  3.901053  0.0  0.141247  -0.000375  3.915555  -0.001  0.060242  0.115151  0.001188  3.894101  0.001
C  C61  1  0.84791846  0.70396626  0.68703151  1  0.156596  -0.004462  3.642138  -0.004  0.126272  0.000522  3.901263  0.0  0.140639  -0.000376  3.915695  -0.001  0.060093  0.114571  0.001183  3.894341  0.001
C  C62  1  0.22885114  0.47466217  0.38876771  1  0.124885  -0.004042  3.757273  -0.004  0.119511  -0.000678  3.99699  -0.001  0.126344  -0.00131  4.018197  -0.002  0.118172  0.113982  -0.00014  3.984254  -0.001
C  C63  1  0.77109418  0.52535695  0.61125209  1  0.124738  -0.00402  3.757304  -0.004  0.119396  -0.000675  3.996994  -0.001  0.126233  -0.001307  4.018203  -0.002  0.118233  0.113865  -0.000137  3.984277  -0.001
C  C64  1  0.28900072  0.59841865  0.36439191  1  0.124608  0.00403  3.763265  0.004  0.11894  0.000608  4.002187  0.001  0.124733  0.0013  4.024377  0.002  0.118934  0.114141  8.1e-05  3.988688  0.001
C  C65  1  0.71096770  0.40160167  0.63562552  1  0.124727  0.004007  3.763102  0.004  0.119094  0.000607  4.001893  0.001  0.124893  0.001297  4.024084  0.002  0.118789  0.114302  8e-05  3.988403  0.001
C  C66  1  0.88608933  0.83451380  0.00240517  1  -0.485245  -0.003038  3.690256  -0.003  -0.505946  -0.001714  3.919936  -0.001  -0.516528  -0.001302  3.927831  -0.001  -0.16808  -0.49806  -0.00212  3.914223  -0.002
C  C67  1  0.11390931  0.16543700  0.99758003  1  -0.485685  -0.003049  3.690719  -0.003  -0.506206  -0.00172  3.919966  -0.001  -0.516874  -0.001305  3.927962  -0.001  -0.168183  -0.498332  -0.002131  3.914269  -0.002
C  C68  1  0.85413448  0.91653805  0.09781488  1  0.174063  -0.000455  3.753313  0.0  0.194425  -0.0003  3.985488  0.0  0.197165  -0.000209  4.009849  0.0  0.000492  0.192139  -0.000388  3.969214  0.0
C  C69  1  0.14585966  0.08342028  0.90218161  1  0.174446  -0.000463  3.753796  0.0  0.194687  -0.000299  3.985999  0.0  0.197448  -0.000208  4.010392  0.0  0.000393  0.192411  -0.000387  3.969719  0.0
C  C70  1  0.72450969  0.01256535  0.09043900  1  -0.183457  4e-05  3.670001  0.0  -0.210524  9e-06  3.915955  0.0  -0.215149  -1.3e-05  3.936027  0.0  -0.094721  -0.207212  3.6e-05  3.90257  0.0
C  C71  1  0.27546573  0.98740125  0.90955953  1  -0.18386  3.3e-05  3.670209  0.0  -0.210867  6e-06  3.916027  0.0  -0.215481  -1.6e-05  3.936076  0.0  -0.094928  -0.207559  3.3e-05  3.902654  0.0
C  C72  1  0.95714619  0.89980867  0.19582944  1  -0.135215  7.2e-05  3.723484  0.0  -0.157294  -6.2e-05  3.970228  0.0  -0.160635  -4.8e-05  3.99088  0.0  -0.098593  -0.154838  -7.2e-05  3.955788  0.0
C  C73  1  0.04291628  0.10021352  0.80414173  1  -0.135122  8.6e-05  3.724212  0.0  -0.157151  -6.4e-05  3.970985  0.0  -0.16052  -4.8e-05  3.991614  0.0  -0.098504  -0.154653  -7.5e-05  3.956576  0.0
C  C74  1  0.69728684  0.09218791  0.17736140  1  0.144182  -0.000215  3.803662  0.0  0.165261  -9e-05  4.039202  0.0  0.168435  -5.6e-05  4.062286  0.0  -0.012505  0.162803  -0.000119  4.023455  0.0
C  C75  1  0.30269893  0.90781078  0.82261333  1  0.143803  -0.000215  3.803751  0.0  0.16512  -8.8e-05  4.039117  0.0  0.168301  -5.4e-05  4.062193  0.0  -0.012647  0.162661  -0.000118  4.023373  0.0
C  C76  1  0.92989908  0.97679785  0.28388407  1  -0.080082  -1.8e-05  3.850604  0.0  -0.090256  5.2e-05  4.103586  0.0  -0.091761  4.9e-05  4.12623  0.0  -0.102093  -0.08838  5.1e-05  4.086407  0.0
C  C77  1  0.07011607  0.02323603  0.71608333  1  -0.08039  -2.6e-05  3.851077  0.0  -0.090661  5.3e-05  4.104148  0.0  -0.092171  5.1e-05  4.126806  0.0  -0.102188  -0.088789  5.3e-05  4.086941  0.0
C  C78  1  0.80083646  0.07219734  0.27535416  1  -0.148426  -0.000107  3.769216  0.0  -0.17281  -0.00013  4.02208  0.0  -0.176575  -0.000102  4.043801  0.0  -0.106931  -0.169736  -0.000169  4.006083  0.0
C  C79  1  0.19914169  0.92780031  0.72461396  1  -0.148114  -9.9e-05  3.768641  0.0  -0.172579  -0.000132  4.021374  0.0  -0.176346  -0.000103  4.043094  0.0  -0.106831  -0.169495  -0.000171  4.005372  0.0
C  C80  1  0.56902851  0.20190882  0.16334379  1  -0.482535  0.004292  3.69276  0.004  -0.506819  0.002587  3.929585  0.002  -0.517283  0.001966  3.93822  0.002  -0.167338  -0.498821  0.003176  3.922314  0.002
C  C81  1  0.43094829  0.79807460  0.83659929  1  -0.482779  0.00428  3.692416  0.004  -0.507639  0.002592  3.92992  0.002  -0.518132  0.001968  3.938594  0.002  -0.167523  -0.499614  0.003185  3.922631  0.002
N  N82  1  0.30475493  0.64423732  0.24999818  1  -0.262298  -0.050568  3.281548  -0.05  -0.225865  -0.034266  3.568768  -0.033  -0.259901  -0.030329  3.587924  -0.029  -0.313036  -0.203036  -0.036103  3.556732  -0.034
N  N83  1  0.69523648  0.35583235  0.75004144  1  -0.26226  -0.050355  3.282131  -0.05  -0.225846  -0.034165  3.569417  -0.033  -0.259866  -0.030257  3.58854  -0.029  -0.313101  -0.203018  -0.035971  3.557386  -0.034
N  N84  1  0.19757825  0.41560949  0.29435584  1  -0.274258  0.039413  3.28545  0.038  -0.24142  0.028341  3.58243  0.025  -0.274679  0.024976  3.600176  0.022  -0.315964  -0.219719  0.030671  3.571942  0.028
N  N85  1  0.80239503  0.58438261  0.70566477  1  -0.273863  0.039361  3.286641  0.037  -0.241076  0.028308  3.58368  0.025  -0.274355  0.02496  3.601441  0.022  -0.316154  -0.219372  0.030611  3.57323  0.028
O  O86  1  0.72171408  0.34738448  0.98099757  1  -0.805691  0.033105  2.091036  0.033  -0.756204  0.021947  2.393875  0.021  -0.800784  0.018712  2.379028  0.017  -0.363035  -0.722965  0.023881  2.40178  0.023
O  O87  1  0.27815520  0.65277972  0.01897081  1  -0.806019  0.033232  2.091229  0.033  -0.756476  0.022025  2.394112  0.021  -0.80104  0.01877  2.379226  0.018  -0.362896  -0.723234  0.023982  2.402023  0.023
O  O88  1  0.94770606  0.61772741  0.15078406  1  -0.827458  -0.000663  1.935456  -0.001  -0.779485  -0.001276  2.209982  -0.002  -0.811051  -0.00078  2.188299  -0.001  -0.367623  -0.755672  -0.002179  2.223715  -0.002
O  O89  1  0.05240130  0.38217430  0.84908376  1  -0.827347  -0.000777  1.933811  -0.001  -0.779548  -0.001317  2.208309  -0.002  -0.811023  -0.000811  2.186531  -0.001  -0.367677  -0.755768  -0.002233  2.22205  -0.003
O  O90  1  0.53790406  0.45587191  0.13724631  1  -0.841164  0.003037  1.990173  0.003  -0.78173  0.002435  2.257728  0.002  -0.809014  0.001933  2.233151  0.002  -0.359528  -0.763169  0.002822  2.275705  0.003
O  O91  1  0.46198651  0.54410441  0.86285210  1  -0.841324  0.003013  1.989398  0.003  -0.781849  0.002423  2.256836  0.002  -0.809096  0.001924  2.232218  0.002  -0.359676  -0.763314  0.002806  2.274848  0.003
O  O92  1  0.87514041  0.60311596  0.93515656  1  -0.836736  -0.029919  2.105732  -0.03  -0.776224  -0.019799  2.399711  -0.019  -0.819558  -0.01717  2.381733  -0.016  -0.3613  -0.743799  -0.021168  2.410186  -0.021
O  O93  1  0.12480173  0.39689988  0.06472921  1  -0.836796  -0.030031  2.105887  -0.031  -0.776163  -0.019858  2.399759  -0.019  -0.819595  -0.01721  2.382066  -0.016  -0.361315  -0.743696  -0.02125  2.409985  -0.021
O  O94  1  0.64329109  0.67584929  0.07705516  1  -0.770104  0.00028  2.064173  0.0  -0.699128  -6.9e-05  2.299152  0.0  -0.722185  3.7e-05  2.2766  0.0  -0.386186  -0.681985  -0.00026  2.314148  0.0
O  O95  1  0.35679809  0.32411118  0.92298209  1  -0.77048  0.000266  2.064603  0.0  -0.699456  -7.3e-05  2.299249  0.0  -0.722452  3.4e-05  2.276699  0.0  -0.386416  -0.682334  -0.000266  2.314224  0.0
O  O96  1  0.83438357  0.35069755  0.18147391  1  -0.769531  -0.000187  2.069184  0.0  -0.697527  0.000154  2.309894  0.0  -0.719569  0.000105  2.28609  0.0  -0.391241  -0.681013  0.000165  2.325808  0.0
O  O97  1  0.16557471  0.64935540  0.81846580  1  -0.769438  -0.00019  2.06955  0.0  -0.697174  0.000154  2.310078  0.0  -0.719335  0.000106  2.286301  0.0  -0.390879  -0.680754  0.000165  2.326294  0.0
