# generated using pymatgen
data_SmH15C11SO9
_symmetry_space_group_name_H-M   'P 1'
_cell_length_a   8.24233193
_cell_length_b   9.70182265
_cell_length_c   18.44100000
_cell_angle_alpha   90.00000000
_cell_angle_beta   101.91507285
_cell_angle_gamma   90.00000000
_symmetry_Int_Tables_number   1
_chemical_formula_structural   SmH15C11SO9
_chemical_formula_sum   'Sm4 H60 C44 S4 O36'
_cell_volume   1442.87472339
_cell_formula_units_Z   4
loop_
 _symmetry_equiv_pos_site_id
 _symmetry_equiv_pos_as_xyz
  1  'x, y, z'
loop_
 _atom_site_type_symbol
 _atom_site_label
 _atom_site_symmetry_multiplicity
 _atom_site_fract_x
 _atom_site_fract_y
 _atom_site_fract_z
 _atom_site_occupancy
 _atom_site_hle17_bader_spin_density
 _atom_site_hle17_ddec_charge
 _atom_site_hle17_ddec_spin_density
 _atom_site_hle17_ddec_sum_bond_order
 _atom_site_hle17_magmom
 _atom_site_hse06_10hf_bader_spin_density
 _atom_site_hse06_10hf_ddec_charge
 _atom_site_hse06_10hf_ddec_spin_density
 _atom_site_hse06_10hf_ddec_sum_bond_order
 _atom_site_hse06_10hf_magmom
 _atom_site_hse06_bader_spin_density
 _atom_site_hse06_ddec_charge
 _atom_site_hse06_ddec_spin_density
 _atom_site_hse06_ddec_sum_bond_order
 _atom_site_hse06_magmom
 _atom_site_pbe_bader_charge
 _atom_site_pbe_bader_spin_density
 _atom_site_pbe_cm5_charge
 _atom_site_pbe_ddec_charge
 _atom_site_pbe_ddec_spin_density
 _atom_site_pbe_ddec_sum_bond_order
 _atom_site_pbe_magmom
Sm  Sm0  1  0.02145262  0.28351271  0.99451800  1  0  2.336701  0  1.562878  0  0  2.248093  0  1.897305  0  0  2.290507  0  1.857249  0  2.243741  0  1.498753  2.217319  0  1.925772  0
Sm  Sm1  1  0.47855305  0.78350845  0.50548645  1  0  2.33664  0  1.562878  0  0  2.248015  0  1.897309  0  0  2.290427  0  1.857254  0  2.243773  0  1.498713  2.217244  0  1.925778  0
Sm  Sm2  1  0.97854385  0.71648805  0.00547923  1  0  2.336606  0  1.562917  0  0  2.248008  0  1.897353  0  0  2.290422  0  1.857296  0  2.24377  0  1.498736  2.217233  0  1.925821  0
Sm  Sm3  1  0.52144342  0.21648097  0.49452000  1  0  2.336662  0  1.562867  0  0  2.248066  0  1.897295  0  0  2.290474  0  1.857234  0  2.24384  0  1.498749  2.217294  0  1.925764  0
H  H4  1  0.33849661  0.18850994  0.09752986  1  0  0.424779  0  0.83927  0  0  0.40174  0  0.908589  0  0  0.409279  0  0.897905  0  0.620319  0  0.318397  0.396352  0  0.914823  0
H  H5  1  0.16151155  0.68850671  0.40246886  1  0  0.424809  0  0.839251  0  0  0.401764  0  0.908589  0  0  0.409303  0  0.897881  0  0.620284  0  0.318387  0.396376  0  0.91482  0
H  H6  1  0.66150854  0.81150009  0.90247251  1  0  0.424784  0  0.839262  0  0  0.401742  0  0.908592  0  0  0.409281  0  0.897904  0  0.620291  0  0.318418  0.396354  0  0.914825  0
H  H7  1  0.83848120  0.31148477  0.59753996  1  0  0.42478  0  0.839144  0  0  0.401714  0  0.908554  0  0  0.409253  0  0.897924  0  0.620119  0  0.318395  0.396327  0  0.914785  0
H  H8  1  0.69546744  0.17937660  0.00563605  1  0  0.432677  0  0.825582  0  0  0.41557  0  0.879504  0  0  0.424272  0  0.868083  0  0.613231  0  0.319731  0.409331  0  0.886907  0
H  H9  1  0.80454710  0.67936204  0.49437492  1  0  0.43286  0  0.825445  0  0  0.415744  0  0.879388  0  0  0.424443  0  0.867872  0  0.613231  0  0.319814  0.409504  0  0.88679  0
H  H10  1  0.30455259  0.82063549  0.99437041  1  0  0.432738  0  0.825535  0  0  0.415597  0  0.879537  0  0  0.424291  0  0.868068  0  0.613459  0  0.31978  0.40936  0  0.886938  0
H  H11  1  0.19544937  0.32062841  0.50563045  1  0  0.432773  0  0.82538  0  0  0.415623  0  0.879407  0  0  0.424322  0  0.86801  0  0.613118  0  0.319764  0.409385  0  0.886808  0
H  H12  1  0.40263624  0.31234440  0.05582919  1  0  0.451942  0  0.829544  0  0  0.423249  0  0.888297  0  0  0.432851  0  0.874152  0  0.649178  0  0.311076  0.416404  0  0.898385  0
H  H13  1  0.09737935  0.81234324  0.44417021  1  0  0.452002  0  0.829454  0  0  0.423352  0  0.88812  0  0  0.432947  0  0.873987  0  0.649429  0  0.311123  0.416509  0  0.898203  0
H  H14  1  0.59736023  0.68766151  0.94416533  1  0  0.45189  0  0.829605  0  0  0.423234  0  0.888282  0  0  0.43283  0  0.874148  0  0.649217  0  0.311099  0.41639  0  0.898367  0
H  H15  1  0.90261092  0.18765855  0.55583458  1  0  0.451903  0  0.829597  0  0  0.423311  0  0.888138  0  0  0.432896  0  0.874025  0  0.649473  0  0.311155  0.416468  0  0.898219  0
H  H16  1  0.80555147  0.04550691  0.00510423  1  0  0.425264  0  0.88327  0  0  0.394412  0  0.947717  0  0  0.405599  0  0.931471  0  0.630034  0  0.297852  0.386621  0  0.958997  0
H  H17  1  0.69444819  0.54549338  0.49489506  1  0  0.425367  0  0.883113  0  0  0.394475  0  0.947591  0  0  0.40566  0  0.931347  0  0.630002  0  0.2979  0.386698  0  0.958844  0
H  H18  1  0.19444748  0.95449178  0.99488564  1  0  0.425236  0  0.883296  0  0  0.394379  0  0.947732  0  0  0.405566  0  0.931486  0  0.629977  0  0.297863  0.386597  0  0.958993  0
H  H19  1  0.30553960  0.45449398  0.50510679  1  0  0.425285  0  0.883231  0  0  0.394442  0  0.947655  0  0  0.405625  0  0.931414  0  0.629968  0  0.297893  0.386657  0  0.958924  0
H  H20  1  0.96913376  0.29613714  0.19720943  1  0  0.101777  0  0.976462  0  0  0.108642  0  1.045514  0  0  0.112119  0  1.043316  0  0.102101  0  0.108967  0.106001  0  1.047559  0
H  H21  1  0.53089195  0.79612669  0.30280202  1  0  0.102054  0  0.976253  0  0  0.108834  0  1.045383  0  0  0.112311  0  1.043185  0  0.103294  0  0.108977  0.106197  0  1.047416  0
H  H22  1  0.03086767  0.70386568  0.80277796  1  0  0.101914  0  0.97649  0  0  0.108642  0  1.04567  0  0  0.112116  0  1.043475  0  0.102468  0  0.108959  0.106007  0  1.047702  0
H  H23  1  0.46910577  0.20387097  0.69721105  1  0  0.101901  0  0.976553  0  0  0.108681  0  1.045668  0  0  0.112153  0  1.043475  0  0.10351  0  0.10894  0.106044  0  1.047705  0
H  H24  1  0.08424069  0.31047259  0.33452766  1  0  0.111158  0  0.953236  0  0  0.121079  0  1.010983  0  0  0.124549  0  1.00951  0  0.121546  0  0.109635  0.118581  0  1.012158  0
H  H25  1  0.41575258  0.81048482  0.16548813  1  0  0.111079  0  0.953516  0  0  0.120988  0  1.011264  0  0  0.124457  0  1.009791  0  0.121582  0  0.109644  0.118489  0  1.012441  0
H  H26  1  0.91579298  0.68952920  0.66545945  1  0  0.111271  0  0.953113  0  0  0.121057  0  1.011024  0  0  0.124529  0  1.009547  0  0.121239  0  0.109577  0.118555  0  1.01221  0
H  H27  1  0.58421785  0.18953243  0.83452894  1  0  0.111288  0  0.953166  0  0  0.121151  0  1.010974  0  0  0.124578  0  1.009554  0  0.121559  0  0.109678  0.118649  0  1.012156  0
H  H28  1  0.99203218  0.49629437  0.40781064  1  0  0.09615  0  0.956036  0  0  0.10729  0  1.014461  0  0  0.11111  0  1.011161  0  0.094962  0  0.103786  0.104397  0  1.017045  0
H  H29  1  0.50795881  0.99630558  0.09220629  1  0  0.096283  0  0.956093  0  0  0.107377  0  1.014525  0  0  0.111236  0  1.011185  0  0.095333  0  0.103894  0.104479  0  1.017112  0
H  H30  1  0.00800521  0.50370329  0.59217736  1  0  0.096228  0  0.955747  0  0  0.107373  0  1.014186  0  0  0.111204  0  1.010874  0  0.094662  0  0.103823  0.104506  0  1.016742  0
H  H31  1  0.49202279  0.00370343  0.90780963  1  0  0.096174  0  0.956056  0  0  0.107315  0  1.014475  0  0  0.111134  0  1.011179  0  0.094922  0  0.103796  0.104423  0  1.01706  0
H  H32  1  0.79692380  0.67832615  0.34496422  1  0  0.091684  0  0.973383  0  0  0.098894  0  1.039547  0  0  0.101828  0  1.038703  0  0.08851  0  0.09878  0.096709  0  1.040422  0
H  H33  1  0.70308951  0.17832629  0.15504663  1  0  0.091657  0  0.973474  0  0  0.098887  0  1.039573  0  0  0.101822  0  1.038728  0  0.088543  0  0.098791  0.0967  0  1.040452  0
H  H34  1  0.20309747  0.32166739  0.65503259  1  0  0.091596  0  0.973434  0  0  0.098855  0  1.039533  0  0  0.101791  0  1.038686  0  0.088632  0  0.098729  0.09667  0  1.040407  0
H  H35  1  0.29691069  0.82167447  0.84496125  1  0  0.091685  0  0.973461  0  0  0.098896  0  1.039636  0  0  0.101831  0  1.038789  0  0.088366  0  0.098783  0.096711  0  1.040511  0
H  H36  1  0.69052991  0.66749623  0.20861624  1  0  0.0978  0  0.969674  0  0  0.107717  0  1.032167  0  0  0.1101  0  1.03182  0  0.079246  0  0.105693  0.105822  0  1.032833  0
H  H37  1  0.80949952  0.16749636  0.29139285  1  0  0.097778  0  0.969499  0  0  0.107609  0  1.032116  0  0  0.10999  0  1.031773  0  0.079078  0  0.105744  0.105716  0  1.032779  0
H  H38  1  0.30946656  0.33249835  0.79138263  1  0  0.097751  0  0.969506  0  0  0.107616  0  1.032073  0  0  0.109996  0  1.03173  0  0.079177  0  0.105691  0.105722  0  1.032737  0
H  H39  1  0.19050687  0.83250130  0.70861506  1  0  0.097779  0  0.969585  0  0  0.107657  0  1.032123  0  0  0.110037  0  1.03178  0  0.079277  0  0.105688  0.105763  0  1.032786  0
H  H40  1  0.77435149  0.63313258  0.81298104  1  0  0.102949  0  0.939875  0  0  0.116914  0  1.00457  0  0  0.119229  0  1.003333  0  0.067505  0  0.105242  0.115358  0  1.005368  0
H  H41  1  0.72563826  0.13313272  0.68702168  1  0  0.102904  0  0.939916  0  0  0.11685  0  1.004593  0  0  0.11916  0  1.003361  0  0.067706  0  0.105229  0.115296  0  1.005393  0
H  H42  1  0.22566606  0.36687024  0.18702465  1  0  0.102977  0  0.939813  0  0  0.116937  0  1.004494  0  0  0.119251  0  1.003252  0  0.067661  0  0.105278  0.115381  0  1.005294  0
H  H43  1  0.27433838  0.86686289  0.31297047  1  0  0.102979  0  0.939821  0  0  0.116911  0  1.0045  0  0  0.119223  0  1.003261  0  0.067829  0  0.105228  0.11535  0  1.005312  0
H  H44  1  0.59793433  0.56002776  0.83728430  1  0  0.121974  0  0.967157  0  0  0.136729  0  1.025373  0  0  0.139424  0  1.024448  0  0.1201  0  0.107169  0.134847  0  1.026075  0
H  H45  1  0.90205789  0.06003305  0.66271864  1  0  0.122069  0  0.967045  0  0  0.136738  0  1.025343  0  0  0.13943  0  1.024421  0  0.120173  0  0.107168  0.134857  0  1.02605  0
H  H46  1  0.40207826  0.43997609  0.16272093  1  0  0.122034  0  0.967211  0  0  0.136746  0  1.025456  0  0  0.139438  0  1.024528  0  0.120021  0  0.107188  0.134864  0  1.026159  0
H  H47  1  0.09792494  0.93997286  0.33727516  1  0  0.121962  0  0.967087  0  0  0.136654  0  1.025319  0  0  0.139346  0  1.024394  0  0.120101  0  0.107117  0.134776  0  1.026016  0
H  H48  1  0.77949610  0.43308151  0.72416886  1  0  0.058217  0  0.948758  0  0  0.076262  0  1.011162  0  0  0.076361  0  1.012824  0  0.05774  0  0.086396  0.076099  0  1.01006  0
H  H49  1  0.72050232  0.93308859  0.77583086  1  0  0.058289  0  0.948787  0  0  0.076336  0  1.011161  0  0  0.076438  0  1.012819  0  0.057755  0  0.086425  0.076173  0  1.010058  0
H  H50  1  0.22051773  0.56692543  0.27583214  1  0  0.058277  0  0.948747  0  0  0.076338  0  1.011153  0  0  0.076441  0  1.012812  0  0.057841  0  0.086437  0.076173  0  1.010056  0
H  H51  1  0.27948919  0.06691835  0.22416484  1  0  0.058253  0  0.948731  0  0  0.0763  0  1.011158  0  0  0.076405  0  1.012813  0  0.05768  0  0.086404  0.076135  0  1.010059  0
H  H52  1  0.60450615  0.36334822  0.75121540  1  0  0.058748  0  0.961524  0  0  0.076743  0  1.026899  0  0  0.076884  0  1.02756  0  0.029471  0  0.089635  0.076495  0  1.0266  0
H  H53  1  0.89547616  0.86334293  0.74878012  1  0  0.058827  0  0.961472  0  0  0.076814  0  1.02681  0  0  0.076957  0  1.027471  0  0.029507  0  0.089665  0.076566  0  1.026512  0
H  H54  1  0.39550645  0.63665872  0.24878495  1  0  0.058693  0  0.961616  0  0  0.076763  0  1.026922  0  0  0.076907  0  1.027583  0  0.029282  0  0.089613  0.076514  0  1.026623  0
H  H55  1  0.10450047  0.13665680  0.25121149  1  0  0.05879  0  0.961477  0  0  0.076815  0  1.026828  0  0  0.076959  0  1.027489  0  0.02941  0  0.089662  0.076566  0  1.026527  0
H  H56  1  0.44031008  0.57697406  0.70627985  1  0  0.109258  0  0.933507  0  0  0.125546  0  0.990942  0  0  0.126644  0  0.992612  0  0.02738  0  0.102573  0.124773  0  0.989862  0
H  H57  1  0.05969436  0.07695461  0.79371799  1  0  0.109262  0  0.933448  0  0  0.125613  0  0.99086  0  0  0.126714  0  0.992522  0  0.028583  0  0.102616  0.124837  0  0.989781  0
H  H58  1  0.55969508  0.42303082  0.29372253  1  0  0.109243  0  0.933537  0  0  0.125566  0  0.990964  0  0  0.126664  0  0.99263  0  0.027969  0  0.10259  0.124791  0  0.989886  0
H  H59  1  0.94030087  0.92303068  0.20627371  1  0  0.109228  0  0.933479  0  0  0.125544  0  0.99091  0  0  0.126643  0  0.992573  0  0.028314  0  0.102609  0.124774  0  0.98983  0
H  H60  1  0.61506568  0.65237432  0.68343922  1  0  0.13265  0  0.967494  0  0  0.146634  0  1.027392  0  0  0.150006  0  1.025398  0  0.145693  0  0.112563  0.144325  0  1.028733  0
H  H61  1  0.88494143  0.15238374  0.81655425  1  0  0.132588  0  0.967537  0  0  0.146651  0  1.027372  0  0  0.150026  0  1.025377  0  0.145894  0  0.112564  0.144343  0  1.028717  0
H  H62  1  0.38493451  0.34762231  0.31655944  1  0  0.132644  0  0.967472  0  0  0.146632  0  1.02739  0  0  0.150001  0  1.025405  0  0.145602  0  0.112541  0.144327  0  1.028738  0
H  H63  1  0.11506249  0.84762423  0.18343445  1  0  0.132632  0  0.967503  0  0  0.146582  0  1.027475  0  0  0.149954  0  1.025488  0  0.145738  0  0.112494  0.14428  0  1.028822  0
C  C64  1  0.82120354  0.47878632  0.19616412  1  0  -0.129062  0  3.739752  0  0  -0.102207  0  3.983688  0  0  -0.109759  0  4.006587  0  -0.156308  0  -0.016826  -0.097371  0  3.968283  0
C  C65  1  0.67882588  0.97879340  0.30384876  1  0  -0.129101  0  3.740076  0  0  -0.102019  0  3.983625  0  0  -0.109569  0  4.006522  0  -0.15574  0  -0.016873  -0.097182  0  3.968216  0
C  C66  1  0.17880285  0.52120413  0.80382806  1  0  -0.128883  0  3.739563  0  0  -0.102173  0  3.98362  0  0  -0.109728  0  4.006522  0  -0.156091  0  -0.01687  -0.097336  0  3.968212  0
C  C67  1  0.32117679  0.02121251  0.69616260  1  0  -0.129072  0  3.739759  0  0  -0.10226  0  3.983667  0  0  -0.109815  0  4.006575  0  -0.155746  0  -0.016895  -0.097437  0  3.968283  0
C  C68  1  0.93195715  0.37845981  0.23056042  1  0  -0.079628  0  3.754032  0  0  -0.102836  0  4.002211  0  0  -0.10335  0  4.02356  0  -0.067255  0  -0.082831  -0.102257  0  3.988011  0
C  C69  1  0.56806111  0.87846689  0.26945631  1  0  -0.080118  0  3.754024  0  0  -0.103303  0  4.002102  0  0  -0.103823  0  4.023459  0  -0.068802  0  -0.082791  -0.102718  0  3.987895  0
C  C70  1  0.06804800  0.62153888  0.76943219  1  0  -0.080187  0  3.753837  0  0  -0.103224  0  4.002015  0  0  -0.103741  0  4.02337  0  -0.066804  0  -0.083072  -0.102642  0  3.987812  0
C  C71  1  0.43193412  0.12153593  0.73055708  1  0  -0.079809  0  3.754413  0  0  -0.102886  0  4.002479  0  0  -0.103399  0  4.023821  0  -0.068475  0  -0.082689  -0.102301  0  3.988277  0
C  C72  1  0.99445879  0.38624083  0.30694081  1  0  -0.059059  0  3.715949  0  0  -0.068553  0  3.962955  0  0  -0.071402  0  3.982569  0  -0.033603  0  -0.081805  -0.066566  0  3.949694  0
C  C73  1  0.50554584  0.88624275  0.19307738  1  0  -0.058874  0  3.716015  0  0  -0.068379  0  3.963003  0  0  -0.071231  0  3.982628  0  -0.034766  0  -0.081906  -0.066394  0  3.949744  0
C  C74  1  0.00557488  0.61377024  0.69304522  1  0  -0.058859  0  3.715301  0  0  -0.068227  0  3.962242  0  0  -0.071075  0  3.981861  0  -0.033517  0  -0.081525  -0.066244  0  3.948987  0
C  C75  1  0.49444816  0.11376728  0.80693860  1  0  -0.059131  0  3.715879  0  0  -0.068614  0  3.96287  0  0  -0.07143  0  3.982496  0  -0.034041  0  -0.081935  -0.066627  0  3.949611  0
C  C76  1  0.94447211  0.49300427  0.34813740  1  0  -0.060697  0  3.742064  0  0  -0.076573  0  3.988902  0  0  -0.07582  0  4.006871  0  -0.093017  0  -0.085034  -0.076935  0  3.976692  0
C  C77  1  0.55552880  0.99299692  0.15187394  1  0  -0.060972  0  3.741835  0  0  -0.076832  0  3.988695  0  0  -0.076112  0  4.006648  0  -0.092252  0  -0.085239  -0.07719  0  3.976499  0
C  C78  1  0.05555536  0.50699649  0.65185131  1  0  -0.060901  0  3.741548  0  0  -0.076795  0  3.988461  0  0  -0.076053  0  4.006426  0  -0.092933  0  -0.085093  -0.077174  0  3.976238  0
C  C79  1  0.44446148  0.00700178  0.84813899  1  0  -0.060788  0  3.741773  0  0  -0.076662  0  3.98864  0  0  -0.075902  0  4.006585  0  -0.092849  0  -0.085086  -0.077028  0  3.976434  0
C  C80  1  0.83578056  0.59466558  0.31288697  1  0  -0.078428  0  3.756539  0  0  -0.087509  0  4.005151  0  0  -0.091121  0  4.026636  0  -0.02228  0  -0.090553  -0.085008  0  3.99056  0
C  C81  1  0.66423150  0.09466572  0.18712105  1  0  -0.078398  0  3.756074  0  0  -0.087435  0  4.004652  0  0  -0.091047  0  4.02614  0  -0.022718  0  -0.090568  -0.084936  0  3.990068  0
C  C82  1  0.16422955  0.40533002  0.68710664  1  0  -0.078187  0  3.756625  0  0  -0.087311  0  4.005255  0  0  -0.090924  0  4.026745  0  -0.022832  0  -0.09041  -0.084813  0  3.990673  0
C  C83  1  0.33575629  0.90533710  0.81288948  1  0  -0.078448  0  3.756186  0  0  -0.087545  0  4.004821  0  0  -0.091157  0  4.026302  0  -0.022276  0  -0.090542  -0.085044  0  3.990231  0
C  C84  1  0.77447425  0.58848839  0.23661907  1  0  -0.057202  0  3.735759  0  0  -0.079664  0  3.977685  0  0  -0.079056  0  3.998508  0  -0.068164  0  -0.080949  -0.079738  0  3.963698  0
C  C85  1  0.72554774  0.08848131  0.26338825  1  0  -0.057013  0  3.735612  0  0  -0.07953  0  3.977529  0  0  -0.078921  0  3.998352  0  -0.067377  0  -0.080869  -0.0796  0  3.963532  0
C  C86  1  0.22552470  0.41151237  0.76337243  1  0  -0.05714  0  3.735883  0  0  -0.079518  0  3.977881  0  0  -0.078908  0  3.99871  0  -0.068068  0  -0.08096  -0.079594  0  3.963893  0
C  C87  1  0.27444997  0.91151532  0.73661832  1  0  -0.05707  0  3.73542  0  0  -0.079489  0  3.97739  0  0  -0.078881  0  3.99822  0  -0.068299  0  -0.08089  -0.079559  0  3.963407  0
C  C88  1  0.81594733  0.45210165  0.87835139  1  0  0.756143  0  3.812744  0  0  0.711355  0  4.114927  0  0  0.745632  0  4.103726  0  1.517657  0  0.218901  0.688156  0  4.121803  0
C  C89  1  0.68404985  0.95210563  0.62165147  1  0  0.75615  0  3.812932  0  0  0.711342  0  4.115072  0  0  0.745618  0  4.103871  0  1.517237  0  0.218884  0.688145  0  4.121948  0
C  C90  1  0.18406154  0.54789808  0.12165241  1  0  0.756287  0  3.812541  0  0  0.711436  0  4.11481  0  0  0.745712  0  4.103597  0  1.517174  0  0.218971  0.688236  0  4.12169  0
C  C91  1  0.31594042  0.04788379  0.37834357  1  0  0.755974  0  3.812486  0  0  0.711018  0  4.11488  0  0  0.745293  0  4.103682  0  1.517444  0  0.218791  0.687822  0  4.121746  0
C  C92  1  0.71161426  0.53446968  0.81767539  1  0  -0.290711  0  3.69958  0  0  -0.325388  0  3.942404  0  0  -0.332498  0  3.951065  0  -0.076401  0  -0.168163  -0.320507  0  3.936303  0
C  C93  1  0.78838169  0.03447290  0.68232627  1  0  -0.290728  0  3.699719  0  0  -0.325268  0  3.942308  0  0  -0.332377  0  3.950978  0  -0.076766  0  -0.168119  -0.320382  0  3.936188  0
C  C94  1  0.28839833  0.46553417  0.18232659  1  0  -0.290906  0  3.699748  0  0  -0.325458  0  3.942453  0  0  -0.332576  0  3.951145  0  -0.076376  0  -0.168248  -0.320561  0  3.936311  0
C  C95  1  0.21160858  0.96552579  0.31766930  1  0  -0.290651  0  3.699503  0  0  -0.325061  0  3.942086  0  0  -0.332161  0  3.950744  0  -0.076751  0  -0.167997  -0.320199  0  3.936012  0
C  C96  1  0.66685527  0.46057222  0.74395067  1  0  -0.041558  0  3.731805  0  0  -0.087529  0  3.992328  0  0  -0.086208  0  4.006437  0  -0.022482  0  -0.170772  -0.088264  0  3.982604  0
C  C97  1  0.83314316  0.96057208  0.75604851  1  0  -0.041771  0  3.731978  0  0  -0.087711  0  3.992435  0  0  -0.08639  0  4.006537  0  -0.022582  0  -0.170853  -0.088444  0  3.982716  0
C  C98  1  0.33315856  0.53943472  0.25605142  1  0  -0.041547  0  3.731745  0  0  -0.087619  0  3.992374  0  0  -0.086303  0  4.006477  0  -0.022519  0  -0.170788  -0.088352  0  3.982646  0
C  C99  1  0.16685083  0.03942970  0.24394633  1  0  -0.041594  0  3.731805  0  0  -0.087664  0  3.992358  0  0  -0.086351  0  4.006471  0  -0.022482  0  -0.170748  -0.08839  0  3.982634  0
C  C100  1  0.55620954  0.55205297  0.68819238  1  0  -0.306617  0  3.700546  0  0  -0.343265  0  3.945879  0  0  -0.350866  0  3.95476  0  -0.054076  0  -0.170189  -0.338101  0  3.939742  0
C  C101  1  0.94378641  0.05205311  0.81180657  1  0  -0.306409  0  3.700574  0  0  -0.34334  0  3.945935  0  0  -0.350942  0  3.954814  0  -0.055057  0  -0.170191  -0.338164  0  3.93982  0
C  C102  1  0.44379437  0.44794779  0.31181151  1  0  -0.306586  0  3.7004  0  0  -0.343311  0  3.945893  0  0  -0.350906  0  3.954769  0  -0.054517  0  -0.170181  -0.338157  0  3.939768  0
C  C103  1  0.05621130  0.94794765  0.18818753  1  0  -0.306587  0  3.7005  0  0  -0.343253  0  3.945913  0  0  -0.350857  0  3.954791  0  -0.055002  0  -0.170207  -0.338112  0  3.939795  0
C  C104  1  0.50760418  0.49351964  0.61162750  1  0  0.779825  0  3.767838  0  0  0.735001  0  4.065049  0  0  0.76939  0  4.054249  0  1.537711  0  0.239127  0.711421  0  4.071892  0
C  C105  1  0.99237565  0.99352156  0.88836888  1  0  0.779488  0  3.768253  0  0  0.734997  0  4.064951  0  0  0.769389  0  4.054144  0  1.537015  0  0.239162  0.711368  0  4.071876  0
C  C106  1  0.49238858  0.50648215  0.38837698  1  0  0.779726  0  3.768054  0  0  0.734952  0  4.065209  0  0  0.769339  0  4.054409  0  1.538058  0  0.239169  0.711372  0  4.072051  0
C  C107  1  0.00760594  0.00648538  0.11162265  1  0  0.779908  0  3.767833  0  0  0.735076  0  4.065069  0  0  0.769466  0  4.054261  0  1.538126  0  0.23929  0.711501  0  4.071913  0
S  S108  1  0.73810982  0.47304307  0.09906892  1  0  1.384122  0  5.557221  0  0  1.28535  0  6.082717  0  0  1.334376  0  6.055351  0  3.18515  0  0.547884  1.251476  0  6.100505  0
S  S109  1  0.76191961  0.97304603  0.40094342  1  0  1.384683  0  5.556743  0  0  1.28586  0  6.082221  0  0  1.334884  0  6.054855  0  3.185242  0  0.548232  1.251986  0  6.100008  0
S  S110  1  0.26188542  0.52697418  0.90092386  1  0  1.384112  0  5.556608  0  0  1.285388  0  6.082103  0  0  1.334409  0  6.054744  0  3.184955  0  0.548012  1.251514  0  6.099885  0
S  S111  1  0.23808678  0.02694648  0.59906449  1  0  1.3843  0  5.556915  0  0  1.285536  0  6.082425  0  0  1.334554  0  6.05507  0  3.185553  0  0.548096  1.251666  0  6.100208  0
O  O112  1  0.32446393  0.23403850  0.04953139  1  0  -0.867948  0  1.848274  0  0  -0.832448  0  2.034538  0  0  -0.847952  0  2.006135  0  -1.243914  0  -0.614238  -0.821704  0  2.053346  0
O  O113  1  0.17554794  0.73403630  0.45046713  1  0  -0.868033  0  1.848265  0  0  -0.832534  0  2.034535  0  0  -0.848038  0  2.006105  0  -1.244106  0  -0.614268  -0.821786  0  2.053341  0
O  O114  1  0.67553998  0.76596432  0.95046653  1  0  -0.867907  0  1.848347  0  0  -0.832406  0  2.034628  0  0  -0.847912  0  2.00622  0  -1.243893  0  -0.614288  -0.821661  0  2.053435  0
O  O115  1  0.82443737  0.26596240  0.54954155  1  0  -0.867925  0  1.848357  0  0  -0.832434  0  2.034653  0  0  -0.847938  0  2.006315  0  -1.243998  0  -0.61431  -0.821688  0  2.053462  0
O  O116  1  0.81548607  0.35281824  0.07003704  1  0  -0.787787  0  2.083013  0  0  -0.740551  0  2.356048  0  0  -0.761315  0  2.339428  0  -1.354729  0  -0.389723  -0.725774  0  2.367131  0
O  O117  1  0.68455576  0.85281707  0.42997699  1  0  -0.787908  0  2.082832  0  0  -0.740642  0  2.355794  0  0  -0.7614  0  2.339166  0  -1.354893  0  -0.389784  -0.725872  0  2.366905  0
O  O118  1  0.18450420  0.64716809  0.92995474  1  0  -0.787575  0  2.0836  0  0  -0.740327  0  2.35659  0  0  -0.761083  0  2.339968  0  -1.355008  0  -0.389647  -0.72557  0  2.367716  0
O  O119  1  0.31545807  0.14717338  0.57002781  1  0  -0.787828  0  2.082936  0  0  -0.740558  0  2.355873  0  0  -0.761323  0  2.339252  0  -1.354744  0  -0.389749  -0.72579  0  2.366982  0
O  O120  1  0.76215396  0.13018791  0.97603365  1  0  -0.871866  0  1.834472  0  0  -0.831725  0  2.011791  0  0  -0.850138  0  1.98469  0  -1.232966  0  -0.612492  -0.818725  0  2.029683  0
O  O121  1  0.73785314  0.63017025  0.52396904  1  0  -0.872111  0  1.834244  0  0  -0.831923  0  2.011673  0  0  -0.850337  0  1.984487  0  -1.232893  0  -0.612603  -0.818954  0  2.029621  0
O  O122  1  0.23785119  0.86981594  0.02396114  1  0  -0.871835  0  1.834437  0  0  -0.831663  0  2.011904  0  0  -0.850074  0  1.984751  0  -1.233056  0  -0.612501  -0.818669  0  2.029797  0
O  O123  1  0.26214209  0.36982020  0.47603296  1  0  -0.871951  0  1.834294  0  0  -0.831802  0  2.011759  0  0  -0.850216  0  1.984678  0  -1.232774  0  -0.612549  -0.818811  0  2.029669  0
O  O124  1  0.55853943  0.45666265  0.08827073  1  0  -0.652143  0  1.955198  0  0  -0.597589  0  2.191555  0  0  -0.619169  0  2.176914  0  -1.330376  0  -0.322638  -0.58234  0  2.201075  0
O  O125  1  0.94148628  0.95666663  0.41173910  1  0  -0.652404  0  1.955435  0  0  -0.59792  0  2.191865  0  0  -0.6195  0  2.177222  0  -1.330652  0  -0.322826  -0.582669  0  2.201388  0
O  O126  1  0.44145828  0.54335563  0.91172282  1  0  -0.652173  0  1.955029  0  0  -0.597644  0  2.191368  0  0  -0.619207  0  2.176704  0  -1.330298  0  -0.322742  -0.582394  0  2.200891  0
O  O127  1  0.05851763  0.04332176  0.58827292  1  0  -0.652311  0  1.955278  0  0  -0.59783  0  2.191661  0  0  -0.619392  0  2.177019  0  -1.330375  0  -0.32285  -0.582579  0  2.201182  0
O  O128  1  0.83886931  0.32393810  0.87190580  1  0  -0.682639  0  1.990557  0  0  -0.63758  0  2.229725  0  0  -0.661905  0  2.220719  0  -1.176791  0  -0.362366  -0.620896  0  2.235404  0
O  O129  1  0.66114895  0.82394415  0.62809195  1  0  -0.682711  0  1.990826  0  0  -0.637596  0  2.229956  0  0  -0.661924  0  2.220957  0  -1.176643  0  -0.362411  -0.620904  0  2.235626  0
O  O130  1  0.16114576  0.67605544  0.12808990  1  0  -0.682667  0  1.990766  0  0  -0.637567  0  2.229953  0  0  -0.661889  0  2.220955  0  -1.176723  0  -0.362429  -0.620884  0  2.235628  0
O  O131  1  0.33885868  0.17605455  0.37190360  1  0  -0.682493  0  1.990258  0  0  -0.637392  0  2.229495  0  0  -0.661719  0  2.220501  0  -1.176508  0  -0.362287  -0.620706  0  2.235171  0
O  O132  1  0.41798080  0.56996713  0.56159093  1  0  -0.773569  0  2.030486  0  0  -0.724533  0  2.276749  0  0  -0.749756  0  2.263806  0  -1.213656  0  -0.396951  -0.706635  0  2.285396  0
O  O133  1  0.08201000  0.06996623  0.93840727  1  0  -0.773483  0  2.030653  0  0  -0.724543  0  2.276721  0  0  -0.749761  0  2.263773  0  -1.213627  0  -0.396963  -0.706633  0  2.285387  0
O  O134  1  0.58200451  0.43002229  0.43841015  1  0  -0.773537  0  2.030495  0  0  -0.724506  0  2.276755  0  0  -0.749704  0  2.263764  0  -1.213673  0  -0.39698  -0.706605  0  2.285384  0
O  O135  1  0.91798399  0.93003865  0.06158648  1  0  -0.773625  0  2.030538  0  0  -0.724597  0  2.276851  0  0  -0.749794  0  2.263864  0  -1.213671  0  -0.397012  -0.706686  0  2.285472  0
O  O136  1  0.78592036  0.60669013  0.07186705  1  0  -0.745985  0  2.037039  0  0  -0.697244  0  2.304137  0  0  -0.718468  0  2.288132  0  -1.338046  0  -0.392069  -0.682317  0  2.315065  0
O  O137  1  0.71410535  0.10669645  0.42814603  1  0  -0.74618  0  2.036809  0  0  -0.697347  0  2.303785  0  0  -0.718574  0  2.287785  0  -1.338112  0  -0.392083  -0.682418  0  2.314716  0
O  O138  1  0.21408231  0.39330857  0.92813509  1  0  -0.746278  0  2.036273  0  0  -0.697482  0  2.3033  0  0  -0.718696  0  2.287267  0  -1.337774  0  -0.392171  -0.68255  0  2.314227  0
O  O139  1  0.28590104  0.89330122  0.57186405  1  0  -0.746047  0  2.037145  0  0  -0.697204  0  2.30414  0  0  -0.71841  0  2.288097  0  -1.338481  0  -0.392013  -0.682272  0  2.315064  0
O  O140  1  0.88202751  0.51201204  0.93946577  1  0  -0.856979  0  2.197631  0  0  -0.816195  0  2.46427  0  0  -0.841369  0  2.452969  0  -1.234541  0  -0.456234  -0.798343  0  2.471281  0
O  O141  1  0.61794612  0.01201836  0.56053925  1  0  -0.856932  0  2.19755  0  0  -0.816201  0  2.464259  0  0  -0.841371  0  2.452941  0  -1.234318  0  -0.456208  -0.798357  0  2.471286  0
O  O142  1  0.11796524  0.48797738  0.06053600  1  0  -0.857051  0  2.197305  0  0  -0.816242  0  2.463961  0  0  -0.841427  0  2.452679  0  -1.234194  0  -0.456197  -0.798395  0  2.47098  0
O  O143  1  0.38204291  0.98796900  0.43945730  1  0  -0.856961  0  2.197384  0  0  -0.816159  0  2.464139  0  0  -0.841342  0  2.452851  0  -1.234382  0  -0.456244  -0.79832  0  2.471176  0
O  O144  1  0.55245368  0.37222387  0.59887448  1  0  -0.731852  0  1.996915  0  0  -0.68581  0  2.250681  0  0  -0.709959  0  2.238739  0  -1.212753  0  -0.388338  -0.668982  0  2.25877  0
O  O145  1  0.94751870  0.87222477  0.90113206  1  0  -0.731762  0  1.997039  0  0  -0.685812  0  2.250593  0  0  -0.710005  0  2.238732  0  -1.212474  0  -0.388422  -0.668968  0  2.258707  0
O  O146  1  0.44753287  0.62777379  0.40112889  1  0  -0.731811  0  1.997119  0  0  -0.685784  0  2.250834  0  0  -0.709966  0  2.23896  0  -1.213271  0  -0.388389  -0.668954  0  2.258918  0
O  O147  1  0.05247405  0.12777187  0.09886592  1  0  -0.731911  0  1.997018  0  0  -0.685818  0  2.250724  0  0  -0.710009  0  2.238871  0  -1.213197  0  -0.38846  -0.668992  0  2.258809  0
