# generated using pymatgen
data_RbH19C24(NO3)4
_symmetry_space_group_name_H-M   'P 1'
_cell_length_a   11.30083466
_cell_length_b   11.47770076
_cell_length_c   12.14300000
_cell_angle_alpha   96.74313813
_cell_angle_beta   110.65243251
_cell_angle_gamma   114.22603314
_symmetry_Int_Tables_number   1
_chemical_formula_structural   RbH19C24(NO3)4
_chemical_formula_sum   'Rb2 H38 C48 N8 O24'
_cell_volume   1279.03798459
_cell_formula_units_Z   2
loop_
 _symmetry_equiv_pos_site_id
 _symmetry_equiv_pos_as_xyz
  1  'x, y, z'
loop_
 _atom_site_type_symbol
 _atom_site_label
 _atom_site_symmetry_multiplicity
 _atom_site_fract_x
 _atom_site_fract_y
 _atom_site_fract_z
 _atom_site_occupancy
 _atom_site_hle17_bader_spin_density
 _atom_site_hle17_ddec_charge
 _atom_site_hle17_ddec_spin_density
 _atom_site_hle17_ddec_sum_bond_order
 _atom_site_hle17_magmom
 _atom_site_hse06_10hf_bader_spin_density
 _atom_site_hse06_10hf_ddec_charge
 _atom_site_hse06_10hf_ddec_spin_density
 _atom_site_hse06_10hf_ddec_sum_bond_order
 _atom_site_hse06_10hf_magmom
 _atom_site_hse06_bader_spin_density
 _atom_site_hse06_ddec_charge
 _atom_site_hse06_ddec_spin_density
 _atom_site_hse06_ddec_sum_bond_order
 _atom_site_hse06_magmom
 _atom_site_pbe_bader_charge
 _atom_site_pbe_bader_spin_density
 _atom_site_pbe_cm5_charge
 _atom_site_pbe_ddec_charge
 _atom_site_pbe_ddec_spin_density
 _atom_site_pbe_ddec_sum_bond_order
 _atom_site_pbe_magmom
Rb  Rb0  1  0.99921673  0.07165809  0.16454535  1  0  0.91955  0  0.479692  0  0  0.855426  0  0.70243  0  0  0.873307  0  0.676355  0  0.905933  0  0.786314  0.842173  0  0.721328  0
Rb  Rb1  1  0.00078295  0.92834160  0.83545508  1  0  0.919605  0  0.479656  0  0  0.855415  0  0.702448  0  0  0.873296  0  0.676373  0  0.905927  0  0.786308  0.84216  0  0.721346  0
H  H2  1  0.66684701  0.30866480  0.51466715  1  0  0.125863  0  0.944992  0  0  0.133465  0  1.006786  0  0  0.137178  0  1.005354  0  0.093264  0  0.108874  0.130726  0  1.008103  0
H  H3  1  0.33315214  0.69133389  0.48533300  1  0  0.125869  0  0.944994  0  0  0.133483  0  1.00678  0  0  0.137197  0  1.005346  0  0.093269  0  0.10887  0.130744  0  1.008097  0
H  H4  1  0.41422943  0.19037478  0.34361736  1  0  0.119974  0  0.954613  0  0  0.124252  0  1.021543  0  0  0.127711  0  1.018065  0  0.14944  0  0.114692  0.121962  0  1.023701  0
H  H5  1  0.58577024  0.80962491  0.65638308  1  0  0.119996  0  0.954574  0  0  0.124226  0  1.021596  0  0  0.127687  0  1.018115  0  0.149455  0  0.114688  0.121945  0  1.023745  0
H  H6  1  0.57072880  0.08853128  0.09021117  1  0  0.11808  0  0.955901  0  0  0.122807  0  1.023056  0  0  0.126609  0  1.018462  0  0.155759  0  0.11367  0.119978  0  1.026382  0
H  H7  1  0.42926940  0.91146741  0.90978867  1  0  0.118081  0  0.955873  0  0  0.122803  0  1.023045  0  0  0.126611  0  1.018434  0  0.15577  0  0.113661  0.119974  0  1.02637  0
H  H8  1  0.82058795  0.20540474  0.25978739  1  0  0.120535  0  0.968954  0  0  0.127721  0  1.031709  0  0  0.131265  0  1.03077  0  0.097836  0  0.109481  0.125013  0  1.032964  0
H  H9  1  0.17941120  0.79459395  0.74021277  1  0  0.120517  0  0.968977  0  0  0.127704  0  1.031728  0  0  0.131248  0  1.030791  0  0.097826  0  0.109475  0.124997  0  1.032982  0
H  H10  1  0.66795674  0.57965280  0.75903115  1  0  0.118513  0  0.966597  0  0  0.122544  0  1.034833  0  0  0.126822  0  1.032829  0  0.103208  0  0.105741  0.119522  0  1.036341  0
H  H11  1  0.33204441  0.42034789  0.24096988  1  0  0.118497  0  0.966561  0  0  0.122543  0  1.03478  0  0  0.126822  0  1.032776  0  0.103218  0  0.105724  0.119521  0  1.036294  0
H  H12  1  0.48855463  0.41271495  0.55497869  1  0  0.114419  0  0.941012  0  0  0.124505  0  0.998984  0  0  0.127176  0  0.996761  0  0.094491  0  0.113298  0.122545  0  1.000504  0
H  H13  1  0.51144452  0.58728373  0.44502064  1  0  0.114421  0  0.941019  0  0  0.124505  0  0.99899  0  0  0.127176  0  0.996768  0  0.094459  0  0.113297  0.122545  0  1.00051  0
H  H14  1  0.14095378  0.39024782  0.64087671  1  0  0.11373  0  0.950647  0  0  0.123901  0  1.008066  0  0  0.12704  0  1.005195  0  0.098938  0  0.113972  0.121519  0  1.010179  0
H  H15  1  0.85904589  0.60975187  0.35912373  1  0  0.113686  0  0.950667  0  0  0.123842  0  1.008102  0  0  0.126982  0  1.005232  0  0.098948  0  0.113953  0.121461  0  1.010215  0
H  H16  1  0.31893162  0.55417887  0.84561276  1  0  0.113874  0  0.982062  0  0  0.123302  0  1.044677  0  0  0.126498  0  1.044644  0  0.106168  0  0.102546  0.121079  0  1.044721  0
H  H17  1  0.68106805  0.44582082  0.15438685  1  0  0.113877  0  0.982057  0  0  0.12331  0  1.044663  0  0  0.126506  0  1.044629  0  0.106165  0  0.102551  0.121087  0  1.044708  0
H  H18  1  0.24323759  0.19443672  0.81037663  1  0  0.115772  0  0.949754  0  0  0.126093  0  1.007351  0  0  0.13018  0  1.006194  0  0.056333  0  0.110352  0.123293  0  1.008152  0
H  H19  1  0.75676303  0.80556297  0.18962329  1  0  0.115759  0  0.949767  0  0  0.126073  0  1.007375  0  0  0.130161  0  1.006218  0  0.056319  0  0.110347  0.123273  0  1.008176  0
H  H20  1  0.11172915  0.06304330  0.58741672  1  0  0.118741  0  0.964063  0  0  0.122806  0  1.033578  0  0  0.126769  0  1.028933  0  0.168388  0  0.113129  0.119513  0  1.037746  0
H  H21  1  0.88827147  0.93695639  0.41258320  1  0  0.118746  0  0.964108  0  0  0.122802  0  1.03363  0  0  0.126765  0  1.028984  0  0.168371  0  0.113137  0.11951  0  1.037794  0
H  H22  1  0.50381197  0.07792166  0.59792553  1  0  0.119017  0  0.956508  0  0  0.122852  0  1.025331  0  0  0.126359  0  1.021832  0  0.121782  0  0.111604  0.119724  0  1.028832  0
H  H23  1  0.49618813  0.92207702  0.40207411  1  0  0.1191  0  0.956422  0  0  0.122865  0  1.025328  0  0  0.126372  0  1.021829  0  0.121821  0  0.111608  0.119737  0  1.028829  0
H  H24  1  0.63475375  0.20647594  0.82333584  1  0  0.116574  0  0.943977  0  0  0.128422  0  1.000316  0  0  0.131233  0  1.000576  0  0.069505  0  0.1079  0.126484  0  1.000155  0
H  H25  1  0.36524592  0.79352375  0.17666377  1  0  0.116587  0  0.94397  0  0  0.128428  0  1.000323  0  0  0.131239  0  1.000582  0  0.069513  0  0.107897  0.126489  0  1.000162  0
H  H26  1  0.70954878  0.50589547  0.95093385  1  0  0.120031  0  0.966859  0  0  0.126495  0  1.032796  0  0  0.130714  0  1.031211  0  0.124039  0  0.106054  0.123528  0  1.033975  0
H  H27  1  0.29045089  0.49410422  0.04906576  1  0  0.120068  0  0.966811  0  0  0.126526  0  1.032758  0  0  0.130744  0  1.031175  0  0.124045  0  0.106057  0.123558  0  1.033937  0
H  H28  1  0.79875758  0.35840592  0.04057612  1  0  0.118544  0  0.948326  0  0  0.123465  0  1.014512  0  0  0.12757  0  1.010217  0  0.119045  0  0.113819  0.120486  0  1.017615  0
H  H29  1  0.20124209  0.64159377  0.95942431  1  0  0.118532  0  0.948298  0  0  0.123453  0  1.014483  0  0  0.127557  0  1.010189  0  0.11905  0  0.113809  0.120475  0  1.017586  0
H  H30  1  0.21583320  0.70262719  0.27610399  1  0  0.11041  0  0.953436  0  0  0.116611  0  1.020532  0  0  0.119823  0  1.017338  0  0.095028  0  0.11205  0.114315  0  1.022714  0
H  H31  1  0.78416647  0.29737250  0.72389562  1  0  0.110415  0  0.953404  0  0  0.116599  0  1.020537  0  0  0.11981  0  1.017343  0  0.095016  0  0.112044  0.114302  0  1.022722  0
H  H32  1  0.13020979  0.85141685  0.18284257  1  0  0.117505  0  0.980424  0  0  0.118208  0  1.054441  0  0  0.122649  0  1.051515  0  0.119948  0  0.10755  0.115027  0  1.056905  0
H  H33  1  0.86978947  0.14858385  0.81715702  1  0  0.117557  0  0.980348  0  0  0.118216  0  1.054486  0  0  0.122667  0  1.051551  0  0.119955  0  0.107541  0.115032  0  1.056955  0
H  H34  1  0.96023363  0.30798613  0.46885728  1  0  0.384955  0  0.884928  0  0  0.359641  0  0.960467  0  0  0.370359  0  0.94781  0  0.634058  0  0.309448  0.352266  0  0.969045  0
H  H35  1  0.03976604  0.69201356  0.53114233  1  0  0.384948  0  0.884943  0  0  0.359642  0  0.96047  0  0  0.370361  0  0.947813  0  0.634084  0  0.309451  0.352267  0  0.969048  0
H  H36  1  0.46427108  0.29429744  0.99294463  1  0  0.381867  0  0.913802  0  0  0.348672  0  0.995405  0  0  0.361687  0  0.982117  0  0.65367  0  0.295378  0.339592  0  1.004501  0
H  H37  1  0.53572954  0.70570225  0.00705447  1  0  0.381848  0  0.913832  0  0  0.348671  0  0.995398  0  0  0.361688  0  0.982109  0  0.653662  0  0.29538  0.339591  0  1.004495  0
H  H38  1  0.75787200  0.72631712  0.97070794  1  0  0.383343  0  0.921041  0  0  0.350806  0  1.002728  0  0  0.363537  0  0.98989  0  0.632829  0  0.295226  0.341907  0  1.011516  0
H  H39  1  0.24212673  0.27368257  0.02929136  1  0  0.383348  0  0.921041  0  0  0.350813  0  1.002726  0  0  0.363543  0  0.989888  0  0.632835  0  0.295236  0.341914  0  1.011514  0
C  C40  1  0.75753348  0.26048781  0.39818430  1  0  0.379896  0  3.776097  0  0  0.367607  0  4.040999  0  0  0.384034  0  4.055654  0  0.553798  0  0.104447  0.356707  0  4.030412  0
C  C41  1  0.24246567  0.73951087  0.60181585  1  0  0.379892  0  3.776164  0  0  0.367603  0  4.04107  0  0  0.384031  0  4.055724  0  0.553814  0  0.104491  0.356704  0  4.030483  0
C  C42  1  0.64308852  0.25825706  0.42169256  1  0  -0.179944  0  3.68389  0  0  -0.201301  0  3.942  0  0  -0.212498  0  3.96398  0  -0.018644  0  -0.096476  -0.193934  0  3.927085  0
C  C43  1  0.35691115  0.74174263  0.57830787  1  0  -0.180015  0  3.683954  0  0  -0.201387  0  3.942066  0  0  -0.212585  0  3.964047  0  -0.018603  0  -0.096515  -0.194019  0  3.927153  0
C  C44  1  0.50385362  0.19350606  0.32718176  1  0  -0.054773  0  3.724537  0  0  -0.080849  0  3.984917  0  0  -0.075418  0  4.003386  0  0.02694  0  -0.07086  -0.084437  0  3.972294  0
C  C45  1  0.49614564  0.80649463  0.67281865  1  0  -0.054661  0  3.724464  0  0  -0.080751  0  3.984957  0  0  -0.075319  0  4.003422  0  0.026818  0  -0.070834  -0.084348  0  3.972333  0
C  C46  1  0.47836002  0.13072580  0.20836429  1  0  0.041242  0  3.732399  0  0  0.027182  0  3.989177  0  0  0.018652  0  4.013265  0  0.220159  0  0.06955  0.032679  0  3.972917  0
C  C47  1  0.52164018  0.86927490  0.79163643  1  0  0.041258  0  3.732374  0  0  0.02717  0  3.989157  0  0  0.018638  0  4.013245  0  0.220238  0  0.069548  0.032667  0  3.972899  0
C  C48  1  0.59187368  0.13501964  0.18321628  1  0  -0.043739  0  3.722927  0  0  -0.0705  0  3.983782  0  0  -0.063823  0  4.000229  0  -0.016019  0  -0.069525  -0.074587  0  3.972379  0
C  C49  1  0.40812599  0.86498005  0.81678416  1  0  -0.043764  0  3.722863  0  0  -0.070523  0  3.983709  0  0  -0.063842  0  4.000158  0  -0.016034  0  -0.069529  -0.074609  0  3.972307  0
C  C50  1  0.73083394  0.19963812  0.27784127  1  0  -0.207138  0  3.716472  0  0  -0.224474  0  3.966274  0  0  -0.236219  0  3.988867  0  -0.002141  0  -0.099939  -0.216869  0  3.950991  0
C  C51  1  0.26916521  0.80036057  0.72215888  1  0  -0.207141  0  3.716466  0  0  -0.224448  0  3.966231  0  0  -0.236196  0  3.988826  0  -0.002137  0  -0.099958  -0.216844  0  3.950948  0
C  C52  1  0.50696425  0.57985258  0.81880123  1  0  0.399046  0  3.824171  0  0  0.382145  0  4.087607  0  0  0.403258  0  4.098493  0  0.70049  0  0.101905  0.368091  0  4.079971  0
C  C53  1  0.49303595  0.42014811  0.18119867  1  0  0.399107  0  3.824228  0  0  0.382168  0  4.087707  0  0  0.40328  0  4.098592  0  0.700496  0  0.101903  0.368114  0  4.080071  0
C  C54  1  0.55297464  0.53770826  0.73403221  1  0  -0.200368  0  3.702267  0  0  -0.220923  0  3.9637  0  0  -0.233459  0  3.984476  0  -0.050488  0  -0.104134  -0.212961  0  3.949824  0
C  C55  1  0.44702503  0.46229143  0.26596740  1  0  -0.200339  0  3.702248  0  0  -0.220896  0  3.963684  0  0  -0.233433  0  3.984461  0  -0.050489  0  -0.104094  -0.212932  0  3.949803  0
C  C56  1  0.45339167  0.44533190  0.61939817  1  0  -0.057781  0  3.739128  0  0  -0.081443  0  3.994537  0  0  -0.075523  0  4.014326  0  0.036193  0  -0.075166  -0.084755  0  3.980717  0
C  C57  1  0.54660842  0.55466679  0.38060312  1  0  -0.057824  0  3.739017  0  0  -0.081497  0  3.994449  0  0  -0.075575  0  4.014233  0  0.036209  0  -0.075192  -0.084808  0  3.980626  0
C  C58  1  0.30426814  0.39313816  0.58424662  1  0  0.030273  0  3.753438  0  0  0.018953  0  4.013473  0  0  0.008224  0  4.039762  0  0.28107  0  0.065819  0.025567  0  3.995782  0
C  C59  1  0.69573300  0.60686253  0.41575523  1  0  0.030302  0  3.753347  0  0  0.018981  0  4.013377  0  0  0.008251  0  4.039665  0  0.281076  0  0.065814  0.025594  0  3.995688  0
C  C60  1  0.25590246  0.43263208  0.66650723  1  0  -0.064373  0  3.750698  0  0  -0.086637  0  4.002463  0  0  -0.080496  0  4.020721  0  -0.024542  0  -0.078505  -0.090106  0  3.989826  0
C  C61  1  0.74409627  0.56736761  0.33349207  1  0  -0.064307  0  3.750654  0  0  -0.086557  0  4.002406  0  0  -0.080414  0  4.020662  0  -0.024522  0  -0.078467  -0.090027  0  3.98977  0
C  C62  1  0.35542812  0.52358888  0.78148620  1  0  -0.197083  0  3.70771  0  0  -0.216177  0  3.959831  0  0  -0.22795  0  3.981221  0  -0.069424  0  -0.106108  -0.208816  0  3.945369  0
C  C63  1  0.64457155  0.47641081  0.21851341  1  0  -0.197115  0  3.707688  0  0  -0.216199  0  3.959806  0  0  -0.227971  0  3.981193  0  -0.06944  0  -0.10612  -0.208839  0  3.945343  0
C  C64  1  0.44706402  0.20627817  0.83158528  1  0  0.387127  0  3.797739  0  0  0.373632  0  4.060278  0  0  0.391574  0  4.07278  0  0.584442  0  0.106394  0.361663  0  4.051293  0
C  C65  1  0.55293660  0.79372152  0.16841464  1  0  0.387144  0  3.797676  0  0  0.373606  0  4.060297  0  0  0.391545  0  4.072805  0  0.584468  0  0.106377  0.361636  0  4.051311  0
C  C66  1  0.29876285  0.16589174  0.76421767  1  0  -0.215515  0  3.733074  0  0  -0.231956  0  3.986112  0  0  -0.243  0  4.007378  0  -0.02474  0  -0.103503  -0.224937  0  3.971706  0
C  C67  1  0.70123777  0.83410795  0.23578225  1  0  -0.215386  0  3.732878  0  0  -0.231909  0  3.986044  0  0  -0.242954  0  4.007309  0  -0.024748  0  -0.103475  -0.224891  0  3.971637  0
C  C68  1  0.22579463  0.09406900  0.63962239  1  0  -0.065167  0  3.746634  0  0  -0.09572  0  4.013524  0  0  -0.090681  0  4.032395  0  -0.033316  0  -0.078169  -0.098579  0  4.001169  0
C  C69  1  0.77420599  0.90593069  0.36037754  1  0  -0.064825  0  3.746986  0  0  -0.095704  0  4.013633  0  0  -0.090665  0  4.032502  0  -0.033324  0  -0.078151  -0.098564  0  4.001278  0
C  C70  1  0.30074257  0.06304029  0.58081805  1  0  0.038915  0  3.738049  0  0  0.018154  0  3.9975  0  0  0.009211  0  4.022946  0  0.193498  0  0.061595  0.023721  0  3.980098  0
C  C71  1  0.69925753  0.93695840  0.41918158  1  0  0.037169  0  3.738924  0  0  0.018193  0  3.997583  0  0  0.009254  0  4.023025  0  0.193581  0  0.061569  0.023759  0  3.980181  0
C  C72  1  0.44841946  0.10352209  0.64585677  1  0  -0.070031  0  3.747602  0  0  -0.095246  0  4.008333  0  0  -0.090601  0  4.027986  0  0.022024  0  -0.07783  -0.097543  0  3.994515  0
C  C73  1  0.55158064  0.89647660  0.35414205  1  0  -0.069755  0  3.747822  0  0  -0.095287  0  4.008371  0  0  -0.090643  0  4.028024  0  0.021899  0  -0.077836  -0.097584  0  3.994554  0
C  C74  1  0.52038520  0.17418427  0.77025031  1  0  -0.184585  0  3.703197  0  0  -0.203424  0  3.955381  0  0  -0.214365  0  3.97734  0  0.013876  0  -0.100315  -0.196061  0  3.93986  0
C  C75  1  0.47961553  0.82581743  0.22974904  1  0  -0.184507  0  3.703148  0  0  -0.203445  0  3.955468  0  0  -0.214385  0  3.97743  0  0.013886  0  -0.100322  -0.196082  0  3.939948  0
C  C76  1  0.91490846  0.68893849  0.06048875  1  0  0.375569  0  3.788765  0  0  0.366883  0  4.047141  0  0  0.382849  0  4.061458  0  0.540375  0  0.099303  0.356485  0  4.036943  0
C  C77  1  0.08509069  0.31106019  0.93951058  1  0  0.375634  0  3.7887  0  0  0.366928  0  4.047089  0  0  0.382895  0  4.061408  0  0.540442  0  0.099352  0.356531  0  4.03689  0
C  C78  1  0.82111377  0.54903570  0.02002911  1  0  -0.201631  0  3.712032  0  0  -0.222985  0  3.967233  0  0  -0.232824  0  3.987067  0  -0.116474  0  -0.105166  -0.216296  0  3.953521  0
C  C79  1  0.17888590  0.45096399  0.97997050  1  0  -0.201738  0  3.711951  0  0  -0.223091  0  3.967153  0  0  -0.232931  0  3.986988  0  -0.116468  0  -0.105208  -0.216402  0  3.953442  0
C  C80  1  0.87023075  0.46610037  0.07006519  1  0  -0.0656  0  3.751027  0  0  -0.089595  0  4.010706  0  0  -0.084688  0  4.028448  0  0.061137  0  -0.077013  -0.092675  0  3.998498  0
C  C81  1  0.12976892  0.53389932  0.92993442  1  0  -0.065552  0  3.750927  0  0  -0.089523  0  4.010611  0  0  -0.084614  0  4.028352  0  0.060985  0  -0.076999  -0.092605  0  3.998406  0
C  C82  1  0.01250639  0.52245844  0.16187284  1  0  0.041602  0  3.751866  0  0  0.024419  0  4.002286  0  0  0.01565  0  4.027944  0  0.205769  0  0.064007  0.029626  0  3.985174  0
C  C83  1  0.98749286  0.47754225  0.83812675  1  0  0.041576  0  3.751769  0  0  0.024323  0  4.002266  0  0  0.015551  0  4.027924  0  0.205958  0  0.063998  0.02953  0  3.985158  0
C  C84  1  0.10679378  0.66118462  0.20298784  1  0  -0.060715  0  3.744683  0  0  -0.088869  0  4.008408  0  0  -0.083783  0  4.02626  0  0.007983  0  -0.075841  -0.09149  0  3.995773  0
C  C85  1  0.89320495  0.33881507  0.79701146  1  0  -0.060698  0  3.744644  0  0  -0.088862  0  4.008466  0  0  -0.083772  0  4.02632  0  0.007966  0  -0.075865  -0.091485  0  3.995835  0
C  C86  1  0.05888039  0.74348245  0.15084998  1  0  -0.181867  0  3.710457  0  0  -0.204775  0  3.969387  0  0  -0.214361  0  3.988521  0  0.049708  0  -0.098621  -0.198738  0  3.956652  0
C  C87  1  0.94111886  0.25651824  0.84914878  1  0  -0.181773  0  3.710388  0  0  -0.204766  0  3.96947  0  0  -0.214359  0  3.988593  0  0.049664  0  -0.098606  -0.198728  0  3.956734  0
N  N88  1  0.33444388  0.06175324  0.11056289  1  0  0.481976  0  3.951075  0  0  0.528081  0  4.225236  0  0  0.550498  0  4.234277  0  0.293188  0  0.030651  0.513282  0  4.218769  0
N  N89  1  0.66555579  0.93824645  0.88943672  1  0  0.481903  0  3.951189  0  0  0.528096  0  4.225236  0  0  0.550513  0  4.234276  0  0.293582  0  0.030672  0.513296  0  4.21877  0
N  N90  1  0.20392843  0.29805618  0.46623758  1  0  0.500704  0  3.91823  0  0  0.529581  0  4.216748  0  0  0.552265  0  4.22691  0  0.24917  0  0.021046  0.514487  0  4.209874  0
N  N91  1  0.79607272  0.70194451  0.53376262  1  0  0.500697  0  3.91824  0  0  0.529556  0  4.2168  0  0  0.552241  0  4.226964  0  0.249159  0  0.021044  0.514462  0  4.209929  0
N  N92  1  0.22693729  0.99118311  0.45079917  1  0  0.473807  0  3.956513  0  0  0.533271  0  4.212503  0  0  0.556434  0  4.219909  0  0.306983  0  0.043408  0.517943  0  4.207155  0
N  N93  1  0.77306239  0.00881658  0.54920044  1  0  0.477793  0  3.955279  0  0  0.533221  0  4.212529  0  0  0.556388  0  4.219928  0  0.307017  0  0.043408  0.517893  0  4.20718  0
N  N94  1  0.06292785  0.43634766  0.21388947  1  0  0.480528  0  3.955782  0  0  0.540607  0  4.207032  0  0  0.563443  0  4.214635  0  0.288959  0  0.042621  0.525508  0  4.20168  0
N  N95  1  0.93707330  0.56365304  0.78610991  1  0  0.480509  0  3.955733  0  0  0.54062  0  4.20698  0  0  0.563457  0  4.214584  0  0.288942  0  0.042632  0.525518  0  4.201634  0
O  O96  1  0.89087992  0.32246895  0.49350436  1  0  -0.489438  0  2.090352  0  0  -0.44732  0  2.295899  0  0  -0.467664  0  2.286546  0  -1.142092  0  -0.339523  -0.432618  0  2.301402  0
O  O97  1  0.10912028  0.67753175  0.50649553  1  0  -0.489433  0  2.090429  0  0  -0.447304  0  2.295952  0  0  -0.46765  0  2.286596  0  -1.1421  0  -0.339519  -0.4326  0  2.30145  0
O  O98  1  0.23296407  0.05911489  0.13265281  1  0  -0.448105  0  1.811781  0  0  -0.434435  0  2.043492  0  0  -0.446108  0  2.037339  0  -0.550556  0  -0.233988  -0.426399  0  2.047899  0
O  O99  1  0.76703518  0.94088580  0.86734760  1  0  -0.448087  0  1.811796  0  0  -0.43447  0  2.043537  0  0  -0.446142  0  2.037381  0  -0.550532  0  -0.234007  -0.426434  0  2.047945  0
O  O100  1  0.31211196  0.00515823  0.00494954  1  0  -0.407921  0  1.757936  0  0  -0.387552  0  1.964148  0  0  -0.398546  0  1.959528  0  -0.520058  0  -0.181232  -0.380054  0  1.967375  0
O  O101  1  0.68788771  0.99484146  0.99505007  1  0  -0.407869  0  1.757962  0  0  -0.38753  0  1.964135  0  0  -0.398527  0  1.95952  0  -0.520475  0  -0.181219  -0.380031  0  1.967363  0
O  O102  1  0.60048422  0.66794213  0.92821472  1  0  -0.592417  0  2.076805  0  0  -0.527585  0  2.292548  0  0  -0.555953  0  2.289196  0  -1.177493  0  -0.31204  -0.508069  0  2.294259  0
O  O103  1  0.39951598  0.33205856  0.07178517  1  0  -0.592452  0  2.076785  0  0  -0.527596  0  2.29254  0  0  -0.555964  0  2.289187  0  -1.177484  0  -0.312045  -0.508081  0  2.294251  0
O  O104  1  0.24937128  0.25736255  0.39817473  1  0  -0.432765  0  1.793152  0  0  -0.411865  0  2.027354  0  0  -0.424879  0  2.023416  0  -0.520779  0  -0.20265  -0.402844  0  2.029628  0
O  O105  1  0.75062933  0.74263714  0.60182601  1  0  -0.432749  0  1.793175  0  0  -0.411845  0  2.027382  0  0  -0.424863  0  2.023446  0  -0.520783  0  -0.202638  -0.402814  0  2.029629  0
O  O106  1  0.06902028  0.25307072  0.43040696  1  0  -0.469221  0  1.806956  0  0  -0.443406  0  2.035738  0  0  -0.457567  0  2.029798  0  -0.568274  0  -0.184682  -0.434024  0  2.040035  0
O  O107  1  0.93097992  0.74692998  0.56959293  1  0  -0.469221  0  1.806988  0  0  -0.443423  0  2.035793  0  0  -0.457579  0  2.029846  0  -0.568314  0  -0.184698  -0.434043  0  2.040091  0
O  O108  1  0.52323915  0.27488529  0.95158025  1  0  -0.512498  0  2.151728  0  0  -0.45962  0  2.375482  0  0  -0.48268  0  2.366766  0  -1.186053  0  -0.332499  -0.443189  0  2.380566  0
O  O109  1  0.47676147  0.72511440  0.04841967  1  0  -0.512501  0  2.151732  0  0  -0.459609  0  2.375441  0  0  -0.482669  0  2.366726  0  -1.186051  0  -0.332497  -0.443178  0  2.380525  0
O  O110  1  0.09631976  0.95889746  0.39147492  1  0  -0.408966  0  1.761994  0  0  -0.402674  0  1.968429  0  0  -0.41471  0  1.963569  0  -0.509468  0  -0.175123  -0.394469  0  1.972058  0
O  O111  1  0.90367992  0.04110223  0.60852551  1  0  -0.41099  0  1.761997  0  0  -0.402683  0  1.96837  0  0  -0.414715  0  1.963509  0  -0.509501  0  -0.175133  -0.394478  0  1.971998  0
O  O112  1  0.29672302  0.96490101  0.40129086  1  0  -0.380309  0  1.78287  0  0  -0.359998  0  1.981514  0  0  -0.37276  0  1.978378  0  -0.501657  0  -0.134518  -0.351457  0  1.984161  0
O  O113  1  0.70327613  0.03509768  0.59870847  1  0  -0.382364  0  1.783067  0  0  -0.359949  0  1.981522  0  0  -0.372735  0  1.978416  0  -0.501641  0  -0.134513  -0.351408  0  1.98417  0
O  O114  1  0.87118546  0.77403028  0.01681810  1  0  -0.579536  0  2.14542  0  0  -0.535684  0  2.379673  0  0  -0.559032  0  2.3712  0  -1.183141  0  -0.390568  -0.518993  0  2.384692  0
O  O115  1  0.12881422  0.22596941  0.98318151  1  0  -0.579528  0  2.145489  0  0  -0.535665  0  2.379725  0  0  -0.559013  0  2.371254  0  -1.183147  0  -0.390564  -0.518974  0  2.384744  0
O  O116  1  0.97978108  0.31189447  0.16923685  1  0  -0.433693  0  1.809777  0  0  -0.426167  0  2.027604  0  0  -0.438589  0  2.022012  0  -0.520242  0  -0.220506  -0.417502  0  2.031476  0
O  O117  1  0.02022006  0.68810623  0.83076336  1  0  -0.433667  0  1.809751  0  0  -0.426147  0  2.027569  0  0  -0.438572  0  2.021978  0  -0.520265  0  -0.220509  -0.417484  0  2.031441  0
O  O118  1  0.18740320  0.48728447  0.30020331  1  0  -0.376492  0  1.768033  0  0  -0.36132  0  1.962318  0  0  -0.372391  0  1.958117  0  -0.499846  0  -0.137337  -0.354006  0  1.965383  0
O  O119  1  0.81259899  0.51271824  0.69979499  1  0  -0.376492  0  1.767999  0  0  -0.361329  0  1.962314  0  0  -0.372399  0  1.958114  0  -0.499828  0  -0.137336  -0.354  0  1.965362  0
