# generated using pymatgen
data_CdH18C18N4O5
_symmetry_space_group_name_H-M   'P 1'
_cell_length_a   8.40805786
_cell_length_b   10.36237080
_cell_length_c   10.77675207
_cell_angle_alpha   98.65720403
_cell_angle_beta   99.45398659
_cell_angle_gamma   94.92606771
_symmetry_Int_Tables_number   1
_chemical_formula_structural   CdH18C18N4O5
_chemical_formula_sum   'Cd2 H36 C36 N8 O10'
_cell_volume   909.73758482
_cell_formula_units_Z   2
loop_
 _symmetry_equiv_pos_site_id
 _symmetry_equiv_pos_as_xyz
  1  'x, y, z'
loop_
 _atom_site_type_symbol
 _atom_site_label
 _atom_site_symmetry_multiplicity
 _atom_site_fract_x
 _atom_site_fract_y
 _atom_site_fract_z
 _atom_site_occupancy
 _atom_site_hle17_bader_spin_density
 _atom_site_hle17_ddec_charge
 _atom_site_hle17_ddec_spin_density
 _atom_site_hle17_ddec_sum_bond_order
 _atom_site_hle17_magmom
 _atom_site_hse06_10hf_bader_spin_density
 _atom_site_hse06_10hf_ddec_charge
 _atom_site_hse06_10hf_ddec_spin_density
 _atom_site_hse06_10hf_ddec_sum_bond_order
 _atom_site_hse06_10hf_magmom
 _atom_site_hse06_bader_spin_density
 _atom_site_hse06_ddec_charge
 _atom_site_hse06_ddec_spin_density
 _atom_site_hse06_ddec_sum_bond_order
 _atom_site_hse06_magmom
 _atom_site_pbe_bader_spin_density
 _atom_site_pbe_cm5_charge
 _atom_site_pbe_ddec_charge
 _atom_site_pbe_ddec_spin_density
 _atom_site_pbe_ddec_sum_bond_order
 _atom_site_pbe_magmom
Cd  Cd0  1  0.51378039  0.32143802  0.38212221  1  0  1.136328  0  1.687756  0  0  0.946547  0  2.133079  0  0  1.004124  0  2.080749  0  0  0.781029  0.902186  0  2.171837  0
Cd  Cd1  1  0.48621872  0.67856031  0.61787586  1  0  1.136378  0  1.687679  0  0  0.946594  0  2.132999  0  0  1.004169  0  2.08067  0  0  0.781061  0.902236  0  2.171751  0
H  H2  1  0.63341023  0.75658544  0.94075148  1  0  0.10046  0  0.961101  0  0  0.107657  0  1.025742  0  0  0.110709  0  1.024614  0  0  0.10141  0.105328  0  1.027044  0
H  H3  1  0.36658792  0.24341485  0.05924861  1  0  0.10046  0  0.961083  0  0  0.107652  0  1.025721  0  0  0.110703  0  1.024596  0  0  0.101404  0.105323  0  1.027029  0
H  H4  1  0.61229904  0.98224949  0.05042146  1  0  0.092303  0  0.975361  0  0  0.100446  0  1.04279  0  0  0.103714  0  1.040288  0  0  0.100562  0.098055  0  1.044591  0
H  H5  1  0.38769804  0.01775179  0.94957955  1  0  0.092292  0  0.975403  0  0  0.100434  0  1.042837  0  0  0.103706  0  1.04033  0  0  0.100561  0.098044  0  1.044637  0
H  H6  1  0.54081607  0.83165458  0.38941706  1  0  0.111253  0  0.966825  0  0  0.117017  0  1.039447  0  0  0.120935  0  1.035815  0  0  0.105172  0.114207  0  1.042094  0
H  H7  1  0.45918556  0.16834473  0.61058428  1  0  0.111292  0  0.966776  0  0  0.117056  0  1.039397  0  0  0.120976  0  1.035762  0  0  0.105169  0.114243  0  1.042045  0
H  H8  1  0.70261595  0.10419638  0.54770750  1  0  0.113625  0  0.953707  0  0  0.119493  0  1.021961  0  0  0.12264  0  1.018217  0  0  0.135252  0.116966  0  1.024969  0
H  H9  1  0.29738597  0.89580490  0.45229230  1  0  0.11367  0  0.95376  0  0  0.119545  0  1.021981  0  0  0.12269  0  1.018243  0  0  0.135282  0.117017  0  1.024993  0
H  H10  1  0.86693761  0.50215235  0.55219586  1  0  0.108862  0  0.973909  0  0  0.115623  0  1.038626  0  0  0.117599  0  1.038858  0  0  0.115829  0.114332  0  1.038327  0
H  H11  1  0.13306767  0.49784696  0.44780133  1  0  0.108839  0  0.973916  0  0  0.115595  0  1.038655  0  0  0.117569  0  1.038889  0  0  0.115799  0.114305  0  1.038362  0
H  H12  1  0.10078456  0.39257224  0.70768541  1  0  0.115163  0  0.964147  0  0  0.125405  0  1.026309  0  0  0.127423  0  1.025782  0  0  0.121092  0.123802  0  1.02688  0
H  H13  1  0.89921816  0.60742609  0.29231408  1  0  0.115194  0  0.964144  0  0  0.125444  0  1.026287  0  0  0.127462  0  1.025758  0  0  0.121108  0.12384  0  1.026854  0
H  H14  1  0.12964071  0.16590538  0.75244265  1  0  0.08235  0  0.973499  0  0  0.095714  0  1.04126  0  0  0.094683  0  1.044822  0  0  0.11112  0.096279  0  1.038949  0
H  H15  1  0.87036215  0.83409393  0.24755607  1  0  0.082398  0  0.97352  0  0  0.095772  0  1.041231  0  0  0.094745  0  1.044798  0  0  0.111144  0.096337  0  1.038923  0
H  H16  1  0.99632799  0.03325514  0.65567499  1  0  0.077749  0  0.923657  0  0  0.09566  0  0.983464  0  0  0.095471  0  0.984122  0  0  0.112811  0.096021  0  0.982709  0
H  H17  1  0.00366987  0.96674318  0.34432663  1  0  0.077769  0  0.923674  0  0  0.095661  0  0.983473  0  0  0.095478  0  0.984132  0  0  0.112831  0.096025  0  0.982718  0
H  H18  1  0.78740136  0.07866802  0.79430399  1  0  0.057297  0  0.943131  0  0  0.069609  0  1.012249  0  0  0.069269  0  1.013441  0  0  0.101518  0.069669  0  1.011507  0
H  H19  1  0.21259803  0.92134111  0.20569659  1  0  0.057346  0  0.943051  0  0  0.069667  0  1.012193  0  0  0.069325  0  1.013381  0  0  0.101559  0.069726  0  1.011451  0
H  H20  1  0.96860965  0.02717717  0.87422775  1  0  0.052073  0  0.915855  0  0  0.066917  0  0.977427  0  0  0.067562  0  0.976984  0  0  0.097514  0.06628  0  0.978067  0
H  H21  1  0.03138797  0.97282803  0.12577482  1  0  0.052031  0  0.915883  0  0  0.066889  0  0.977483  0  0  0.067536  0  0.977038  0  0  0.097479  0.06625  0  0.978123  0
H  H22  1  0.78719280  0.15014560  0.02835646  1  0  0.052481  0  0.930183  0  0  0.066649  0  0.998088  0  0  0.067126  0  0.997042  0  0  0.099272  0.066192  0  0.998913  0
H  H23  1  0.21281235  0.84985273  0.97164149  1  0  0.052486  0  0.930204  0  0  0.066649  0  0.998092  0  0  0.067125  0  0.997047  0  0  0.09927  0.066174  0  0.998936  0
H  H24  1  0.70692076  0.26286974  0.93137104  1  0  0.052387  0  0.95581  0  0  0.066742  0  1.020264  0  0  0.065348  0  1.023437  0  0  0.096298  0.06755  0  1.018246  0
H  H25  1  0.29307726  0.73712956  0.06862889  1  0  0.052398  0  0.955805  0  0  0.066741  0  1.020257  0  0  0.065348  0  1.023427  0  0  0.096306  0.06755  0  1.018238  0
H  H26  1  0.61301691  0.56766250  0.05959335  1  0  0.096699  0  0.959707  0  0  0.105628  0  1.025949  0  0  0.10911  0  1.02325  0  0  0.101687  0.103075  0  1.027968  0
H  H27  1  0.38698500  0.43233878  0.94040738  1  0  0.096709  0  0.959702  0  0  0.105638  0  1.025946  0  0  0.109121  0  1.023247  0  0  0.101679  0.103087  0  1.027965  0
H  H28  1  0.85427191  0.20717249  0.29752988  1  0  0.127547  0  0.994449  0  0  0.131879  0  1.062415  0  0  0.1354  0  1.060526  0  0  0.11813  0.129232  0  1.063919  0
H  H29  1  0.14572370  0.79282682  0.70246972  1  0  0.127562  0  0.994508  0  0  0.131945  0  1.062399  0  0  0.135451  0  1.060531  0  0  0.11816  0.129295  0  1.063905  0
H  H30  1  0.91794391  0.44165621  0.06964452  1  0  0.077942  0  0.91496  0  0  0.093692  0  0.977602  0  0  0.094783  0  0.976483  0  0  0.112494  0.092701  0  0.978684  0
H  H31  1  0.08205436  0.55834507  0.93035851  1  0  0.077945  0  0.914946  0  0  0.093686  0  0.977594  0  0  0.094788  0  0.976464  0  0  0.112469  0.092692  0  0.978679  0
H  H32  1  0.76793938  0.37492102  0.14892431  1  0  0.109772  0  0.930494  0  0  0.124327  0  0.991031  0  0  0.125428  0  0.990692  0  0  0.120135  0.123342  0  0.991624  0
H  H33  1  0.23205729  0.62507731  0.85107623  1  0  0.109808  0  0.930487  0  0  0.124403  0  0.99097  0  0  0.125504  0  0.990632  0  0  0.120133  0.123414  0  0.991566  0
H  H34  1  0.21679308  0.41087410  0.14792251  1  0  0.099152  0  0.927231  0  0  0.111358  0  0.987174  0  0  0.113343  0  0.984801  0  0  0.138488  0.109812  0  0.988948  0
H  H35  1  0.78320453  0.58912226  0.85207694  1  0  0.09913  0  0.927188  0  0  0.111359  0  0.987102  0  0  0.113343  0  0.984729  0  0  0.138494  0.109812  0  0.988877  0
H  H36  1  0.16390231  0.18406918  0.43451226  1  0  0.105917  0  0.943791  0  0  0.117604  0  1.000898  0  0  0.119913  0  0.999732  0  0  0.117747  0.1158  0  1.001893  0
H  H37  1  0.83609182  0.81592817  0.56548687  1  0  0.105956  0  0.943735  0  0  0.117646  0  1.00084  0  0  0.119957  0  0.999672  0  0  0.117734  0.115842  0  1.001838  0
C  C38  1  0.61632400  0.77257778  0.03952651  1  0  -0.062998  0  3.751938  0  0  -0.075355  0  4.007614  0  0  -0.077546  0  4.025321  0  0  -0.089781  -0.073985  0  3.995599  0
C  C39  1  0.38367655  0.22742252  0.96047576  1  0  -0.062884  0  3.751762  0  0  -0.075216  0  4.007421  0  0  -0.077407  0  4.025127  0  0  -0.0897  -0.073848  0  3.995415  0
C  C40  1  0.60178644  0.89863880  0.09983058  1  0  -0.068325  0  3.724421  0  0  -0.094166  0  3.972834  0  0  -0.091902  0  3.989726  0  0  -0.082379  -0.095202  0  3.96117  0
C  C41  1  0.39821385  0.10135953  0.90016951  1  0  -0.068338  0  3.724448  0  0  -0.094185  0  3.972873  0  0  -0.091924  0  3.98976  0  0  -0.082382  -0.09522  0  3.96121  0
C  C42  1  0.56886684  0.91986471  0.22428071  1  0  -0.073528  0  3.776344  0  0  -0.04593  0  4.007854  0  0  -0.054044  0  4.02976  0  0  -0.022949  -0.040872  0  3.993323  0
C  C43  1  0.43113478  0.08013460  0.77572155  1  0  -0.07356  0  3.776419  0  0  -0.045975  0  4.007955  0  0  -0.05409  0  4.029866  0  0  -0.023008  -0.040912  0  3.993417  0
C  C44  1  0.56113447  0.81437447  0.29129936  1  0  -0.090318  0  3.706797  0  0  -0.126253  0  3.955496  0  0  -0.12347  0  3.972956  0  0  -0.084345  -0.127625  0  3.944188  0
C  C45  1  0.43886824  0.18562386  0.70870106  1  0  -0.090477  0  3.706775  0  0  -0.126423  0  3.955497  0  0  -0.12364  0  3.972956  0  0  -0.084408  -0.127786  0  3.944175  0
C  C46  1  0.53950022  0.05493530  0.28320927  1  0  0.613722  0  3.96809  0  0  0.567421  0  4.255705  0  0  0.600976  0  4.250451  0  0  0.185014  0.544763  0  4.257946  0
C  C47  1  0.46049901  0.94506401  0.71679081  1  0  0.613623  0  3.96814  0  0  0.567328  0  4.255757  0  0  0.60088  0  4.250503  0  0  0.184958  0.544657  0  4.258013  0
C  C48  1  0.77913838  0.19767934  0.56647840  1  0  0.149684  0  3.639382  0  0  0.091891  0  3.898048  0  0  0.104779  0  3.912401  0  0  0.138485  0.083068  0  3.88869  0
C  C49  1  0.22086490  0.80232292  0.43351987  1  0  0.14957  0  3.639476  0  0  0.091788  0  3.898135  0  0  0.104674  0  3.912486  0  0  0.138416  0.082972  0  3.888776  0
C  C50  1  0.86818826  0.40356267  0.57430571  1  0  -0.006918  0  3.76419  0  0  -0.04207  0  4.034575  0  0  -0.039806  0  4.055614  0  0  -0.009369  -0.043668  0  4.020049  0
C  C51  1  0.13181488  0.59643861  0.42569332  1  0  -0.006919  0  3.764252  0  0  -0.042083  0  4.034634  0  0  -0.039819  0  4.055676  0  0  -0.009373  -0.04369  0  4.020109  0
C  C52  1  0.98400017  0.35131813  0.65119253  1  0  -0.060841  0  3.667694  0  0  -0.104319  0  3.930839  0  0  -0.102492  0  3.949059  0  0  3.7e-05  -0.105208  0  3.918398  0
C  C53  1  0.01600523  0.64868217  0.34880667  1  0  -0.060939  0  3.667772  0  0  -0.104417  0  3.930944  0  0  -0.102591  0  3.949163  0  0  1e-06  -0.105296  0  3.918481  0
C  C54  1  0.00181435  0.12801355  0.71835955  1  0  -0.030603  0  3.648391  0  0  -0.098364  0  3.907426  0  0  -0.094436  0  3.918878  0  0  -0.054227  -0.101141  0  3.899552  0
C  C55  1  0.99818637  0.87198773  0.28163916  1  0  -0.030716  0  3.648488  0  0  -0.09837  0  3.907411  0  0  -0.094467  0  3.918894  0  0  -0.054244  -0.101155  0  3.899544  0
C  C56  1  0.91821550  0.10785379  0.82968360  1  0  0.07262  0  3.656077  0  0  0.016302  0  3.929739  0  0  0.022464  0  3.93597  0  0  -0.069579  0.012366  0  3.925329  0
C  C57  1  0.08178441  0.89215043  0.17031636  1  0  0.07259  0  3.656098  0  0  0.016171  0  3.929905  0  0  0.022345  0  3.936135  0  0  -0.069617  0.012239  0  3.925481  0
C  C58  1  0.81760138  0.24123481  0.99141583  1  0  0.071488  0  3.662353  0  0  0.013158  0  3.935513  0  0  0.019964  0  3.941829  0  0  -0.070421  0.008672  0  3.931163  0
C  C59  1  0.18239947  0.75876745  0.00858397  1  0  0.07148  0  3.662404  0  0  0.013234  0  3.935454  0  0  0.020038  0  3.941774  0  0  -0.070418  0.00875  0  3.931102  0
C  C60  1  0.58042341  0.68790964  0.23258957  1  0  -0.081614  0  3.78276  0  0  -0.054637  0  4.017459  0  0  -0.062956  0  4.038865  0  0  -0.025492  -0.049456  0  4.003434  0
C  C61  1  0.41957955  0.31209066  0.76741301  1  0  -0.081474  0  3.7826  0  0  -0.054477  0  4.017267  0  0  -0.062795  0  4.038673  0  0  -0.025438  -0.049296  0  4.003236  0
C  C62  1  0.57480472  0.57366906  0.30318696  1  0  0.634608  0  3.945832  0  0  0.584698  0  4.23556  0  0  0.619523  0  4.228796  0  0  0.191953  0.560998  0  4.238937  0
C  C63  1  0.42519692  0.42633025  0.69681345  1  0  0.634694  0  3.945736  0  0  0.584778  0  4.235461  0  0  0.619602  0  4.228696  0  0  0.19198  0.561078  0  4.238839  0
C  C64  1  0.60416043  0.66726990  0.10534978  1  0  -0.075675  0  3.731954  0  0  -0.104662  0  3.986615  0  0  -0.102011  0  4.002508  0  0  -0.085838  -0.106013  0  3.975764  0
C  C65  1  0.39584256  0.33273040  0.89465003  1  0  -0.075735  0  3.732012  0  0  -0.104732  0  3.986673  0  0  -0.102082  0  4.002567  0  0  -0.085831  -0.106087  0  3.975825  0
C  C66  1  0.97628498  0.24414470  0.28931730  1  0  -0.074941  0  3.659127  0  0  -0.112553  0  3.916279  0  0  -0.111518  0  3.934442  0  0  -0.002758  -0.113153  0  3.904165  0
C  C67  1  0.02370915  0.75585264  0.71068182  1  0  -0.07496  0  3.65913  0  0  -0.112633  0  3.916313  0  0  -0.111586  0  3.934482  0  0  -0.002824  -0.113235  0  3.904196  0
C  C68  1  0.87198742  0.35275240  0.10271075  1  0  -0.032376  0  3.633012  0  0  -0.096793  0  3.89139  0  0  -0.093242  0  3.901016  0  0  -0.049608  -0.099086  0  3.885052  0
C  C69  1  0.12801192  0.64724789  0.89729135  1  0  -0.032429  0  3.633112  0  0  -0.096888  0  3.891475  0  0  -0.093343  0  3.9011  0  0  -0.049603  -0.099174  0  3.885132  0
C  C70  1  0.16288792  0.35079928  0.20754416  1  0  0.16019  0  3.681646  0  0  0.095285  0  3.954612  0  0  0.109396  0  3.968156  0  0  0.143531  0.085929  0  3.945487  0
C  C71  1  0.83710848  0.64919708  0.79245513  1  0  0.160425  0  3.681419  0  0  0.095486  0  3.954376  0  0  0.109597  0  3.967923  0  0  0.143586  0.086128  0  3.945253  0
C  C72  1  0.12828268  0.23269528  0.35373322  1  0  -0.004148  0  3.771413  0  0  -0.038937  0  4.04245  0  0  -0.036601  0  4.062469  0  0  -0.008652  -0.040528  0  4.028783  0
C  C73  1  0.87171371  0.76730108  0.64626700  1  0  -0.004155  0  3.771335  0  0  -0.038949  0  4.042386  0  0  -0.036616  0  4.062406  0  0  -0.008635  -0.040537  0  4.028716  0
N  N74  1  0.92629851  0.22112364  0.64476767  1  0  -0.058335  0  3.57501  0  0  0.038285  0  3.790754  0  0  0.024199  0  3.816036  0  0  -0.243893  0.047598  0  3.773657  0
N  N75  1  0.07370342  0.77887764  0.35523121  1  0  -0.058201  0  3.574967  0  0  0.038365  0  3.79069  0  0  0.02429  0  3.815975  0  0  -0.243863  0.047676  0  3.7736  0
N  N76  1  0.74152934  0.30687857  0.52240674  1  0  -0.389907  0  3.28896  0  0  -0.307692  0  3.565357  0  0  -0.330605  0  3.584849  0  0  -0.361909  -0.292061  0  3.552159  0
N  N77  1  0.25847366  0.69312172  0.47759121  1  0  -0.389884  0  3.288846  0  0  -0.307656  0  3.565242  0  0  -0.330568  0  3.584733  0  0  -0.361885  -0.292026  0  3.552046  0
N  N78  1  0.00060927  0.31985707  0.19732749  1  0  -0.05977  0  3.579872  0  0  0.035493  0  3.796383  0  0  0.020853  0  3.823031  0  0  -0.245771  0.044962  0  3.778677  0
N  N79  1  0.99938740  0.68014126  0.80267212  1  0  -0.059941  0  3.579952  0  0  0.035339  0  3.796483  0  0  0.020698  0  3.82313  0  0  -0.245791  0.044812  0  3.778766  0
N  N80  1  0.24325996  0.29931487  0.30171316  1  0  -0.384272  0  3.280234  0  0  -0.306263  0  3.562329  0  0  -0.328355  0  3.58025  0  0  -0.360839  -0.29132  0  3.550261  0
N  N81  1  0.75673645  0.70068149  0.69828613  1  0  -0.384358  0  3.280131  0  0  -0.306333  0  3.562221  0  0  -0.328425  0  3.580146  0  0  -0.360832  -0.291395  0  3.550157  0
O  O82  1  0.59622483  0.15200383  0.23651501  1  0  -0.650357  0  1.976061  0  0  -0.588218  0  2.216857  0  0  -0.616248  0  2.208376  0  0  -0.337652  -0.567424  0  2.222826  0
O  O83  1  0.40377320  0.84799547  0.76348399  1  0  -0.650314  0  1.976131  0  0  -0.588179  0  2.216937  0  0  -0.616205  0  2.208455  0  0  -0.337639  -0.56738  0  2.222906  0
O  O84  1  0.46048940  0.06646802  0.37433245  1  0  -0.638106  0  1.922947  0  0  -0.585642  0  2.159403  0  0  -0.611378  0  2.150256  0  0  -0.333139  -0.566613  0  2.164406  0
O  O85  1  0.53950982  0.93353129  0.62566764  1  0  -0.63808  0  1.922963  0  0  -0.585618  0  2.1594  0  0  -0.611352  0  2.150252  0  0  -0.333126  -0.566584  0  2.164406  0
O  O86  1  0.94497703  0.22735708  0.91936322  1  0  -0.320468  0  2.231691  0  0  -0.258015  0  2.489422  0  0  -0.27266  0  2.490304  0  0  -0.242233  -0.247503  0  2.488276  0
O  O87  1  0.05502585  0.77265107  0.08063676  1  0  -0.320371  0  2.231656  0  0  -0.257959  0  2.489433  0  0  -0.272602  0  2.490314  0  0  -0.242204  -0.247427  0  2.488263  0
O  O88  1  0.55623717  0.45854645  0.23575578  1  0  -0.644193  0  1.978039  0  0  -0.579559  0  2.223426  0  0  -0.608154  0  2.21314  0  0  -0.333698  -0.558526  0  2.230877  0
O  O89  1  0.44376073  0.54145188  0.76424213  1  0  -0.644246  0  1.978029  0  0  -0.579616  0  2.223432  0  0  -0.608209  0  2.213145  0  0  -0.333712  -0.558589  0  2.230884  0
O  O90  1  0.59110229  0.59327969  0.42382184  1  0  -0.663988  0  2.026872  0  0  -0.601082  0  2.289044  0  0  -0.629319  0  2.277557  0  0  -0.332049  -0.579818  0  2.295349  0
O  O91  1  0.40889654  0.40671667  0.57617591  1  0  -0.664051  0  2.026882  0  0  -0.601146  0  2.289068  0  0  -0.629385  0  2.277582  0  0  -0.33205  -0.579867  0  2.295338  0
