# generated using pymatgen
data_HoH10C10N2O9
_symmetry_space_group_name_H-M   'P 1'
_cell_length_a   6.50402661
_cell_length_b   9.80429476
_cell_length_c   10.78186381
_cell_angle_alpha   100.20063602
_cell_angle_beta   102.92051389
_cell_angle_gamma   107.45558831
_symmetry_Int_Tables_number   1
_chemical_formula_structural   HoH10C10N2O9
_chemical_formula_sum   'Ho2 H20 C20 N4 O18'
_cell_volume   616.82878430
_cell_formula_units_Z   2
loop_
 _symmetry_equiv_pos_site_id
 _symmetry_equiv_pos_as_xyz
  1  'x, y, z'
loop_
 _atom_site_type_symbol
 _atom_site_label
 _atom_site_symmetry_multiplicity
 _atom_site_fract_x
 _atom_site_fract_y
 _atom_site_fract_z
 _atom_site_occupancy
 _atom_site_hle17_bader_spin_density
 _atom_site_hle17_ddec_charge
 _atom_site_hle17_ddec_spin_density
 _atom_site_hle17_ddec_sum_bond_order
 _atom_site_hle17_magmom
 _atom_site_hse06_10hf_bader_spin_density
 _atom_site_hse06_10hf_ddec_charge
 _atom_site_hse06_10hf_ddec_spin_density
 _atom_site_hse06_10hf_ddec_sum_bond_order
 _atom_site_hse06_10hf_magmom
 _atom_site_hse06_bader_spin_density
 _atom_site_hse06_ddec_charge
 _atom_site_hse06_ddec_spin_density
 _atom_site_hse06_ddec_sum_bond_order
 _atom_site_hse06_magmom
 _atom_site_pbe_bader_spin_density
 _atom_site_pbe_cm5_charge
 _atom_site_pbe_ddec_charge
 _atom_site_pbe_ddec_spin_density
 _atom_site_pbe_ddec_sum_bond_order
 _atom_site_pbe_magmom
Ho  Ho0  1  0.32810768  0.40875220  0.19986301  1  0  2.284176  0  1.608283  0  0  2.1558  0  2.050363  0  0  2.268302  0  1.887756  0  0  1.505946  2.107588  0  2.106531  0
Ho  Ho1  1  0.67188471  0.59125361  0.80013139  1  0  2.284146  0  1.608383  0  0  2.155788  0  2.050472  0  0  2.268285  0  1.88786  0  0  1.506049  2.107549  0  2.106639  0
H  H2  1  0.28926380  0.60314069  0.02560014  1  0  0.442363  0  0.829222  0  0  0.411233  0  0.905833  0  0  0.421903  0  0.890161  0  0  0.314001  0.403765  0  0.916899  0
H  H3  1  0.71073687  0.39685960  0.97439001  1  0  0.442319  0  0.829211  0  0  0.41119  0  0.905885  0  0  0.42186  0  0.890215  0  0  0.313923  0.403722  0  0.916904  0
H  H4  1  0.55502000  0.64066739  0.07851562  1  0  0.429312  0  0.870859  0  0  0.395399  0  0.940845  0  0  0.406039  0  0.925597  0  0  0.303606  0.387835  0  0.951897  0
H  H5  1  0.44498742  0.35933398  0.92147850  1  0  0.429396  0  0.870797  0  0  0.395478  0  0.940747  0  0  0.406123  0  0.925491  0  0  0.303605  0.387909  0  0.951808  0
H  H6  1  0.94708136  0.16343119  0.24911083  1  0  0.425024  0  0.87282  0  0  0.393022  0  0.937805  0  0  0.402827  0  0.923933  0  0  0.305467  0.38599  0  0.94788  0
H  H7  1  0.05292265  0.83657014  0.75088741  1  0  0.424967  0  0.872886  0  0  0.392974  0  0.937857  0  0  0.40278  0  0.923985  0  0  0.305472  0.38594  0  0.947932  0
H  H8  1  0.94844311  0.15390467  0.09484013  1  0  0.428216  0  0.88236  0  0  0.392705  0  0.952883  0  0  0.405245  0  0.934857  0  0  0.291115  0.383481  0  0.966344  0
H  H9  1  0.05155857  0.84609552  0.90516036  1  0  0.428248  0  0.882309  0  0  0.392778  0  0.952774  0  0  0.405316  0  0.934749  0  0  0.291157  0.383553  0  0.966234  0
H  H10  1  0.31820109  0.06676745  0.11034261  1  0  0.435208  0  0.863548  0  0  0.401573  0  0.931543  0  0  0.412713  0  0.915325  0  0  0.297121  0.393864  0  0.942811  0
H  H11  1  0.68180578  0.93322725  0.88965223  1  0  0.435258  0  0.863459  0  0  0.401649  0  0.931416  0  0  0.412789  0  0.915197  0  0  0.297174  0.393938  0  0.942683  0
H  H12  1  0.50592878  0.17530266  0.06548957  1  0  0.421776  0  0.825557  0  0  0.403755  0  0.882574  0  0  0.412702  0  0.872332  0  0  0.321574  0.397364  0  0.890369  0
H  H13  1  0.49407458  0.82469756  0.93450932  1  0  0.42178  0  0.825604  0  0  0.40376  0  0.882615  0  0  0.412708  0  0.87237  0  0  0.321576  0.397357  0  0.890422  0
H  H14  1  0.34699393  0.83893212  0.71045109  1  0  0.31619  0  0.90097  0  0  0.301349  0  0.956733  0  0  0.309966  0  0.949075  0  0  0.3137  0.295238  0  0.962089  0
H  H15  1  0.65301546  0.16107032  0.28954721  1  0  0.31616  0  0.901015  0  0  0.30131  0  0.956773  0  0  0.309928  0  0.949111  0  0  0.313695  0.2952  0  0.962151  0
H  H16  1  0.45845011  0.11883408  0.77985472  1  0  0.07931  0  0.951145  0  0  0.086799  0  1.01802  0  0  0.090035  0  1.013777  0  0  0.123658  0.084442  0  1.02114  0
H  H17  1  0.54155613  0.88116837  0.22014310  1  0  0.079242  0  0.951211  0  0  0.086763  0  1.018066  0  0  0.090004  0  1.013821  0  0  0.123656  0.084408  0  1.021192  0
H  H18  1  0.01549466  0.60500405  0.47257948  1  0  0.105885  0  0.941706  0  0  0.118363  0  0.998708  0  0  0.121342  0  0.996698  0  0  0.109707  0.116308  0  1.000012  0
H  H19  1  0.98450704  0.39499944  0.52742524  1  0  0.105885  0  0.941657  0  0  0.118356  0  0.998671  0  0  0.121337  0  0.99666  0  0  0.109685  0.116298  0  0.999976  0
H  H20  1  0.20382378  0.05637137  0.29940204  1  0  0.120618  0  0.968346  0  0  0.131232  0  1.029302  0  0  0.134842  0  1.02661  0  0  0.111599  0.128782  0  1.031051  0
H  H21  1  0.79617480  0.94362327  0.70059895  1  0  0.120689  0  0.968272  0  0  0.131263  0  1.029271  0  0  0.134878  0  1.026575  0  0  0.111596  0.128798  0  1.031036  0
C  C22  1  0.36433007  0.04929048  0.68074331  1  0  0.249426  0  3.673039  0  0  0.194586  0  3.963067  0  0  0.208505  0  3.973062  0  0  0.151585  0.185428  0  3.955751  0
C  C23  1  0.63567824  0.95071306  0.31925686  1  0  0.249491  0  3.67301  0  0  0.194606  0  3.963053  0  0  0.208519  0  3.973046  0  0  0.1516  0.185449  0  3.95575  0
C  C24  1  0.17243423  0.84396225  0.51888907  1  0  0.190062  0  3.743206  0  0  0.17922  0  3.990191  0  0  0.185879  0  4.008729  0  0  0.104735  0.174623  0  3.977515  0
C  C25  1  0.82756568  0.15603791  0.48111485  1  0  0.189923  0  3.74315  0  0  0.179082  0  3.990101  0  0  0.185732  0  4.008644  0  0  0.104646  0.174489  0  3.977436  0
C  C26  1  0.05370016  0.70296851  0.43517260  1  0  -0.12054  0  3.690547  0  0  -0.151894  0  3.951763  0  0  -0.152835  0  3.966109  0  0  -0.076954  -0.150941  0  3.941446  0
C  C27  1  0.94630154  0.29703498  0.56483212  1  0  -0.120448  0  3.690334  0  0  -0.151811  0  3.951541  0  0  -0.152751  0  3.965889  0  0  -0.07688  -0.150856  0  3.941224  0
C  C28  1  0.99732100  0.68954148  0.29969904  1  0  -0.046027  0  3.685742  0  0  -0.038488  0  3.927686  0  0  -0.040925  0  3.945647  0  0  -0.002274  -0.036631  0  3.914682  0
C  C29  1  0.00267798  0.31045980  0.70030399  1  0  -0.045884  0  3.685794  0  0  -0.038339  0  3.927667  0  0  -0.040775  0  3.945632  0  0  -0.00224  -0.036485  0  3.914658  0
C  C30  1  0.05530729  0.81643670  0.25030712  1  0  -0.106775  0  3.755185  0  0  -0.096443  0  4.003405  0  0  -0.10543  0  4.026513  0  0  -0.023255  -0.090109  0  3.987483  0
C  C31  1  0.94469285  0.18356022  0.74968797  1  0  -0.106977  0  3.755418  0  0  -0.096631  0  4.00365  0  0  -0.105618  0  4.026761  0  0  -0.023295  -0.090288  0  3.987702  0
C  C32  1  0.16190479  0.95863461  0.33647737  1  0  -0.123235  0  3.696643  0  0  -0.159414  0  3.953622  0  0  -0.158669  0  3.971382  0  0  -0.08294  -0.159848  0  3.941785  0
C  C33  1  0.83808499  0.04136116  0.66352153  1  0  -0.123282  0  3.696707  0  0  -0.159446  0  3.95368  0  0  -0.158705  0  3.971441  0  0  -0.082976  -0.159869  0  3.94181  0
C  C34  1  0.21685134  0.97231700  0.47137139  1  0  0.136424  0  3.818249  0  0  0.14255  0  4.06706  0  0  0.144133  0  4.088964  0  0  0.090774  0.141167  0  4.052686  0
C  C35  1  0.78314291  0.02768429  0.52863092  1  0  0.136469  0  3.818478  0  0  0.14263  0  4.067206  0  0  0.144217  0  4.089111  0  0  0.090847  0.141229  0  4.052843  0
C  C36  1  0.88983658  0.53588612  0.20853533  1  0  0.746937  0  3.826276  0  0  0.700833  0  4.114493  0  0  0.73828  0  4.10192  0  0  0.244006  0.676028  0  4.122632  0
C  C37  1  0.11016740  0.46411292  0.79146996  1  0  0.746773  0  3.826441  0  0  0.700726  0  4.114555  0  0  0.738166  0  4.101996  0  0  0.243943  0.675908  0  4.122689  0
C  C38  1  0.00098988  0.80055115  0.10597773  1  0  0.706882  0  3.816741  0  0  0.652989  0  4.113976  0  0  0.689064  0  4.1049  0  0  0.230114  0.628334  0  4.120796  0
C  C39  1  0.99899879  0.19943914  0.89401456  1  0  0.707149  0  3.816563  0  0  0.6532  0  4.113854  0  0  0.689272  0  4.104777  0  0  0.230178  0.628542  0  4.120674  0
C  C40  1  0.46712827  0.56903222  0.49897482  1  0  0.553421  0  3.962958  0  0  0.508922  0  4.267747  0  0  0.538885  0  4.264875  0  0  0.212133  0.488596  0  4.272757  0
C  C41  1  0.53287212  0.43097560  0.50104060  1  0  0.553869  0  3.963101  0  0  0.509446  0  4.267785  0  0  0.539414  0  4.264907  0  0  0.212439  0.489116  0  4.272805  0
N  N42  1  0.26812572  0.89495149  0.65521785  1  0  -0.416805  0  3.335704  0  0  -0.348107  0  3.562462  0  0  -0.366542  0  3.570776  0  0  -0.3999  -0.334814  0  3.555998  0
N  N43  1  0.73187614  0.10505203  0.34478412  1  0  -0.416746  0  3.335659  0  0  -0.348014  0  3.562404  0  0  -0.366438  0  3.570699  0  0  -0.399859  -0.33472  0  3.555962  0
N  N44  1  0.33118269  0.09889674  0.57599888  1  0  -0.348759  0  2.946412  0  0  -0.327796  0  3.225639  0  0  -0.339625  0  3.240812  0  0  -0.321985  -0.319118  0  3.214971  0
N  N45  1  0.66882020  0.90110567  0.42400214  1  0  -0.348797  0  2.946395  0  0  -0.32784  0  3.225617  0  0  -0.339669  0  3.240791  0  0  -0.322028  -0.319152  0  3.214958  0
O  O46  1  0.68423565  0.46535180  0.19713044  1  0  -0.77499  0  2.098674  0  0  -0.71969  0  2.364068  0  0  -0.757868  0  2.346775  0  0  -0.432185  -0.697816  0  2.372784  0
O  O47  1  0.31576691  0.53464727  0.80287186  1  0  -0.774943  0  2.098799  0  0  -0.719686  0  2.3642  0  0  -0.75786  0  2.346912  0  0  -0.432208  -0.697804  0  2.372902  0
O  O48  1  0.00210536  0.47861874  0.14741026  1  0  -0.71867  0  2.002061  0  0  -0.669479  0  2.252684  0  0  -0.703412  0  2.237572  0  0  -0.372982  -0.649643  0  2.261016  0
O  O49  1  0.99790025  0.52138030  0.85259435  1  0  -0.718625  0  2.002115  0  0  -0.669447  0  2.252698  0  0  -0.703378  0  2.237589  0  0  -0.372952  -0.649612  0  2.261029  0
O  O50  1  0.81770496  0.69713741  0.03033411  1  0  -0.774488  0  2.089677  0  0  -0.709439  0  2.338406  0  0  -0.744847  0  2.324066  0  0  -0.391003  -0.689277  0  2.347043  0
O  O51  1  0.18228615  0.30285174  0.96966023  1  0  -0.77468  0  2.089578  0  0  -0.709606  0  2.338321  0  0  -0.745024  0  2.323979  0  0  -0.391033  -0.689447  0  2.346967  0
O  O52  1  0.13593933  0.88820110  0.06064283  1  0  -0.640137  0  1.991483  0  0  -0.574457  0  2.20997  0  0  -0.59925  0  2.196301  0  0  -0.305403  -0.556635  0  2.219471  0
O  O53  1  0.86404069  0.11179034  0.93934462  1  0  -0.640163  0  1.991418  0  0  -0.574439  0  2.209924  0  0  -0.599231  0  2.196255  0  0  -0.305372  -0.556614  0  2.21942  0
O  O54  1  0.37214371  0.57786257  0.38613771  1  0  -0.685168  0  2.155344  0  0  -0.642532  0  2.417127  0  0  -0.677825  0  2.409748  0  0  -0.388994  -0.623234  0  2.421064  0
O  O55  1  0.62786314  0.42213971  0.61387781  1  0  -0.685332  0  2.155428  0  0  -0.642734  0  2.417202  0  0  -0.678033  0  2.409823  0  0  -0.389134  -0.623421  0  2.421129  0
O  O56  1  0.51099802  0.65839498  0.60962410  1  0  -0.637961  0  2.033942  0  0  -0.597173  0  2.284702  0  0  -0.62854  0  2.275265  0  0  -0.362577  -0.579404  0  2.289878  0
O  O57  1  0.48899342  0.34161395  0.39039199  1  0  -0.638212  0  2.034172  0  0  -0.59744  0  2.284896  0  0  -0.628808  0  2.275455  0  0  -0.362702  -0.579696  0  2.290115  0
O  O58  1  0.41312542  0.61675686  0.10348500  1  0  -0.878667  0  1.865119  0  0  -0.832733  0  2.069449  0  0  -0.85915  0  2.033091  0  0  -0.618117  -0.818322  0  2.09281  0
O  O59  1  0.58687405  0.38324123  0.89650460  1  0  -0.878658  0  1.865037  0  0  -0.832746  0  2.069423  0  0  -0.859136  0  2.033009  0  0  -0.618028  -0.818334  0  2.092745  0
O  O60  1  0.03661496  0.20053622  0.19183854  1  0  -0.947172  0  1.936744  0  0  -0.895528  0  2.143123  0  0  -0.925219  0  2.105317  0  0  -0.669776  -0.879237  0  2.167653  0
O  O61  1  0.96338102  0.79947067  0.80815936  1  0  -0.947172  0  1.936803  0  0  -0.895536  0  2.143092  0  0  -0.925237  0  2.105318  0  0  -0.669849  -0.879263  0  2.167647  0
O  O62  1  0.43562288  0.16815177  0.13597539  1  0  -0.85181  0  1.879849  0  0  -0.807168  0  2.068734  0  0  -0.83054  0  2.038307  0  0  -0.582551  -0.793771  0  2.08909  0
O  O63  1  0.56437611  0.83183737  0.86402015  1  0  -0.851873  0  1.879842  0  0  -0.807275  0  2.068767  0  0  -0.830651  0  2.038343  0  0  -0.582629  -0.793878  0  2.089129  0
