# generated using pymatgen
data_SrH4C4SO4
_symmetry_space_group_name_H-M   'P 1'
_cell_length_a   7.59305025
_cell_length_b   9.04952349
_cell_length_c   9.87656080
_cell_angle_alpha   99.94732485
_cell_angle_beta   90.00011603
_cell_angle_gamma   89.99985980
_symmetry_Int_Tables_number   1
_chemical_formula_structural   SrH4C4SO4
_chemical_formula_sum   'Sr4 H16 C16 S4 O16'
_cell_volume   668.45072558
_cell_formula_units_Z   4
loop_
 _symmetry_equiv_pos_site_id
 _symmetry_equiv_pos_as_xyz
  1  'x, y, z'
loop_
 _atom_site_type_symbol
 _atom_site_label
 _atom_site_symmetry_multiplicity
 _atom_site_fract_x
 _atom_site_fract_y
 _atom_site_fract_z
 _atom_site_occupancy
 _atom_site_hle17_bader_spin_density
 _atom_site_hle17_ddec_charge
 _atom_site_hle17_ddec_spin_density
 _atom_site_hle17_ddec_sum_bond_order
 _atom_site_hle17_magmom
 _atom_site_hse06_10hf_bader_spin_density
 _atom_site_hse06_10hf_ddec_charge
 _atom_site_hse06_10hf_ddec_spin_density
 _atom_site_hse06_10hf_ddec_sum_bond_order
 _atom_site_hse06_10hf_magmom
 _atom_site_hse06_bader_spin_density
 _atom_site_hse06_ddec_charge
 _atom_site_hse06_ddec_spin_density
 _atom_site_hse06_ddec_sum_bond_order
 _atom_site_hse06_magmom
 _atom_site_pbe_bader_spin_density
 _atom_site_pbe_cm5_charge
 _atom_site_pbe_ddec_charge
 _atom_site_pbe_ddec_spin_density
 _atom_site_pbe_ddec_sum_bond_order
 _atom_site_pbe_magmom
Sr  Sr0  1  0.96029418  0.45489570  0.69579307  1  0  1.577694  0  1.188713  0  0  1.431336  0  1.562338  0  0  1.469073  0  1.520901  0  0  0.949773  1.403436  0  1.591677  0
Sr  Sr1  1  0.46029487  0.54510362  0.80420762  1  0  1.577701  0  1.188689  0  0  1.431334  0  1.562328  0  0  1.469071  0  1.520893  0  0  0.949793  1.403433  0  1.591671  0
Sr  Sr2  1  0.03970961  0.54510246  0.30421042  1  0  1.577647  0  1.188888  0  0  1.431372  0  1.562427  0  0  1.469113  0  1.520997  0  0  0.949743  1.403505  0  1.591724  0
Sr  Sr3  1  0.53971024  0.45489789  0.19579133  1  0  1.577643  0  1.188892  0  0  1.431365  0  1.562436  0  0  1.469103  0  1.521013  0  0  0.949749  1.403498  0  1.591735  0
H  H4  1  0.11195355  0.12576639  0.03137452  1  0  0.120029  0  0.955267  0  0  0.13016  0  1.022195  0  0  0.132501  0  1.021023  0  0  0.104304  0.128408  0  1.023226  0
H  H5  1  0.61194973  0.87423608  0.46862666  1  0  0.120057  0  0.955259  0  0  0.130187  0  1.022172  0  0  0.132525  0  1.021001  0  0  0.104325  0.128435  0  1.023204  0
H  H6  1  0.88804628  0.87423065  0.96862778  1  0  0.120053  0  0.955134  0  0  0.130136  0  1.022062  0  0  0.132473  0  1.020894  0  0  0.104302  0.128385  0  1.023093  0
H  H7  1  0.38805274  0.12576767  0.53137162  1  0  0.120043  0  0.955202  0  0  0.130122  0  1.022138  0  0  0.132463  0  1.02097  0  0  0.104294  0.12837  0  1.023168  0
H  H8  1  0.27279782  0.13174464  0.90151595  1  0  0.137124  0  0.915968  0  0  0.152168  0  0.972441  0  0  0.154517  0  0.97133  0  0  0.115194  0.150485  0  0.973355  0
H  H9  1  0.77279304  0.86825615  0.59848771  1  0  0.137083  0  0.915942  0  0  0.152128  0  0.972424  0  0  0.154475  0  0.971315  0  0  0.115179  0.150445  0  0.973338  0
H  H10  1  0.72720465  0.86825465  0.09848974  1  0  0.13713  0  0.915948  0  0  0.152148  0  0.972407  0  0  0.154496  0  0.971295  0  0  0.115197  0.150465  0  0.973321  0
H  H11  1  0.22720679  0.13174536  0.40151124  1  0  0.137122  0  0.915922  0  0  0.152139  0  0.972381  0  0  0.154492  0  0.971267  0  0  0.115191  0.150455  0  0.973295  0
H  H12  1  0.70727155  0.04597960  0.88874219  1  0  0.117721  0  0.954529  0  0  0.128195  0  1.022981  0  0  0.130523  0  1.02185  0  0  0.10166  0.126632  0  1.023718  0
H  H13  1  0.20726922  0.95402017  0.61125716  1  0  0.117746  0  0.954527  0  0  0.128245  0  1.022929  0  0  0.130573  0  1.0218  0  0  0.10168  0.126681  0  1.023667  0
H  H14  1  0.29273092  0.95402414  0.11125306  1  0  0.117743  0  0.954557  0  0  0.128232  0  1.022979  0  0  0.130561  0  1.021848  0  0  0.101677  0.126668  0  1.023719  0
H  H15  1  0.79273193  0.04597574  0.38874598  1  0  0.117734  0  0.954581  0  0  0.128212  0  1.023017  0  0  0.130541  0  1.021886  0  0  0.101652  0.126646  0  1.023755  0
H  H16  1  0.81344755  0.18090674  0.01350148  1  0  0.148854  0  0.935964  0  0  0.16238  0  0.99448  0  0  0.165536  0  0.992918  0  0  0.120867  0.16031  0  0.995406  0
H  H17  1  0.31344397  0.81909199  0.48649943  1  0  0.148872  0  0.935937  0  0  0.162384  0  0.994465  0  0  0.165539  0  0.992903  0  0  0.12088  0.160312  0  0.995388  0
H  H18  1  0.18655097  0.81909142  0.98650302  1  0  0.148871  0  0.935906  0  0  0.162379  0  0.994437  0  0  0.16553  0  0.992885  0  0  0.120894  0.16031  0  0.995359  0
H  H19  1  0.68655323  0.18091175  0.51349582  1  0  0.148864  0  0.935933  0  0  0.162346  0  0.99449  0  0  0.165495  0  0.992942  0  0  0.120881  0.160274  0  0.995413  0
C  C20  1  0.17270346  0.34573539  0.98737602  1  0  0.76814  0  3.834078  0  0  0.718891  0  4.132559  0  0  0.753426  0  4.122092  0  0  0.239722  0.695388  0  4.138911  0
C  C21  1  0.67270435  0.65426557  0.51262347  1  0  0.768035  0  3.834187  0  0  0.718782  0  4.132687  0  0  0.753315  0  4.12222  0  0  0.239682  0.695279  0  4.139039  0
C  C22  1  0.82728452  0.65426945  0.01261130  1  0  0.768012  0  3.834365  0  0  0.718659  0  4.132951  0  0  0.75319  0  4.122488  0  0  0.239571  0.695154  0  4.139304  0
C  C23  1  0.32728627  0.34572925  0.48738963  1  0  0.767947  0  3.834549  0  0  0.718643  0  4.133077  0  0  0.753175  0  4.122612  0  0  0.239577  0.695137  0  4.139426  0
C  C24  1  0.14484791  0.17714213  0.94187147  1  0  -0.316363  0  3.63927  0  0  -0.350011  0  3.897883  0  0  -0.354208  0  3.901856  0  0  -0.14336  -0.347322  0  3.895424  0
C  C25  1  0.64484448  0.82285888  0.55813000  1  0  -0.31637  0  3.639285  0  0  -0.350015  0  3.897913  0  0  -0.354202  0  3.901874  0  0  -0.143388  -0.347327  0  3.895457  0
C  C26  1  0.85515324  0.82285491  0.05813285  1  0  -0.316573  0  3.63951  0  0  -0.350026  0  3.897971  0  0  -0.354215  0  3.901938  0  0  -0.143405  -0.347334  0  3.895512  0
C  C27  1  0.35515667  0.17714487  0.44186727  1  0  -0.316515  0  3.639474  0  0  -0.349987  0  3.897938  0  0  -0.354189  0  3.901913  0  0  -0.143368  -0.347291  0  3.895471  0
C  C28  1  0.66324145  0.26963813  0.86057356  1  0  0.730266  0  3.885955  0  0  0.681039  0  4.188365  0  0  0.715264  0  4.178574  0  0  0.218094  0.657906  0  4.194299  0
C  C29  1  0.16324116  0.73036061  0.63942759  1  0  0.730471  0  3.88569  0  0  0.681092  0  4.188323  0  0  0.715318  0  4.178529  0  0  0.218106  0.657959  0  4.194256  0
C  C30  1  0.33676234  0.73036113  0.13942302  1  0  0.730323  0  3.885726  0  0  0.681076  0  4.188173  0  0  0.715301  0  4.178381  0  0  0.218067  0.657942  0  4.194117  0
C  C31  1  0.83676526  0.26963755  0.36057489  1  0  0.730281  0  3.885772  0  0  0.68099  0  4.1883  0  0  0.715217  0  4.178507  0  0  0.218034  0.657854  0  4.194242  0
C  C32  1  0.78274569  0.15133159  0.90353745  1  0  -0.320914  0  3.629836  0  0  -0.354832  0  3.884956  0  0  -0.360094  0  3.889736  0  0  -0.146897  -0.351501  0  3.881753  0
C  C33  1  0.28274363  0.84866805  0.59646200  1  0  -0.321028  0  3.629784  0  0  -0.354904  0  3.884935  0  0  -0.360164  0  3.889715  0  0  -0.146936  -0.351564  0  3.881721  0
C  C34  1  0.21726073  0.84867443  0.09646828  1  0  -0.320961  0  3.629833  0  0  -0.354857  0  3.884959  0  0  -0.360115  0  3.889735  0  0  -0.146949  -0.351524  0  3.881758  0
C  C35  1  0.71725883  0.15132784  0.40353101  1  0  -0.320994  0  3.629962  0  0  -0.354834  0  3.885079  0  0  -0.360092  0  3.889854  0  0  -0.146905  -0.351488  0  3.881855  0
S  S36  1  0.98660966  0.12003278  0.80637588  1  0  -0.002888  0  2.352749  0  0  0.006543  0  2.693876  0  0  0.005682  0  2.689212  0  0  0.00282  0.007359  0  2.696984  0
S  S37  1  0.48660514  0.87996536  0.69362365  1  0  -0.002841  0  2.352785  0  0  0.006598  0  2.693897  0  0  0.005734  0  2.689228  0  0  0.002837  0.007413  0  2.697001  0
S  S38  1  0.01339017  0.87996873  0.19362510  1  0  -0.00275  0  2.352776  0  0  0.006641  0  2.693812  0  0  0.00578  0  2.689145  0  0  0.002874  0.007454  0  2.696922  0
S  S39  1  0.51339470  0.12003166  0.30637156  1  0  -0.002704  0  2.352799  0  0  0.006681  0  2.693838  0  0  0.00583  0  2.689173  0  0  0.002873  0.007486  0  2.696941  0
O  O40  1  0.15813595  0.43319205  0.90103772  1  0  -0.734422  0  2.006692  0  0  -0.672005  0  2.257699  0  0  -0.698229  0  2.247535  0  0  -0.376402  -0.653588  0  2.264568  0
O  O41  1  0.65813732  0.56680894  0.59896377  1  0  -0.734393  0  2.006705  0  0  -0.671976  0  2.257704  0  0  -0.698188  0  2.247516  0  0  -0.376401  -0.653558  0  2.264573  0
O  O42  1  0.84186520  0.56679940  0.09897283  1  0  -0.734449  0  2.005941  0  0  -0.672053  0  2.257008  0  0  -0.698294  0  2.246878  0  0  -0.376457  -0.653639  0  2.263874  0
O  O43  1  0.34186778  0.43320152  0.40102949  1  0  -0.734428  0  2.005985  0  0  -0.672027  0  2.256974  0  0  -0.698296  0  2.246915  0  0  -0.376489  -0.653613  0  2.26384  0
O  O44  1  0.21825838  0.38545898  0.11247212  1  0  -0.756229  0  1.99916  0  0  -0.691448  0  2.254921  0  0  -0.71848  0  2.243744  0  0  -0.405037  -0.672393  0  2.262208  0
O  O45  1  0.71825511  0.61454217  0.38752801  1  0  -0.756147  0  1.99923  0  0  -0.691376  0  2.255002  0  0  -0.718409  0  2.243827  0  0  -0.404992  -0.672323  0  2.262297  0
O  O46  1  0.78174277  0.61453697  0.88754014  1  0  -0.755963  0  1.999931  0  0  -0.691124  0  2.25572  0  0  -0.718154  0  2.244547  0  0  -0.404814  -0.672063  0  2.263012  0
O  O47  1  0.28174341  0.38546043  0.61245997  1  0  -0.755963  0  2.000011  0  0  -0.691141  0  2.255773  0  0  -0.718168  0  2.244601  0  0  -0.404801  -0.672082  0  2.263067  0
O  O48  1  0.68142102  0.30749252  0.74342931  1  0  -0.733333  0  2.015009  0  0  -0.67188  0  2.260901  0  0  -0.697627  0  2.25052  0  0  -0.386482  -0.653831  0  2.267087  0
O  O49  1  0.18141984  0.69250394  0.75657050  1  0  -0.733405  0  2.01493  0  0  -0.671899  0  2.26091  0  0  -0.697645  0  2.250528  0  0  -0.38652  -0.653851  0  2.267096  0
O  O50  1  0.31857486  0.69249891  0.25657414  1  0  -0.733378  0  2.014736  0  0  -0.671925  0  2.260649  0  0  -0.697673  0  2.25027  0  0  -0.386486  -0.65388  0  2.266833  0
O  O51  1  0.81857736  0.30749756  0.24342237  1  0  -0.73334  0  2.014704  0  0  -0.671874  0  2.26065  0  0  -0.697622  0  2.250267  0  0  -0.386468  -0.653831  0  2.266835  0
O  O52  1  0.54514401  0.32529667  0.94608824  1  0  -0.735706  0  1.994376  0  0  -0.670608  0  2.243092  0  0  -0.697949  0  2.233339  0  0  -0.394268  -0.651377  0  2.248732  0
O  O53  1  0.04514498  0.67470564  0.55391025  1  0  -0.735787  0  1.99432  0  0  -0.670631  0  2.243073  0  0  -0.697971  0  2.233317  0  0  -0.394239  -0.6514  0  2.248714  0
O  O54  1  0.45485187  0.67470821  0.05391428  1  0  -0.735684  0  1.994451  0  0  -0.670592  0  2.243205  0  0  -0.697932  0  2.233454  0  0  -0.394222  -0.65136  0  2.248849  0
O  O55  1  0.95485485  0.32529249  0.44608311  1  0  -0.735677  0  1.994489  0  0  -0.670578  0  2.243269  0  0  -0.697917  0  2.233517  0  0  -0.394207  -0.651346  0  2.248912  0
