# generated using pymatgen
data_Zn4H12C54N12O37
_symmetry_space_group_name_H-M   'P 1'
_cell_length_a   24.41780956
_cell_length_b   24.41778254
_cell_length_c   24.41784595
_cell_angle_alpha   60.00017187
_cell_angle_beta   59.99993361
_cell_angle_gamma   60.00019792
_symmetry_Int_Tables_number   1
_chemical_formula_structural   Zn4H12C54N12O37
_chemical_formula_sum   'Zn8 H24 C108 N24 O74'
_cell_volume   10294.52401968
_cell_formula_units_Z   2
loop_
 _symmetry_equiv_pos_site_id
 _symmetry_equiv_pos_as_xyz
  1  'x, y, z'
loop_
 _atom_site_type_symbol
 _atom_site_label
 _atom_site_symmetry_multiplicity
 _atom_site_fract_x
 _atom_site_fract_y
 _atom_site_fract_z
 _atom_site_occupancy
 _atom_site_pbe_bader_charge
 _atom_site_pbe_bader_spin_density
 _atom_site_pbe_cm5_charge
 _atom_site_pbe_ddec_charge
 _atom_site_pbe_ddec_spin_density
 _atom_site_pbe_ddec_sum_bond_order
 _atom_site_pbe_magmom
Zn  Zn0  1  0.96716829  0.09849610  0.46716894  1  1.309254  0  0.680135  0.964329  0  2.380418  0
Zn  Zn1  1  0.96716900  0.96716789  0.59849569  1  1.30927  0  0.680123  0.964306  0  2.380447  0
Zn  Zn2  1  0.09849660  0.96716684  0.46716827  1  1.309353  0  0.680111  0.964241  0  2.380395  0
Zn  Zn3  1  0.96716405  0.96716485  0.46716440  1  1.315493  0  0.680259  0.964238  0  2.380643  0
Zn  Zn4  1  0.53283350  0.40150298  0.03283178  1  1.309296  0  0.680146  0.964301  0  2.380345  0
Zn  Zn5  1  0.40150275  0.53283070  0.03283350  1  1.309315  0  0.680198  0.964393  0  2.380281  0
Zn  Zn6  1  0.53283297  0.53283134  0.90150341  1  1.309331  0  0.680153  0.964318  0  2.38033  0
Zn  Zn7  1  0.53283595  0.53283399  0.03283489  1  1.315404  0  0.680181  0.964231  0  2.380813  0
H  H8  1  0.84971785  0.23869749  0.34804097  1  0.137484  0  0.119823  0.133086  0  1.000696  0
H  H9  1  0.84804179  0.06354582  0.34971614  1  0.1272  0  0.119781  0.133024  0  1.000822  0
H  H10  1  0.65196101  0.26130120  0.15028207  1  0.137554  0  0.119795  0.133039  0  1.000739  0
H  H11  1  0.65028352  0.43645342  0.15195890  1  0.127098  0  0.119764  0.132987  0  1.000863  0
H  H12  1  0.06354684  0.84803952  0.73869611  1  0.138329  0  0.119787  0.133338  0  1.000959  0
H  H13  1  0.23869812  0.84971567  0.56354561  1  0.164517  0  0.119821  0.133395  0  1.000878  0
H  H14  1  0.43645616  0.65028099  0.76130392  1  0.164321  0  0.119795  0.13337  0  1.00087  0
H  H15  1  0.26130376  0.65195946  0.93645500  1  0.138286  0  0.119797  0.13336  0  1.000866  0
H  H16  1  0.06354502  0.23869641  0.34971769  1  0.164391  0  0.119801  0.133367  0  1.000885  0
H  H17  1  0.23869683  0.06354327  0.34804246  1  0.138278  0  0.119805  0.1334  0  1.000798  0
H  H18  1  0.43645674  0.26130036  0.15195865  1  0.138378  0  0.119817  0.133404  0  1.00081  0
H  H19  1  0.26130579  0.43645187  0.15028260  1  0.16423  0  0.119773  0.133338  0  1.000994  0
H  H20  1  0.84804317  0.84971575  0.73869701  1  0.137464  0  0.119782  0.133045  0  1.000698  0
H  H21  1  0.84971776  0.84803961  0.56354542  1  0.127061  0  0.119816  0.133066  0  1.000768  0
H  H22  1  0.65028365  0.65195835  0.76130337  1  0.137454  0  0.119817  0.133086  0  1.000729  0
H  H23  1  0.65196201  0.65028088  0.93645462  1  0.127072  0  0.119799  0.133034  0  1.00078  0
H  H24  1  0.84971910  0.06354319  0.73869821  1  0.164345  0  0.119822  0.133402  0  1.000803  0
H  H25  1  0.84804017  0.23869489  0.56354708  1  0.138218  0  0.119769  0.133298  0  1.001002  0
H  H26  1  0.65196001  0.43645417  0.76130334  1  0.138278  0  0.119783  0.133331  0  1.000864  0
H  H27  1  0.65028459  0.26130305  0.93645518  1  0.164459  0  0.119793  0.133362  0  1.000898  0
H  H28  1  0.06354618  0.84971634  0.34803997  1  0.127086  0  0.119822  0.133059  0  1.000756  0
H  H29  1  0.23869696  0.84803862  0.34971969  1  0.137554  0  0.119811  0.133051  0  1.000723  0
H  H30  1  0.43645533  0.65195753  0.15028433  1  0.127203  0  0.11981  0.133055  0  1.00076  0
H  H31  1  0.26130277  0.65028185  0.15195977  1  0.137476  0  0.11978  0.13301  0  1.000769  0
C  C32  1  0.89551039  0.10448921  0.60449118  1  1.573174  0  0.234861  0.610125  0  4.156606  0
C  C33  1  0.10449130  0.89550989  0.60449084  1  1.573569  0  0.234892  0.610258  0  4.156605  0
C  C34  1  0.10449027  0.10448969  0.39551150  1  1.573582  0  0.234851  0.610134  0  4.156788  0
C  C35  1  0.10448769  0.89550787  0.39551036  1  1.54017  0  0.234916  0.610205  0  4.15668  0
C  C36  1  0.89550996  0.10448709  0.39551012  1  1.540218  0  0.234919  0.610167  0  4.156751  0
C  C37  1  0.89551031  0.89550825  0.60448817  1  1.540152  0  0.234996  0.61032  0  4.156554  0
C  C38  1  0.39551047  0.39550769  0.10448847  1  1.567189  0  0.234856  0.610042  0  4.156869  0
C  C39  1  0.39551211  0.60448849  0.89550919  1  1.573589  0  0.234918  0.610274  0  4.156625  0
C  C40  1  0.60448980  0.39550751  0.89551116  1  1.573552  0  0.23492  0.61029  0  4.156545  0
C  C41  1  0.60449195  0.60448964  0.89550898  1  1.539974  0  0.234839  0.610091  0  4.156948  0
C  C42  1  0.60449224  0.39550748  0.10449068  1  1.54006  0  0.23497  0.610352  0  4.156532  0
C  C43  1  0.39550987  0.60448870  0.10449216  1  1.54021  0  0.234846  0.610035  0  4.156851  0
C  C44  1  0.83289328  0.21747357  0.33165561  1  0.084898  0  -0.064135  -0.110847  0  3.883589  0
C  C45  1  0.79154918  0.25884414  0.29184752  1  -0.01335  0  0.007248  0.044128  0  4.001137  0
C  C46  1  0.76949058  0.33067412  0.27003327  1  0.116974  0  0.094904  -0.005739  0  3.905255  0
C  C47  1  0.83165898  0.11797670  0.33289097  1  0.074024  0  -0.064099  -0.110798  0  3.883401  0
C  C48  1  0.79185010  0.15776017  0.29154676  1  -0.046087  0  0.007194  0.044019  0  4.001091  0
C  C49  1  0.77003725  0.12980168  0.26948799  1  0.385199  0  0.094986  -0.005529  0  3.905152  0
C  C50  1  0.66834468  0.28252488  0.16710655  1  0.084592  0  -0.064135  -0.11085  0  3.883571  0
C  C51  1  0.70815301  0.24115513  0.20845109  1  -0.013538  0  0.007267  0.044236  0  4.001232  0
C  C52  1  0.72996651  0.16932577  0.23050983  1  0.117133  0  0.094915  -0.005716  0  3.90532  0
C  C53  1  0.66710913  0.38202142  0.16834239  1  0.074073  0  -0.064077  -0.110746  0  3.883513  0
C  C54  1  0.70845323  0.34223902  0.20815081  1  -0.046224  0  0.007199  0.044077  0  4.001107  0
C  C55  1  0.73051165  0.37019737  0.22996415  1  0.385461  0  0.094964  -0.005568  0  3.905106  0
C  C56  1  0.85215190  0.14785141  0.35214951  1  -0.023415  0  -0.007863  -0.019438  0  3.977262  0
C  C57  1  0.77061854  0.22938189  0.27061645  1  0.1192  0  0.016598  0.021785  0  3.895429  0
C  C58  1  0.64785130  0.35214909  0.14784838  1  -0.023251  0  -0.007876  -0.019511  0  3.977355  0
C  C59  1  0.72938476  0.27061624  0.22938171  1  0.011461  0  0.01663  0.021626  0  3.89551  0
C  C60  1  0.11797814  0.83165624  0.71747353  1  0.032917  0  -0.064082  -0.111704  0  3.883585  0
C  C61  1  0.15776213  0.79184623  0.75884309  1  -0.044004  0  0.007265  0.045672  0  3.99922  0
C  C62  1  0.12980356  0.77003341  0.83067281  1  0.228612  0  0.09493  -0.006079  0  3.904915  0
C  C63  1  0.21747440  0.83289137  0.61797712  1  0.015623  0  -0.064148  -0.111777  0  3.883498  0
C  C64  1  0.25884472  0.79154702  0.65776035  1  0.004104  0  0.007253  0.045551  0  3.999206  0
C  C65  1  0.33067447  0.76948809  0.62980267  1  0.176898  0  0.094974  -0.005967  0  3.904823  0
C  C66  1  0.38202471  0.66710560  0.78252721  1  0.015801  0  -0.064036  -0.111643  0  3.883407  0
C  C67  1  0.34224200  0.70844937  0.74115695  1  0.004057  0  0.007258  0.045557  0  3.999193  0
C  C68  1  0.37019946  0.73050763  0.66932667  1  0.34095  0  0.094921  -0.006093  0  3.904945  0
C  C69  1  0.28252803  0.66834201  0.88202279  1  0.032812  0  -0.064065  -0.111652  0  3.883486  0
C  C70  1  0.24115791  0.70815079  0.84224009  1  -0.04374  0  0.007181  0.045467  0  3.999121  0
C  C71  1  0.16932802  0.72996386  0.87019748  1  0.30464  0  0.09494  -0.006076  0  3.904909  0
C  C72  1  0.14785014  0.85215044  0.64784931  1  0.03364  0  -0.007885  -0.019504  0  3.977578  0
C  C73  1  0.22938449  0.77061522  0.72938261  1  -0.026174  0  0.016614  0.020729  0  3.895183  0
C  C74  1  0.35215142  0.64784771  0.85215180  1  0.033703  0  -0.007938  -0.019615  0  3.977622  0
C  C75  1  0.27061908  0.72938087  0.77061705  1  0.079711  0  0.016606  0.020966  0  3.894949  0
C  C76  1  0.11797747  0.21747276  0.33289294  1  0.015824  0  -0.064087  -0.111689  0  3.883533  0
C  C77  1  0.15776060  0.25884235  0.29154911  1  0.003845  0  0.007201  0.045498  0  3.999102  0
C  C78  1  0.12980375  0.33067221  0.26949040  1  0.177113  0  0.094912  -0.006122  0  3.904909  0
C  C79  1  0.21747348  0.11797514  0.33165900  1  0.03278  0  -0.064079  -0.111733  0  3.883395  0
C  C80  1  0.25884357  0.15775780  0.29184948  1  -0.043716  0  0.007224  0.045515  0  3.99914  0
C  C81  1  0.33067435  0.12980096  0.27003494  1  0.305093  0  0.094938  -0.006101  0  3.904885  0
C  C82  1  0.38202399  0.28252452  0.16834231  1  0.03266  0  -0.064209  -0.111846  0  3.883675  0
C  C83  1  0.34224183  0.24115426  0.20815200  1  -0.043733  0  0.007269  0.045499  0  3.999202  0
C  C84  1  0.37019817  0.16932389  0.22996547  1  0.228179  0  0.094951  -0.005938  0  3.904851  0
C  C85  1  0.28252838  0.38202089  0.16710732  1  0.016058  0  -0.064055  -0.111801  0  3.883549  0
C  C86  1  0.24115905  0.34223736  0.20845180  1  0.003795  0  0.007234  0.045674  0  3.999233  0
C  C87  1  0.16932854  0.37019610  0.23051143  1  0.341327  0  0.094915  -0.006055  0  3.904845  0
C  C88  1  0.14784858  0.14784874  0.35215272  1  0.033692  0  -0.007885  -0.019531  0  3.977643  0
C  C89  1  0.22938395  0.22938067  0.27061774  1  0.079432  0  0.016634  0.021011  0  3.89488  0
C  C90  1  0.35215447  0.35214686  0.14784823  1  0.040055  0  -0.00783  -0.01935  0  3.977568  0
C  C91  1  0.27061829  0.27061493  0.22938352  1  -0.026095  0  0.016648  0.020824  0  3.895019  0
C  C92  1  0.83165922  0.83289019  0.71747319  1  0.084889  0  -0.064105  -0.110757  0  3.883439  0
C  C93  1  0.79185015  0.79154709  0.75884354  1  -0.013609  0  0.007211  0.044047  0  4.001074  0
C  C94  1  0.77003630  0.76948776  0.83067363  1  0.278459  0  0.094963  -0.005605  0  3.905219  0
C  C95  1  0.83289310  0.83165580  0.61797712  1  0.073853  0  -0.064101  -0.110793  0  3.883509  0
C  C96  1  0.79154910  0.79184763  0.65775998  1  -0.045528  0  0.007232  0.044105  0  4.001196  0
C  C97  1  0.76948903  0.77003475  0.62980284  1  0.223854  0  0.094903  -0.005678  0  3.90517  0
C  C98  1  0.66710907  0.66834077  0.78252636  1  0.084868  0  -0.064157  -0.110911  0  3.883386  0
C  C99  1  0.70845275  0.70815107  0.74115620  1  -0.013504  0  0.007193  0.044065  0  4.00114  0
C  C100  1  0.73051030  0.72996510  0.66932672  1  0.278226  0  0.094943  -0.005623  0  3.905203  0
C  C101  1  0.66834567  0.66710583  0.88202228  1  0.0738  0  -0.0641  -0.110788  0  3.883641  0
C  C102  1  0.70815401  0.70844985  0.84224023  1  -0.04528  0  0.007219  0.044162  0  4.001259  0
C  C103  1  0.72996754  0.73050927  0.87019738  1  0.223744  0  0.094928  -0.0057  0  3.905334  0
C  C104  1  0.85215239  0.85214878  0.64785049  1  -0.023438  0  -0.007892  -0.019556  0  3.977385  0
C  C105  1  0.77061894  0.77061549  0.72938291  1  0.00217  0  0.016627  0.021749  0  3.895429  0
C  C106  1  0.64785152  0.64784748  0.85215164  1  -0.02345  0  -0.007861  -0.019468  0  3.977346  0
C  C107  1  0.72938484  0.72938065  0.77061696  1  0.128568  0  0.01665  0.021741  0  3.895448  0
C  C108  1  0.83289375  0.11797545  0.71747447  1  0.015601  0  -0.064113  -0.111773  0  3.883457  0
C  C109  1  0.79155018  0.15775788  0.75884494  1  0.004312  0  0.007219  0.045532  0  3.9992  0
C  C110  1  0.76949118  0.12980098  0.83067439  1  0.340984  0  0.094909  -0.006081  0  3.905013  0
C  C111  1  0.83165710  0.21747128  0.61797864  1  0.032996  0  -0.064057  -0.111707  0  3.883565  0
C  C112  1  0.79184868  0.25884129  0.65776172  1  -0.043781  0  0.007223  0.045597  0  3.999094  0
C  C113  1  0.77003593  0.33067137  0.62980345  1  0.304633  0  0.094891  -0.006127  0  3.904883  0
C  C114  1  0.66834429  0.38202069  0.78252797  1  0.032905  0  -0.064074  -0.11169  0  3.8836  0
C  C115  1  0.70815352  0.34223885  0.74115742  1  -0.043947  0  0.007184  0.045521  0  3.99928  0
C  C116  1  0.72996724  0.37019538  0.66932785  1  0.228837  0  0.094916  -0.00605  0  3.904955  0
C  C117  1  0.66710942  0.28252529  0.88202463  1  0.015647  0  -0.064081  -0.111657  0  3.88333  0
C  C118  1  0.70845397  0.24115566  0.84224088  1  0.004071  0  0.007212  0.045526  0  3.999158  0
C  C119  1  0.73051289  0.16932520  0.87019862  1  0.176899  0  0.094959  -0.006093  0  3.904872  0
C  C120  1  0.85215181  0.14784681  0.64785115  1  0.033598  0  -0.007863  -0.01946  0  3.977616  0
C  C121  1  0.77061901  0.22938100  0.72938395  1  0.079454  0  0.016657  0.020966  0  3.894884  0
C  C122  1  0.64784999  0.35215152  0.85214996  1  0.033683  0  -0.007879  -0.019542  0  3.977614  0
C  C123  1  0.72938503  0.27061548  0.77061877  1  -0.025942  0  0.016631  0.020852  0  3.895002  0
C  C124  1  0.11797811  0.83289059  0.33165757  1  0.073951  0  -0.064067  -0.110713  0  3.883478  0
C  C125  1  0.15776105  0.79154671  0.29184928  1  -0.046234  0  0.007158  0.044026  0  4.001081  0
C  C126  1  0.12980285  0.76948732  0.27003626  1  0.224276  0  0.094983  -0.005535  0  3.905052  0
C  C127  1  0.21747410  0.83165473  0.33289410  1  0.084837  0  -0.064101  -0.110763  0  3.883544  0
C  C128  1  0.25884399  0.79184701  0.29154968  1  -0.013439  0  0.007204  0.044126  0  4.001218  0
C  C129  1  0.33067361  0.77003369  0.26949087  1  0.117003  0  0.094918  -0.005682  0  3.905232  0
C  C130  1  0.38202252  0.66834092  0.16711046  1  0.073755  0  -0.064102  -0.110727  0  3.883447  0
C  C131  1  0.34224059  0.70815006  0.20845298  1  -0.046387  0  0.007162  0.043979  0  4.001153  0
C  C132  1  0.37019812  0.72996388  0.23051173  1  0.385766  0  0.094969  -0.005602  0  3.905171  0
C  C133  1  0.28252673  0.66710585  0.16834415  1  0.084926  0  -0.064092  -0.110773  0  3.883511  0
C  C134  1  0.24115693  0.70845024  0.20815231  1  -0.013271  0  0.007256  0.044204  0  4.001137  0
C  C135  1  0.16932612  0.73050972  0.22996616  1  0.278074  0  0.094938  -0.005691  0  3.905178  0
C  C136  1  0.14785023  0.85214850  0.35215220  1  -0.023275  0  -0.007923  -0.0196  0  3.977531  0
C  C137  1  0.22938350  0.77061560  0.27061815  1  0.002137  0  0.016652  0.021655  0  3.89565  0
C  C138  1  0.35215096  0.64784678  0.14785150  1  -0.023156  0  -0.007859  -0.0195  0  3.977368  0
C  C139  1  0.27061741  0.72938105  0.22938397  1  0.128301  0  0.016589  0.021667  0  3.895618  0
N  N140  1  0.70871759  0.44414219  0.20950627  1  0.399792  0  0.062835  0.51334  0  4.244069  0
N  N141  1  0.79128592  0.36236809  0.29048874  1  0.423035  0  0.062606  0.513173  0  4.244257  0
N  N142  1  0.70950705  0.13763421  0.20871607  1  0.423049  0  0.062582  0.513046  0  4.244369  0
N  N143  1  0.79049817  0.05585636  0.29128151  1  0.400569  0  0.062756  0.513119  0  4.24431  0
N  N144  1  0.13763446  0.70950741  0.94414200  1  0.423576  0  0.062745  0.513295  0  4.244252  0
N  N145  1  0.05585861  0.79048825  0.86236682  1  0.423952  0  0.062563  0.513196  0  4.244321  0
N  N146  1  0.44414406  0.70871243  0.63763264  1  0.424788  0  0.06261  0.513121  0  4.244429  0
N  N147  1  0.36236928  0.79128499  0.55585868  1  0.424842  0  0.062606  0.513181  0  4.244376  0
N  N148  1  0.13763814  0.44414142  0.20871905  1  0.423895  0  0.062761  0.513251  0  4.244166  0
N  N149  1  0.05585922  0.36236840  0.29128639  1  0.425464  0  0.062636  0.513241  0  4.24433  0
N  N150  1  0.44414377  0.13763533  0.20950099  1  0.423561  0  0.062718  0.513173  0  4.24416  0
N  N151  1  0.36236751  0.05585595  0.29049105  1  0.423611  0  0.062682  0.513333  0  4.244253  0
N  N152  1  0.70950469  0.70871732  0.94414182  1  0.399466  0  0.062728  0.51322  0  4.244068  0
N  N153  1  0.79049276  0.79128358  0.86236659  1  0.423394  0  0.062673  0.513205  0  4.244363  0
N  N154  1  0.70871656  0.70950545  0.63763535  1  0.423369  0  0.062796  0.513338  0  4.244073  0
N  N155  1  0.79128156  0.79049521  0.55585819  1  0.399688  0  0.062797  0.513318  0  4.244208  0
N  N156  1  0.70871739  0.13763228  0.94414281  1  0.424886  0  0.062717  0.513297  0  4.24419  0
N  N157  1  0.79128324  0.05585668  0.86236458  1  0.425195  0  0.062751  0.513267  0  4.244042  0
N  N158  1  0.70951371  0.44414067  0.63763284  1  0.423739  0  0.062567  0.513087  0  4.244566  0
N  N159  1  0.79049729  0.36236196  0.55585851  1  0.423726  0  0.062761  0.513364  0  4.244043  0
N  N160  1  0.13763134  0.70871329  0.20951261  1  0.423018  0  0.062623  0.513189  0  4.244344  0
N  N161  1  0.05585785  0.79127961  0.29050126  1  0.399757  0  0.062722  0.51324  0  4.244267  0
N  N162  1  0.44414269  0.70950623  0.20871706  1  0.399717  0  0.062779  0.513341  0  4.244169  0
N  N163  1  0.36236549  0.79049378  0.29128366  1  0.423052  0  0.062711  0.51326  0  4.244135  0
O  O164  1  0.99999772  0.99999792  0.49999821  1  -1.198566  0  -0.573594  -1.03592  0  2.543737  0
O  O165  1  0.91144426  0.13462231  0.54131244  1  -1.177994  0  -0.307371  -0.534243  0  2.335833  0
O  O166  1  0.04131084  0.91144452  0.63462531  1  -1.178037  0  -0.307342  -0.534278  0  2.33587  0
O  O167  1  0.13462255  0.04131164  0.41144430  1  -1.1781  0  -0.307338  -0.534206  0  2.335971  0
O  O168  1  0.91262160  0.04130766  0.63462723  1  -1.165378  0  -0.307363  -0.534265  0  2.335841  0
O  O169  1  0.04130807  0.13462689  0.41262389  1  -1.165724  0  -0.307365  -0.534301  0  2.335861  0
O  O170  1  0.13462581  0.91262258  0.54131058  1  -1.165691  0  -0.307365  -0.534297  0  2.335804  0
O  O171  1  0.13462372  0.91144131  0.41262477  1  -1.157694  0  -0.307372  -0.534294  0  2.335651  0
O  O172  1  0.91144078  0.04131438  0.41262006  1  -1.148753  0  -0.307362  -0.534165  0  2.336082  0
O  O173  1  0.04131142  0.91262036  0.41143981  1  -1.148721  0  -0.307392  -0.53421  0  2.335918  0
O  O174  1  0.91262204  0.13462582  0.41144472  1  -1.157735  0  -0.30741  -0.534346  0  2.335632  0
O  O175  1  0.91144519  0.91262112  0.63462480  1  -1.157681  0  -0.307467  -0.534422  0  2.335618  0
O  O176  1  0.91261916  0.91144151  0.54131229  1  -1.148766  0  -0.307403  -0.534231  0  2.335904  0
O  O177  1  0.50000278  0.50000143  0.00000158  1  -1.198554  0  -0.573608  -1.03598  0  2.543712  0
O  O178  1  0.45869488  0.36536942  0.08855416  1  -1.17821  0  -0.307349  -0.534237  0  2.335692  0
O  O179  1  0.36537453  0.58855383  0.95869172  1  -1.178146  0  -0.307441  -0.534437  0  2.335895  0
O  O180  1  0.58855326  0.45869082  0.86537386  1  -1.178041  0  -0.3074  -0.53437  0  2.335755  0
O  O181  1  0.36538015  0.45868359  0.08737666  1  -1.165471  0  -0.30737  -0.534223  0  2.336201  0
O  O182  1  0.58737920  0.36537551  0.95868730  1  -1.1657  0  -0.307364  -0.534273  0  2.335904  0
O  O183  1  0.45868837  0.58737839  0.86537718  1  -1.165732  0  -0.30735  -0.534235  0  2.335909  0
O  O184  1  0.58737925  0.58855460  0.86538087  1  -1.157748  0  -0.307352  -0.534195  0  2.336089  0
O  O185  1  0.58738050  0.45868938  0.08855900  1  -1.148669  0  -0.307451  -0.534398  0  2.335725  0
O  O186  1  0.58855742  0.58738078  0.95869415  1  -1.148466  0  -0.307354  -0.534235  0  2.335707  0
O  O187  1  0.58855790  0.36537604  0.08737808  1  -1.157677  0  -0.307347  -0.534224  0  2.335736  0
O  O188  1  0.36537921  0.58737626  0.08855790  1  -1.157784  0  -0.307376  -0.534184  0  2.33586  0
O  O189  1  0.45869253  0.58855715  0.08738091  1  -1.148687  0  -0.307328  -0.534164  0  2.335769  0
O  O190  1  0.72375011  0.47521440  0.14862764  1  -0.409605  0  -0.108012  -0.294603  0  1.870227  0
O  O191  1  0.67640477  0.46826608  0.25513855  1  -0.408352  0  -0.106047  -0.28649  0  1.854123  0
O  O192  1  0.77625284  0.34759161  0.35137102  1  -0.417547  0  -0.10796  -0.294576  0  1.869954  0
O  O193  1  0.82359617  0.39981053  0.24486007  1  -0.40415  0  -0.105854  -0.286294  0  1.854491  0
O  O194  1  0.64863022  0.15240774  0.22374759  1  -0.417194  0  -0.107897  -0.294474  0  1.870293  0
O  O195  1  0.75514073  0.10018846  0.17640318  1  -0.404524  0  -0.105925  -0.286324  0  1.854193  0
O  O196  1  0.85137510  0.02478666  0.27624873  1  -0.409796  0  -0.107984  -0.294505  0  1.870399  0
O  O197  1  0.74486518  0.03173145  0.32359549  1  -0.408787  0  -0.105999  -0.286381  0  1.854043  0
O  O198  1  0.15240906  0.64862765  0.97521472  1  -0.414392  0  -0.107998  -0.294664  0  1.870184  0
O  O199  1  0.10019067  0.75513895  0.96826551  1  -0.410006  0  -0.105955  -0.286373  0  1.854268  0
O  O200  1  0.02478580  0.85136938  0.84759093  1  -0.414684  0  -0.107969  -0.29468  0  1.870102  0
O  O201  1  0.03173583  0.74485834  0.89980972  1  -0.410044  0  -0.105847  -0.286291  0  1.854381  0
O  O202  1  0.47521688  0.72374547  0.65240740  1  -0.416425  0  -0.107972  -0.29464  0  1.870173  0
O  O203  1  0.46826713  0.67640289  0.60018847  1  -0.408359  0  -0.105876  -0.286259  0  1.854423  0
O  O204  1  0.34759306  0.77625141  0.52478386  1  -0.416591  0  -0.108028  -0.294728  0  1.869885  0
O  O205  1  0.39980984  0.82359485  0.53173594  1  -0.408245  0  -0.105842  -0.286258  0  1.854668  0
O  O206  1  0.15241079  0.47521208  0.22374988  1  -0.415911  0  -0.107939  -0.294572  0  1.870526  0
O  O207  1  0.10019097  0.46826622  0.17640485  1  -0.408047  0  -0.106047  -0.286458  0  1.853855  0
O  O208  1  0.02478507  0.34759121  0.27625159  1  -0.417056  0  -0.107994  -0.294667  0  1.869801  0
O  O209  1  0.03173602  0.39980845  0.32359518  1  -0.408346  0  -0.105879  -0.28633  0  1.854718  0
O  O210  1  0.47521323  0.15240914  0.14862848  1  -0.414444  0  -0.107896  -0.294533  0  1.870677  0
O  O211  1  0.46826962  0.10018759  0.25513798  1  -0.410012  0  -0.106051  -0.286439  0  1.853679  0
O  O212  1  0.34759228  0.02478384  0.35137211  1  -0.41437  0  -0.107992  -0.2947  0  1.87007  0
O  O213  1  0.39980985  0.03173255  0.24486091  1  -0.410137  0  -0.105923  -0.286377  0  1.854431  0
O  O214  1  0.64863237  0.72374687  0.97521260  1  -0.409426  0  -0.107877  -0.294473  0  1.870557  0
O  O215  1  0.75514264  0.67640264  0.96826786  1  -0.408247  0  -0.106079  -0.286477  0  1.853667  0
O  O216  1  0.85137339  0.77625095  0.84759188  1  -0.417653  0  -0.107989  -0.294575  0  1.870097  0
O  O217  1  0.74486179  0.82359568  0.89980891  1  -0.40439  0  -0.105871  -0.286328  0  1.854426  0
O  O218  1  0.72374781  0.64862837  0.65240878  1  -0.417614  0  -0.107949  -0.294542  0  1.870247  0
O  O219  1  0.67640361  0.75513937  0.60019006  1  -0.404413  0  -0.106054  -0.286514  0  1.853997  0
O  O220  1  0.77624911  0.85137103  0.52478794  1  -0.409564  0  -0.107958  -0.294556  0  1.870404  0
O  O221  1  0.82359609  0.74486097  0.53173299  1  -0.408281  0  -0.106054  -0.286494  0  1.854031  0
O  O222  1  0.72374899  0.15240686  0.97521724  1  -0.41676  0  -0.108014  -0.2947  0  1.870043  0
O  O223  1  0.67640505  0.10019011  0.96826561  1  -0.408149  0  -0.105913  -0.286315  0  1.854315  0
O  O224  1  0.77625331  0.02478510  0.84759195  1  -0.417137  0  -0.107903  -0.294566  0  1.870427  0
O  O225  1  0.82359804  0.03173100  0.89981203  1  -0.408107  0  -0.106078  -0.286458  0  1.853712  0
O  O226  1  0.64862973  0.47521397  0.65240924  1  -0.414675  0  -0.10797  -0.294656  0  1.870005  0
O  O227  1  0.75514086  0.46826382  0.60019080  1  -0.410025  0  -0.105816  -0.286207  0  1.854715  0
O  O228  1  0.85137121  0.34758957  0.52478730  1  -0.414411  0  -0.107913  -0.2946  0  1.870486  0
O  O229  1  0.74486113  0.39980910  0.53173391  1  -0.41012  0  -0.106068  -0.286512  0  1.853815  0
O  O230  1  0.15240831  0.72374804  0.14862715  1  -0.417569  0  -0.108019  -0.294629  0  1.869762  0
O  O231  1  0.10019027  0.67640464  0.25513781  1  -0.404115  0  -0.105827  -0.286278  0  1.854729  0
O  O232  1  0.02478739  0.77625007  0.35137167  1  -0.409687  0  -0.107863  -0.294438  0  1.870711  0
O  O233  1  0.03173182  0.82359650  0.24486161  1  -0.408157  0  -0.106108  -0.286581  0  1.85375  0
O  O234  1  0.47521494  0.64862783  0.22375010  1  -0.409614  0  -0.107995  -0.294583  0  1.870174  0
O  O235  1  0.46826677  0.75513828  0.17640438  1  -0.408288  0  -0.105992  -0.286465  0  1.85421  0
O  O236  1  0.34759113  0.85137057  0.27625264  1  -0.417239  0  -0.107882  -0.29449  0  1.870264  0
O  O237  1  0.39981157  0.74485985  0.32359634  1  -0.404487  0  -0.106026  -0.286461  0  1.853993  0
