# generated using pymatgen
data_ZnH35C35(N3O2)3
_symmetry_space_group_name_H-M   'P 1'
_cell_length_a   16.79848619
_cell_length_b   17.86032557
_cell_length_c   23.59968496
_cell_angle_alpha   92.63366292
_cell_angle_beta   89.99992080
_cell_angle_gamma   90.00006811
_symmetry_Int_Tables_number   1
_chemical_formula_structural   ZnH35C35(N3O2)3
_chemical_formula_sum   'Zn2 H70 C70 N18 O12'
_cell_volume   7073.05044143
_cell_formula_units_Z   2
loop_
 _symmetry_equiv_pos_site_id
 _symmetry_equiv_pos_as_xyz
  1  'x, y, z'
loop_
 _atom_site_type_symbol
 _atom_site_label
 _atom_site_symmetry_multiplicity
 _atom_site_fract_x
 _atom_site_fract_y
 _atom_site_fract_z
 _atom_site_occupancy
 _atom_site_pbe_bader_charge
 _atom_site_pbe_bader_spin_density
 _atom_site_pbe_cm5_charge
 _atom_site_pbe_ddec_charge
 _atom_site_pbe_ddec_spin_density
 _atom_site_pbe_ddec_sum_bond_order
 _atom_site_pbe_magmom
Zn  Zn0  1  0.41114521  0.49999988  0.50000010  1  1.279885  0  0.676998  0.847369  0  2.352208  0
Zn  Zn1  1  0.59074651  0.49999998  0.50000044  1  1.308039  0  0.689118  0.863476  0  2.316098  0
H  H2  1  0.53682407  0.68727614  0.95052683  1  0.122435  0  0.117794  0.12321  0  0.978158  0
H  H3  1  0.32047879  0.72849152  0.55401865  1  0.057251  0  0.103773  0.113382  0  0.992224  0
H  H4  1  0.22614168  0.71087295  0.58560153  1  0.04467  0  0.093796  0.096488  0  1.023109  0
H  H5  1  0.23566344  0.70809988  0.51058051  1  0.018669  0  0.095598  0.10121  0  0.986471  0
H  H6  1  0.65369146  0.39156810  0.44059402  1  0.497139  0  0.297138  0.260262  0  1.037357  0
H  H7  1  0.69241822  0.34531934  0.35129158  1  0.055224  0  0.099  0.104164  0  1.004825  0
H  H8  1  0.78971093  0.38459148  0.35975861  1  0.07248  0  0.094296  0.095772  0  1.045752  0
H  H9  1  0.70686185  0.44372362  0.34575339  1  0.035483  0  0.088167  0.091376  0  1.005665  0
H  H10  1  0.34872110  0.38818825  0.46101552  1  0.485731  0  0.295093  0.245123  0  1.038185  0
H  H11  1  0.32047981  0.27150870  0.44598166  1  0.057272  0  0.103761  0.11339  0  0.992227  0
H  H12  1  0.22614158  0.28912663  0.41439970  1  0.044707  0  0.093793  0.096473  0  1.023133  0
H  H13  1  0.53681102  0.31272879  0.04947172  1  0.122444  0  0.117873  0.123318  0  0.978136  0
H  H14  1  0.23566499  0.29189969  0.48942028  1  0.018624  0  0.095597  0.101223  0  0.986449  0
H  H15  1  0.65369088  0.60843194  0.55940808  1  0.497182  0  0.297121  0.26023  0  1.037359  0
H  H16  1  0.69241693  0.65468410  0.64870931  1  0.055108  0  0.098945  0.10408  0  1.004895  0
H  H17  1  0.78971080  0.61541208  0.64024345  1  0.072574  0  0.094283  0.095778  0  1.045723  0
H  H18  1  0.70686102  0.55628042  0.65425004  1  0.035532  0  0.088172  0.091364  0  1.005673  0
H  H19  1  0.63129391  0.43711883  0.77374626  1  0.087505  0  0.104273  0.117797  0  0.993335  0
H  H20  1  0.63128856  0.56289238  0.22625365  1  0.087592  0  0.104295  0.117794  0  0.993407  0
H  H21  1  0.61417640  0.43806873  0.66815068  1  0.085434  0  0.107696  0.113066  0  0.995163  0
H  H22  1  0.61417382  0.56193853  0.33184828  1  0.085395  0  0.107749  0.113101  0  0.995071  0
H  H23  1  0.37268093  0.55995097  0.64202511  1  0.513069  0  0.296945  0.25233  0  1.033839  0
H  H24  1  0.45011746  0.12852397  0.57913906  1  0.054834  0  0.097903  0.110218  0  1.033912  0
H  H25  1  0.28362638  0.57685418  0.74562645  1  0.006231  0  0.09334  0.092892  0  0.984374  0
H  H26  1  0.28580465  0.64078345  0.68986517  1  0.043803  0  0.10438  0.108462  0  1.010551  0
H  H27  1  0.35526681  0.65079261  0.74657032  1  0.027637  0  0.09897  0.100084  0  0.988498  0
H  H28  1  0.37268113  0.44004875  0.35797513  1  0.513067  0  0.296923  0.252302  0  1.033873  0
H  H29  1  0.28362855  0.42314544  0.25437303  1  0.006235  0  0.093357  0.092907  0  0.984375  0
H  H30  1  0.28580603  0.35921560  0.31013345  1  0.04386  0  0.104376  0.108439  0  1.010525  0
H  H31  1  0.35526948  0.34920877  0.25342872  1  0.027656  0  0.098958  0.100075  0  0.988529  0
H  H32  1  0.40837387  0.55325336  0.79476459  1  0.067858  0  0.103986  0.117386  0  1.017319  0
H  H33  1  0.40837319  0.44674921  0.20523613  1  0.067682  0  0.103981  0.117411  0  1.017317  0
H  H34  1  0.42066077  0.33067796  0.57569214  1  0.506769  0  0.304263  0.263558  0  0.993475  0
H  H35  1  0.55882296  0.88649657  0.58610739  1  0.034821  0  0.0962  0.109143  0  1.019204  0
H  H36  1  0.39069367  0.29354885  0.66535179  1  0.061078  0  0.109595  0.116486  0  0.975243  0
H  H37  1  0.45406006  0.21438493  0.65618834  1  0.043395  0  0.100153  0.102173  0  0.984451  0
H  H38  1  0.35428085  0.20976545  0.63017704  1  0.028996  0  0.090048  0.0842  0  0.994406  0
H  H39  1  0.58549133  0.78415118  0.62918929  1  0.387687  0  0.302091  0.239493  0  0.946652  0
H  H40  1  0.54455360  0.67314036  0.67203651  1  0.050364  0  0.102546  0.113151  0  0.986583  0
H  H41  1  0.48870099  0.64661309  0.61128524  1  0.051129  0  0.098155  0.110519  0  1.049831  0
H  H42  1  0.45737972  0.72511196  0.65502576  1  0.03115  0  0.084151  0.081339  0  0.998942  0
H  H43  1  0.42066172  0.66932127  0.42430889  1  0.50675  0  0.304307  0.263678  0  0.993361  0
H  H44  1  0.39069663  0.70644977  0.33464883  1  0.061159  0  0.109618  0.11652  0  0.975219  0
H  H45  1  0.45406309  0.78561433  0.34381308  1  0.043225  0  0.100146  0.10219  0  0.984399  0
H  H46  1  0.45011926  0.87147529  0.42086279  1  0.054908  0  0.097862  0.110175  0  1.03386  0
H  H47  1  0.35428325  0.79023369  0.36982320  1  0.029056  0  0.090074  0.084234  0  0.994396  0
H  H48  1  0.58548825  0.21584767  0.37081157  1  0.387498  0  0.302097  0.23942  0  0.946763  0
H  H49  1  0.54455550  0.32686012  0.32796444  1  0.050516  0  0.102557  0.113168  0  0.986544  0
H  H50  1  0.48870221  0.35338788  0.38871577  1  0.05102  0  0.098154  0.110545  0  1.049748  0
H  H51  1  0.45737915  0.27489065  0.34497364  1  0.031174  0  0.084123  0.081314  0  0.998938  0
H  H52  1  0.06266026  0.61520233  0.55014674  1  0.398349  0  0.287009  0.22257  0  0.99292  0
H  H53  1  0.09361833  0.65367192  0.64630555  1  0.036897  0  0.099928  0.106871  0  0.983642  0
H  H54  1  0.18738331  0.60793738  0.63808310  1  0.043943  0  0.098792  0.102785  0  1.036303  0
H  H55  1  0.09881220  0.55334435  0.63920322  1  0.017991  0  0.087148  0.086111  0  0.995631  0
H  H56  1  0.93930649  0.40326941  0.43473559  1  0.365161  0  0.284715  0.216618  0  1.0083  0
H  H57  1  0.55881550  0.11350223  0.41389265  1  0.034682  0  0.096167  0.109146  0  1.019177  0
H  H58  1  0.90166554  0.27655060  0.41581527  1  0.073971  0  0.098322  0.104268  0  0.9874  0
H  H59  1  0.80296914  0.29844754  0.43909820  1  0.099044  0  0.105231  0.119204  0  1.011285  0
H  H60  1  0.88220540  0.29870636  0.48934278  1  0.025218  0  0.087638  0.086484  0  0.995501  0
H  H61  1  0.06266021  0.38479818  0.44985426  1  0.398338  0  0.286999  0.222535  0  0.992948  0
H  H62  1  0.09361724  0.34632750  0.35369538  1  0.03693  0  0.099931  0.10686  0  0.983683  0
H  H63  1  0.18738166  0.39206214  0.36191732  1  0.043957  0  0.098792  0.102784  0  1.036235  0
H  H64  1  0.09881002  0.44665452  0.36079727  1  0.017999  0  0.087147  0.086084  0  0.995674  0
H  H65  1  0.93930649  0.59673262  0.56526543  1  0.365159  0  0.284717  0.216613  0  1.008298  0
H  H66  1  0.90166327  0.72345084  0.58418705  1  0.073929  0  0.098315  0.104268  0  0.9874  0
H  H67  1  0.80296808  0.70155211  0.56090417  1  0.099399  0  0.105215  0.119173  0  1.011312  0
H  H68  1  0.53141492  0.68969501  0.05778747  1  0.106879  0  0.118527  0.124021  0  0.97692  0
H  H69  1  0.88220265  0.70129562  0.51065957  1  0.025298  0  0.087637  0.086504  0  0.995565  0
H  H70  1  0.53140312  0.31030992  0.94221108  1  0.106939  0  0.118517  0.123931  0  0.976975  0
H  H71  1  0.34872116  0.61181201  0.53898561  1  0.485881  0  0.295143  0.245163  0  1.038162  0
C  C72  1  0.49864663  0.64664354  0.50811353  1  1.480809  0  0.221749  0.624071  0  4.138819  0
C  C73  1  0.44225474  0.47085394  0.29308673  1  0.46515  0  0.112624  0.245887  0  4.041257  0
C  C74  1  0.45285944  0.52801141  0.76634516  1  -0.008961  0  -0.107934  -0.283319  0  3.945124  0
C  C75  1  0.45285873  0.47199233  0.23365471  1  -0.008717  0  -0.107922  -0.283328  0  3.945125  0
C  C76  1  0.51999045  0.49581502  0.78908497  1  0.253112  0  0.085849  0.215837  0  4.052294  0
C  C77  1  0.51998923  0.50419103  0.21091489  1  0.252965  0  0.085883  0.215823  0  4.052361  0
C  C78  1  0.47308446  0.15653741  0.54260004  1  0.023233  0  -0.12197  -0.289654  0  3.948407  0
C  C79  1  0.53542562  0.85197403  0.55059992  1  0.010305  0  -0.125398  -0.300558  0  3.986257  0
C  C80  1  0.47308795  0.84346076  0.45740176  1  0.023759  0  -0.121918  -0.289507  0  3.948294  0
C  C81  1  0.53541933  0.14802475  0.44939972  1  0.009948  0  -0.125454  -0.300693  0  3.986121  0
C  C82  1  0.46629224  0.23481618  0.53956075  1  0.425013  0  0.104596  0.245116  0  4.087159  0
C  C83  1  0.49864706  0.35335521  0.49188741  1  1.481113  0  0.221732  0.624123  0  4.138708  0
C  C84  1  0.53105196  0.77399516  0.55443887  1  0.360877  0  0.091078  0.235128  0  4.086844  0
C  C85  1  0.46629145  0.76518422  0.46044111  1  0.425266  0  0.104588  0.245076  0  4.087233  0
C  C86  1  0.53104875  0.22600419  0.44556248  1  0.361081  0  0.091116  0.235163  0  4.086835  0
C  C87  1  0.49724152  0.27032816  0.49074742  1  0.02236  0  -0.045249  -0.270773  0  3.908878  0
C  C88  1  0.49724417  0.72967059  0.50925352  1  0.02249  0  -0.045153  -0.27067  0  3.908771  0
C  C89  1  0.50721732  0.11342410  0.49771610  1  0.084981  0  -0.007548  0.181131  0  4.189916  0
C  C90  1  0.50722196  0.88657409  0.50228481  1  0.083859  0  -0.00763  0.180955  0  4.190175  0
C  C91  1  0.50020729  0.49529794  0.60865910  1  1.538751  0  0.2106  0.595204  0  4.165941  0
C  C92  1  0.50020691  0.50470361  0.39134192  1  1.538703  0  0.21061  0.595178  0  4.165934  0
C  C93  1  0.50948771  0.03413681  0.49965488  1  -0.29626  0  -0.049831  -0.106148  0  4.102899  0
C  C94  1  0.57944701  0.46275538  0.75492884  1  0.019896  0  -0.110879  -0.207159  0  4.035619  0
C  C95  1  0.50948948  0.96586251  0.50034606  1  -0.065952  0  -0.049753  -0.106084  0  4.102888  0
C  C96  1  0.16161737  0.55760557  0.53069582  1  0.465127  0  0.071327  0.029398  0  4.018666  0
C  C97  1  0.83799676  0.44582807  0.46577879  1  0.405037  0  0.080644  0.046566  0  4.015964  0
C  C98  1  0.16161736  0.44239504  0.46930381  1  0.46503  0  0.071289  0.029344  0  4.018721  0
C  C99  1  0.83799617  0.55417274  0.53422315  1  0.405122  0  0.08063  0.046586  0  4.015908  0
C  C100  1  0.24547315  0.55844139  0.52648416  1  0.902929  0  0.212915  0.291752  0  4.052634  0
C  C101  1  0.75387967  0.45046157  0.46409388  1  0.987726  0  0.21086  0.285053  0  4.051891  0
C  C102  1  0.24547253  0.44155876  0.47351580  1  0.90301  0  0.212925  0.291752  0  4.052735  0
C  C103  1  0.75387966  0.54953803  0.53590852  1  0.987854  0  0.210844  0.284989  0  4.051886  0
C  C104  1  0.12036484  0.49999972  0.49999982  1  0.086927  0  -0.012047  -0.007446  0  4.175527  0
C  C105  1  0.57944338  0.53725241  0.24507102  1  0.0199  0  -0.11099  -0.207191  0  4.035664  0
C  C106  1  0.87938859  0.50000070  0.50000032  1  0.183172  0  -0.017507  -0.025196  0  4.171021  0
C  C107  1  0.03630905  0.50000080  0.49999989  1  -0.084272  0  -0.043286  -0.107864  0  4.166171  0
C  C108  1  0.96334854  0.50000131  0.50000072  1  -0.434366  0  -0.037035  -0.088229  0  4.169196  0
C  C109  1  0.53497752  0.43234300  0.12099350  1  1.373781  0  0.242708  0.434242  0  4.09256  0
C  C110  1  0.53498342  0.56766249  0.87900506  1  1.373931  0  0.242641  0.434198  0  4.092589  0
C  C111  1  0.52577797  0.57289527  0.12395407  1  1.338407  0  0.243586  0.432589  0  4.093054  0
C  C112  1  0.52577179  0.42710966  0.87604490  1  1.338372  0  0.243515  0.432585  0  4.093057  0
C  C113  1  0.53204585  0.57038476  0.06119175  1  -0.075358  0  -0.003308  -0.060905  0  3.986989  0
C  C114  1  0.53204075  0.42962184  0.93880685  1  -0.075426  0  -0.00329  -0.060826  0  3.986937  0
C  C115  1  0.53395375  0.50065744  0.03020015  1  -0.000124  0  0.00368  0.032203  0  4.003646  0
C  C116  1  0.56946640  0.46302405  0.69660012  1  -0.017844  0  -0.082345  -0.054946  0  4.02644  0
C  C117  1  0.53395403  0.49934917  0.96979845  1  0.135648  0  0.003679  0.032071  0  4.003616  0
C  C118  1  0.53499723  0.43223164  0.05814056  1  -0.114561  0  -0.004315  -0.061774  0  3.989264  0
C  C119  1  0.53500182  0.56777385  0.94185758  1  -0.114551  0  -0.004385  -0.061822  0  3.989148  0
C  C120  1  0.53310495  0.63686052  0.03278545  1  0.065904  0  -0.062804  -0.069042  0  3.932616  0
C  C121  1  0.53309554  0.36314553  0.96721356  1  0.066041  0  -0.062803  -0.068897  0  3.932691  0
C  C122  1  0.53552390  0.63554138  0.97327201  1  -0.078411  0  -0.063283  -0.070223  0  3.934866  0
C  C123  1  0.53551274  0.36446411  0.02672571  1  -0.078301  0  -0.063397  -0.070413  0  3.935122  0
C  C124  1  0.26590243  0.69486929  0.55025782  1  0.280647  0  -0.140288  -0.207622  0  3.955892  0
C  C125  1  0.72616234  0.39395517  0.36818145  1  0.272621  0  -0.142496  -0.20343  0  3.966454  0
C  C126  1  0.26590288  0.30513088  0.44974339  1  0.280638  0  -0.140253  -0.207606  0  3.955875  0
C  C127  1  0.56946385  0.53698205  0.30339928  1  -0.0178  0  -0.082349  -0.054991  0  4.026203  0
C  C128  1  0.72616103  0.60604720  0.63182065  1  0.272487  0  -0.142413  -0.203293  0  3.966354  0
C  C129  1  0.32315856  0.60965489  0.71872906  1  0.352118  0  -0.132037  -0.205809  0  4.005277  0
C  C130  1  0.32316004  0.39034590  0.28127042  1  0.352081  0  -0.132006  -0.205754  0  4.005297  0
C  C131  1  0.40682251  0.24662549  0.63598424  1  0.294726  0  -0.130693  -0.200144  0  4.01494  0
C  C132  1  0.50980766  0.69497689  0.63703297  1  0.264319  0  -0.148492  -0.21942  0  3.973334  0
C  C133  1  0.40682546  0.75337484  0.36401684  1  0.294829  0  -0.130741  -0.200217  0  4.014803  0
C  C134  1  0.50980768  0.30502467  0.36296762  1  0.264253  0  -0.148467  -0.219425  0  3.973156  0
C  C135  1  0.12472291  0.60621444  0.62496215  1  0.287911  0  -0.144134  -0.221508  0  3.983149  0
C  C136  1  0.86612424  0.31188724  0.44550113  1  0.201868  0  -0.143806  -0.223337  0  3.976495  0
C  C137  1  0.12472124  0.39378445  0.37503832  1  0.287862  0  -0.144138  -0.221468  0  3.983141  0
C  C138  1  0.50274853  0.49514895  0.67147079  1  -0.040341  0  -0.035796  -0.172663  0  3.952898  0
C  C139  1  0.86612377  0.68811304  0.55450076  1  0.201462  0  -0.143802  -0.223383  0  3.976574  0
C  C140  1  0.50274768  0.50485427  0.32852943  1  -0.040324  0  -0.035753  -0.172515  0  3.952698  0
C  C141  1  0.44225497  0.52914923  0.70691355  1  0.465183  0  0.112707  0.246039  0  4.041096  0
N  N142  1  0.52759711  0.50310576  0.14988673  1  -1.127821  0  -0.226984  -0.202384  0  3.544648  0
N  N143  1  0.37735242  0.43664213  0.31480239  1  -1.257013  0  -0.445825  -0.285145  0  3.621729  0
N  N144  1  0.43393811  0.27672578  0.58371379  1  -1.26414  0  -0.451526  -0.291924  0  3.613837  0
N  N145  1  0.56065159  0.74291911  0.60380631  1  -1.112429  0  -0.457114  -0.310278  0  3.494732  0
N  N146  1  0.43393915  0.72327290  0.41628805  1  -1.264328  0  -0.451583  -0.292089  0  3.613805  0
N  N147  1  0.56064851  0.25707914  0.39619455  1  -1.112347  0  -0.457094  -0.310191  0  3.494791  0
N  N148  1  0.12033270  0.61317028  0.56337841  1  -1.132725  0  -0.467156  -0.308653  0  3.511114  0
N  N149  1  0.88015413  0.39079147  0.43378234  1  -1.098881  0  -0.461425  -0.297224  0  3.535818  0
N  N150  1  0.12033209  0.38682973  0.43662167  1  -1.132738  0  -0.467148  -0.308615  0  3.511109  0
N  N151  1  0.88015354  0.60920994  0.56621915  1  -1.098939  0  -0.461397  -0.297139  0  3.535681  0
N  N152  1  0.52759941  0.49689917  0.85011310  1  -1.127822  0  -0.226923  -0.20243  0  3.544538  0
N  N153  1  0.28561187  0.49999981  0.50000016  1  -1.220908  0  -0.341442  -0.411779  0  3.425976  0
N  N154  1  0.71407727  0.50000062  0.50000125  1  -1.23752  0  -0.335168  -0.398042  0  3.443095  0
N  N155  1  0.29034684  0.61600126  0.55083746  1  -1.178971  0  -0.452457  -0.321521  0  3.508646  0
N  N156  1  0.71107224  0.40199518  0.42893049  1  -1.233828  0  -0.456186  -0.335341  0  3.57455  0
N  N157  1  0.29034620  0.38399894  0.44916330  1  -1.178846  0  -0.452426  -0.32149  0  3.508713  0
N  N158  1  0.71107163  0.59800549  0.57107157  1  -1.233764  0  -0.456214  -0.335383  0  3.574369  0
N  N159  1  0.37735214  0.56335872  0.68519746  1  -1.25702  0  -0.445855  -0.285177  0  3.621647  0
O  O160  1  0.43528139  0.61230868  0.48992415  1  -1.181204  0  -0.316235  -0.569263  0  2.38991  0
O  O161  1  0.54005180  0.62554892  0.85302531  1  -1.097876  0  -0.27909  -0.436632  0  2.070389  0
O  O162  1  0.51811419  0.63186283  0.15231146  1  -1.090179  0  -0.27457  -0.429597  0  2.070323  0
O  O163  1  0.51810145  0.36814264  0.84768627  1  -1.090177  0  -0.274588  -0.429636  0  2.070264  0
O  O164  1  0.56066935  0.38777151  0.47703063  1  -1.184073  0  -0.298302  -0.531474  0  2.389635  0
O  O165  1  0.43528123  0.38769056  0.51007687  1  -1.181114  0  -0.316209  -0.569262  0  2.389981  0
O  O166  1  0.56066944  0.61222844  0.52297198  1  -1.183926  0  -0.29832  -0.531469  0  2.389798  0
O  O167  1  0.43505800  0.51648674  0.58516204  1  -1.177597  0  -0.321381  -0.571051  0  2.391823  0
O  O168  1  0.56257502  0.52474086  0.41860918  1  -1.171282  0  -0.317807  -0.543573  0  2.341772  0
O  O169  1  0.43505815  0.48351304  0.41483772  1  -1.177545  0  -0.321357  -0.571014  0  2.391797  0
O  O170  1  0.56257364  0.47525852  0.58139129  1  -1.171291  0  -0.317799  -0.543577  0  2.341718  0
O  O171  1  0.54004816  0.37445657  0.14697240  1  -1.097684  0  -0.279173  -0.43671  0  2.07034  0
