# generated using pymatgen
data_CdH28C30(N3O2)2
_symmetry_space_group_name_H-M   'P 1'
_cell_length_a   9.85864238
_cell_length_b   12.15438505
_cell_length_c   12.15441094
_cell_angle_alpha   105.20286304
_cell_angle_beta   98.46888405
_cell_angle_gamma   98.46858847
_symmetry_Int_Tables_number   1
_chemical_formula_structural   CdH28C30(N3O2)2
_chemical_formula_sum   'Cd2 H56 C60 N12 O8'
_cell_volume   1363.49947243
_cell_formula_units_Z   2
loop_
 _symmetry_equiv_pos_site_id
 _symmetry_equiv_pos_as_xyz
  1  'x, y, z'
loop_
 _atom_site_type_symbol
 _atom_site_label
 _atom_site_symmetry_multiplicity
 _atom_site_fract_x
 _atom_site_fract_y
 _atom_site_fract_z
 _atom_site_occupancy
 _atom_site_hle17_bader_spin_density
 _atom_site_hle17_ddec_charge
 _atom_site_hle17_ddec_spin_density
 _atom_site_hle17_ddec_sum_bond_order
 _atom_site_hle17_magmom
 _atom_site_hse06_10hf_bader_spin_density
 _atom_site_hse06_10hf_ddec_charge
 _atom_site_hse06_10hf_ddec_spin_density
 _atom_site_hse06_10hf_ddec_sum_bond_order
 _atom_site_hse06_10hf_magmom
 _atom_site_hse06_bader_spin_density
 _atom_site_hse06_ddec_charge
 _atom_site_hse06_ddec_spin_density
 _atom_site_hse06_ddec_sum_bond_order
 _atom_site_hse06_magmom
 _atom_site_pbe_bader_spin_density
 _atom_site_pbe_cm5_charge
 _atom_site_pbe_ddec_charge
 _atom_site_pbe_ddec_spin_density
 _atom_site_pbe_ddec_sum_bond_order
 _atom_site_pbe_magmom
Cd  Cd0  1  0.74999835  0.37327467  0.62672236  1  0  1.082113  0  1.695471  0  0  0.894244  0  2.135037  0  0  0.954249  0  2.082998  0  0  0.767795  0.851282  0  2.171135  0
Cd  Cd1  1  0.25000052  0.62672535  0.37327584  1  0  1.082152  0  1.695436  0  0  0.894294  0  2.134998  0  0  0.954295  0  2.082962  0  0  0.767796  0.851331  0  2.171097  0
H  H2  1  0.96115206  0.64531388  0.78859383  1  0  0.115834  0  0.942028  0  0  0.121755  0  1.010973  0  0  0.125147  0  1.006664  0  0  0.145811  0.118833  0  1.014679  0
H  H3  1  0.53884827  0.21140724  0.35468454  1  0  0.11587  0  0.94199  0  0  0.121764  0  1.01096  0  0  0.125163  0  1.006633  0  0  0.145822  0.118843  0  1.014666  0
H  H4  1  0.03884805  0.35468699  0.21140558  1  0  0.115797  0  0.942036  0  0  0.121689  0  1.011017  0  0  0.125082  0  1.006704  0  0  0.145804  0.118768  0  1.014721  0
H  H5  1  0.46115265  0.78859276  0.64531391  1  0  0.115862  0  0.942009  0  0  0.121753  0  1.010988  0  0  0.125153  0  1.006657  0  0  0.145809  0.118832  0  1.014694  0
H  H6  1  0.54146575  0.58356401  0.61739723  1  0  0.108763  0  0.922209  0  0  0.118889  0  0.980941  0  0  0.121111  0  0.978395  0  0  0.138719  0.117187  0  0.982967  0
H  H7  1  0.95853572  0.38260213  0.41643441  1  0  0.108767  0  0.922204  0  0  0.118896  0  0.98093  0  0  0.12112  0  0.978382  0  0  0.138709  0.117195  0  0.982957  0
H  H8  1  0.45853084  0.41643513  0.38260457  1  0  0.10881  0  0.922217  0  0  0.118918  0  0.980966  0  0  0.121141  0  0.978419  0  0  0.138743  0.117218  0  0.982987  0
H  H9  1  0.04146660  0.61739523  0.58356598  1  0  0.108781  0  0.922251  0  0  0.118908  0  0.980983  0  0  0.121131  0  0.978436  0  0  0.138721  0.11721  0  0.983  0
H  H10  1  0.93343681  0.91150606  0.76641668  1  0  0.092565  0  0.928724  0  0  0.10995  0  0.985599  0  0  0.110522  0  0.985731  0  0  0.117289  0.109522  0  0.985575  0
H  H11  1  0.56656440  0.23358420  0.08849118  1  0  0.092607  0  0.92863  0  0  0.109982  0  0.985511  0  0  0.110554  0  0.985643  0  0  0.117294  0.109545  0  0.9855  0
H  H12  1  0.06656163  0.08849221  0.23358183  1  0  0.092586  0  0.928608  0  0  0.109952  0  0.985509  0  0  0.110521  0  0.985644  0  0  0.117281  0.109524  0  0.985486  0
H  H13  1  0.43343818  0.76641839  0.91150981  1  0  0.092597  0  0.928661  0  0  0.109968  0  0.985542  0  0  0.11054  0  0.985673  0  0  0.117292  0.10953  0  0.985529  0
H  H14  1  0.99359084  0.85973932  0.88347264  1  0  0.089384  0  0.943051  0  0  0.098697  0  1.01753  0  0  0.099278  0  1.018055  0  0  0.117417  0.098011  0  1.01777  0
H  H15  1  0.50641091  0.11652757  0.14026100  1  0  0.089389  0  0.943092  0  0  0.098711  0  1.017552  0  0  0.099289  0  1.018082  0  0  0.117422  0.098027  0  1.017791  0
H  H16  1  0.00640927  0.14026156  0.11652512  1  0  0.089371  0  0.943058  0  0  0.098723  0  1.017482  0  0  0.099302  0  1.018008  0  0  0.117429  0.098038  0  1.017722  0
H  H17  1  0.49359065  0.88347503  0.85973905  1  0  0.089387  0  0.94306  0  0  0.098734  0  1.017488  0  0  0.099313  0  1.018015  0  0  0.117429  0.098047  0  1.017727  0
H  H18  1  0.85525213  0.83640979  0.13516837  1  0  0.111178  0  0.946556  0  0  0.136854  0  0.999172  0  0  0.13796  0  0.99958  0  0  0.095054  0.135992  0  0.998915  0
H  H19  1  0.64474910  0.86483187  0.16358916  1  0  0.111174  0  0.946506  0  0  0.136853  0  0.999125  0  0  0.13796  0  0.999532  0  0  0.095047  0.13599  0  0.998868  0
H  H20  1  0.14474798  0.16359109  0.86483104  1  0  0.111168  0  0.946565  0  0  0.136848  0  0.999176  0  0  0.137956  0  0.999579  0  0  0.095048  0.135985  0  0.998918  0
H  H21  1  0.35524978  0.13516815  0.83640823  1  0  0.111168  0  0.946577  0  0  0.136863  0  0.99917  0  0  0.137972  0  0.999573  0  0  0.095064  0.136  0  0.998913  0
H  H22  1  0.92182983  0.79535336  0.00677185  1  0  0.100192  0  0.965276  0  0  0.121749  0  1.027048  0  0  0.122462  0  1.028009  0  0  0.090327  0.12118  0  1.026489  0
H  H23  1  0.57817102  0.99322786  0.20464594  1  0  0.100212  0  0.965273  0  0  0.12177  0  1.027044  0  0  0.122484  0  1.028004  0  0  0.090335  0.121199  0  1.026488  0
H  H24  1  0.07817029  0.20464752  0.99322592  1  0  0.100201  0  0.965349  0  0  0.121735  0  1.027142  0  0  0.122447  0  1.028102  0  0  0.090322  0.121166  0  1.026582  0
H  H25  1  0.42182828  0.00677390  0.79535278  1  0  0.100223  0  0.96533  0  0  0.121757  0  1.027121  0  0  0.122471  0  1.028082  0  0  0.090329  0.121189  0  1.026562  0
H  H26  1  0.74525252  0.74296989  0.00740300  1  0  0.105976  0  0.961249  0  0  0.125716  0  1.026317  0  0  0.126033  0  1.027995  0  0  0.088895  0.125437  0  1.025148  0
H  H27  1  0.75474908  0.99259786  0.25703019  1  0  0.10597  0  0.961267  0  0  0.125721  0  1.026323  0  0  0.126037  0  1.028005  0  0  0.088889  0.12544  0  1.025157  0
H  H28  1  0.25474736  0.25703011  0.99259697  1  0  0.105972  0  0.961263  0  0  0.12571  0  1.02633  0  0  0.126025  0  1.028011  0  0  0.088892  0.125429  0  1.025162  0
H  H29  1  0.24525103  0.00740301  0.74296839  1  0  0.105952  0  0.961269  0  0  0.125694  0  1.026338  0  0  0.12601  0  1.028019  0  0  0.088876  0.125415  0  1.025169  0
H  H30  1  0.90051799  0.13377099  0.77636371  1  0  0.111064  0  0.942376  0  0  0.132805  0  1.002799  0  0  0.133788  0  1.003128  0  0  0.09107  0.132146  0  1.002481  0
H  H31  1  0.59948320  0.22363583  0.86622849  1  0  0.111096  0  0.942333  0  0  0.132827  0  1.002758  0  0  0.13381  0  1.003087  0  0  0.091089  0.132168  0  1.00244  0
H  H32  1  0.09948169  0.86622814  0.22363518  1  0  0.111065  0  0.942365  0  0  0.132801  0  1.002791  0  0  0.133783  0  1.003122  0  0  0.091075  0.132142  0  1.002473  0
H  H33  1  0.40051895  0.77636503  0.13377117  1  0  0.111065  0  0.942356  0  0  0.132801  0  1.002785  0  0  0.133784  0  1.003115  0  0  0.091077  0.132143  0  1.002467  0
H  H34  1  0.71799566  0.10752385  0.72967953  1  0  0.128566  0  0.955679  0  0  0.150452  0  1.013348  0  0  0.151925  0  1.013132  0  0  0.095051  0.149232  0  1.013723  0
H  H35  1  0.78200476  0.27032065  0.89247435  1  0  0.128545  0  0.955662  0  0  0.150444  0  1.013315  0  0  0.151916  0  1.0131  0  0  0.095028  0.149223  0  1.013689  0
H  H36  1  0.28200649  0.89247701  0.27032012  1  0  0.128548  0  0.9557  0  0  0.150421  0  1.013384  0  0  0.151892  0  1.013172  0  0  0.095046  0.149201  0  1.013758  0
H  H37  1  0.21799594  0.72967848  0.10752466  1  0  0.128528  0  0.955633  0  0  0.150423  0  1.013297  0  0  0.151894  0  1.013083  0  0  0.095023  0.149202  0  1.013671  0
H  H38  1  0.80710094  0.99155855  0.69800917  1  0  0.100129  0  0.99216  0  0  0.116861  0  1.059892  0  0  0.117362  0  1.061781  0  0  0.084469  0.116502  0  1.058566  0
H  H39  1  0.69290048  0.30199113  0.00844042  1  0  0.100132  0  0.99217  0  0  0.116864  0  1.059898  0  0  0.117365  0  1.061788  0  0  0.084472  0.116506  0  1.058569  0
H  H40  1  0.19290100  0.00844144  0.30199023  1  0  0.100148  0  0.99215  0  0  0.116882  0  1.059873  0  0  0.117383  0  1.061763  0  0  0.084482  0.116523  0  1.058547  0
H  H41  1  0.30710022  0.69800800  0.99155777  1  0  0.100123  0  0.992154  0  0  0.116857  0  1.059886  0  0  0.117358  0  1.061777  0  0  0.084468  0.116498  0  1.058559  0
H  H42  1  0.26738437  0.46040943  0.68610166  1  0  0.097942  0  0.957401  0  0  0.107321  0  1.021222  0  0  0.110917  0  1.01811  0  0  0.101758  0.104733  0  1.023498  0
H  H43  1  0.23261192  0.31389958  0.53959147  1  0  0.098037  0  0.957418  0  0  0.107408  0  1.021231  0  0  0.111004  0  1.01812  0  0  0.101803  0.10482  0  1.023506  0
H  H44  1  0.73261635  0.53959403  0.31390263  1  0  0.098046  0  0.95731  0  0  0.107409  0  1.02114  0  0  0.111004  0  1.018029  0  0  0.101812  0.10482  0  1.023416  0
H  H45  1  0.76738673  0.68609955  0.46040894  1  0  0.098006  0  0.957421  0  0  0.107377  0  1.02124  0  0  0.110973  0  1.018128  0  0  0.101795  0.104788  0  1.023516  0
H  H46  1  0.50082839  0.49390253  0.80334894  1  0  0.087029  0  0.98648  0  0  0.096514  0  1.052811  0  0  0.099391  0  1.051606  0  0  0.095385  0.094391  0  1.053854  0
H  H47  1  0.99917021  0.19665232  0.50609720  1  0  0.086971  0  0.986498  0  0  0.096449  0  1.052839  0  0  0.099325  0  1.051635  0  0  0.095368  0.094328  0  1.053881  0
H  H48  1  0.49917276  0.50610266  0.19665669  1  0  0.087019  0  0.986483  0  0  0.096456  0  1.052864  0  0  0.099329  0  1.051668  0  0  0.095378  0.094334  0  1.053906  0
H  H49  1  0.00082968  0.80334769  0.49390195  1  0  0.087002  0  0.986499  0  0  0.096474  0  1.052841  0  0  0.09935  0  1.051639  0  0  0.095377  0.094349  0  1.05389  0
H  H50  1  0.31537833  0.48466646  0.10360978  1  0  0.086551  0  0.975533  0  0  0.097059  0  1.038934  0  0  0.099674  0  1.037979  0  0  0.098182  0.095118  0  1.039835  0
H  H51  1  0.18462233  0.89639085  0.51532921  1  0  0.086573  0  0.97559  0  0  0.097069  0  1.039012  0  0  0.099673  0  1.038071  0  0  0.09819  0.095162  0  1.039875  0
H  H52  1  0.68462024  0.51532829  0.89639521  1  0  0.086578  0  0.975676  0  0  0.097091  0  1.039063  0  0  0.099697  0  1.038121  0  0  0.098181  0.095158  0  1.039956  0
H  H53  1  0.81537983  0.10361002  0.48466880  1  0  0.086585  0  0.975558  0  0  0.097085  0  1.038969  0  0  0.099693  0  1.038023  0  0  0.098193  0.095151  0  1.039864  0
H  H54  1  0.08341518  0.44430291  0.98194449  1  0  0.100418  0  0.950696  0  0  0.109255  0  1.014512  0  0  0.112951  0  1.011555  0  0  0.104557  0.107054  0  1.015689  0
H  H55  1  0.41658606  0.01805765  0.55569438  1  0  0.100386  0  0.95067  0  0  0.109207  0  1.014494  0  0  0.112905  0  1.011536  0  0  0.104559  0.107007  0  1.01567  0
H  H56  1  0.91658547  0.55569184  0.01805664  1  0  0.100395  0  0.950688  0  0  0.109214  0  1.014523  0  0  0.112912  0  1.011565  0  0  0.104555  0.107013  0  1.015699  0
H  H57  1  0.58341302  0.98194323  0.44430490  1  0  0.100408  0  0.95065  0  0  0.109237  0  1.014467  0  0  0.112935  0  1.011511  0  0  0.104563  0.107039  0  1.015643  0
C  C58  1  0.85641836  0.65445393  0.75487554  1  0  0.168956  0  3.637119  0  0  0.092381  0  3.898978  0  0  0.106738  0  3.911056  0  0  0.164294  0.083454  0  3.890755  0
C  C59  1  0.64358124  0.24512806  0.34554484  1  0  0.168834  0  3.637217  0  0  0.092273  0  3.899059  0  0  0.106627  0  3.911144  0  0  0.164176  0.083346  0  3.890837  0
C  C60  1  0.14358007  0.34554433  0.24512461  1  0  0.168998  0  3.637041  0  0  0.092435  0  3.898911  0  0  0.106787  0  3.910997  0  0  0.164242  0.083509  0  3.890688  0
C  C61  1  0.35641968  0.75487194  0.65445444  1  0  0.168911  0  3.637147  0  0  0.09234  0  3.899013  0  0  0.106698  0  3.911097  0  0  0.164236  0.083413  0  3.890792  0
C  C62  1  0.64381396  0.62718195  0.66925190  1  0  0.2016  0  3.710418  0  0  0.146432  0  4.00531  0  0  0.158466  0  4.018002  0  0  0.146076  0.138585  0  3.996691  0
C  C63  1  0.85618640  0.33074784  0.37281932  1  0  0.201587  0  3.710438  0  0  0.1464  0  4.005317  0  0  0.158431  0  4.018014  0  0  0.146056  0.138553  0  3.996698  0
C  C64  1  0.35618490  0.37281805  0.33074877  1  0  0.201587  0  3.710475  0  0  0.146436  0  4.005362  0  0  0.158468  0  4.018058  0  0  0.146065  0.138588  0  3.996744  0
C  C65  1  0.14381408  0.66925041  0.62718025  1  0  0.201546  0  3.710467  0  0  0.146355  0  4.00537  0  0  0.158389  0  4.018061  0  0  0.146072  0.13851  0  3.996752  0
C  C66  1  0.89926032  0.87313805  0.83221399  1  0  -0.043495  0  3.646384  0  0  -0.123401  0  3.899106  0  0  -0.118949  0  3.908657  0  0  -0.043089  -0.126337  0  3.893082  0
C  C67  1  0.60073892  0.16778711  0.12686196  1  0  -0.043545  0  3.646449  0  0  -0.123426  0  3.899164  0  0  -0.118983  0  3.908729  0  0  -0.043098  -0.126356  0  3.893133  0
C  C68  1  0.10073731  0.12686110  0.16778384  1  0  -0.043542  0  3.646334  0  0  -0.123444  0  3.899013  0  0  -0.118995  0  3.908566  0  0  -0.043137  -0.126385  0  3.892996  0
C  C69  1  0.39926344  0.83221462  0.87313877  1  0  -0.043549  0  3.646384  0  0  -0.123455  0  3.89906  0  0  -0.119005  0  3.908614  0  0  -0.043154  -0.126374  0  3.893019  0
C  C70  1  0.82058770  0.94960123  0.90743588  1  0  -0.041487  0  3.718861  0  0  -0.037246  0  3.973104  0  0  -0.038879  0  3.996144  0  0  -0.021174  -0.036012  0  3.958136  0
C  C71  1  0.67941241  0.09256425  0.05039840  1  0  -0.041504  0  3.719024  0  0  -0.037335  0  3.973318  0  0  -0.03897  0  3.996362  0  0  -0.021188  -0.036094  0  3.958343  0
C  C72  1  0.17941198  0.05039791  0.09256219  1  0  -0.041485  0  3.718848  0  0  -0.037244  0  3.973064  0  0  -0.038881  0  3.996107  0  0  -0.021155  -0.036013  0  3.958104  0
C  C73  1  0.32058688  0.90743749  0.94960196  1  0  -0.041447  0  3.718854  0  0  -0.037196  0  3.973054  0  0  -0.038831  0  3.996096  0  0  -0.021156  -0.035968  0  3.958094  0
C  C74  1  0.78836010  0.92312248  0.00796938  1  0  0.042411  0  3.719758  0  0  0.054598  0  3.966222  0  0  0.054197  0  3.990207  0  0  -0.019559  0.054404  0  3.950867  0
C  C75  1  0.71164230  0.99203298  0.07687904  1  0  0.042483  0  3.719748  0  0  0.054682  0  3.966235  0  0  0.054281  0  3.990222  0  0  -0.019555  0.054486  0  3.950877  0
C  C76  1  0.21164000  0.07687839  0.99203085  1  0  0.042486  0  3.719751  0  0  0.054661  0  3.966218  0  0  0.054258  0  3.990207  0  0  -0.019559  0.054469  0  3.950861  0
C  C77  1  0.28835700  0.00796877  0.92311968  1  0  0.042357  0  3.719852  0  0  0.054548  0  3.966306  0  0  0.054147  0  3.990295  0  0  -0.019568  0.054355  0  3.950952  0
C  C78  1  0.83017511  0.82007251  0.04066717  1  0  -0.328049  0  3.746591  0  0  -0.408979  0  3.985036  0  0  -0.41132  0  3.996818  0  0  -0.244637  -0.406935  0  3.976927  0
C  C79  1  0.66982657  0.95933399  0.17992781  1  0  -0.328081  0  3.746534  0  0  -0.409025  0  3.984975  0  0  -0.41137  0  3.99676  0  0  -0.244639  -0.406979  0  3.97687  0
C  C80  1  0.16982397  0.17992837  0.95933211  1  0  -0.328058  0  3.746638  0  0  -0.408977  0  3.98509  0  0  -0.411319  0  3.996873  0  0  -0.244636  -0.406933  0  3.976979  0
C  C81  1  0.33017273  0.04066777  0.82007091  1  0  -0.32803  0  3.74671  0  0  -0.408961  0  3.985139  0  0  -0.411307  0  3.996924  0  0  -0.24463  -0.406919  0  3.977031  0
C  C82  1  0.78163389  0.04638289  0.87730105  1  0  0.049241  0  3.711869  0  0  0.060252  0  3.960948  0  0  0.059884  0  3.985025  0  0  -0.014259  0.060734  0  3.944131  0
C  C83  1  0.71836378  0.12269780  0.95361634  1  0  0.049185  0  3.71196  0  0  0.060262  0  3.961002  0  0  0.059894  0  3.98508  0  0  -0.014268  0.060742  0  3.944183  0
C  C84  1  0.21836374  0.95361626  0.12269760  1  0  0.049195  0  3.711919  0  0  0.060232  0  3.960975  0  0  0.059864  0  3.985052  0  0  -0.014276  0.060715  0  3.944158  0
C  C85  1  0.28163304  0.87730222  0.04638326  1  0  0.049251  0  3.711854  0  0  0.060264  0  3.960934  0  0  0.059896  0  3.985011  0  0  -0.01425  0.060748  0  3.944115  0
C  C86  1  0.80348341  0.07057458  0.76516207  1  0  -0.34104  0  3.728942  0  0  -0.41897  0  3.964456  0  0  -0.421598  0  3.975623  0  0  -0.247787  -0.416806  0  3.956454  0
C  C87  1  0.69651839  0.23483791  0.92942439  1  0  -0.341032  0  3.728923  0  0  -0.418963  0  3.964388  0  0  -0.421592  0  3.975556  0  0  -0.247775  -0.4168  0  3.956387  0
C  C88  1  0.19651729  0.92942455  0.23483776  1  0  -0.341026  0  3.728945  0  0  -0.418944  0  3.964454  0  0  -0.421572  0  3.975623  0  0  -0.247787  -0.416781  0  3.956451  0
C  C89  1  0.30348253  0.76516208  0.07057489  1  0  -0.340985  0  3.728824  0  0  -0.418918  0  3.964335  0  0  -0.421547  0  3.975505  0  0  -0.247751  -0.416755  0  3.956332  0
C  C90  1  0.01773652  0.41788872  0.74925861  1  0  0.614449  0  3.955821  0  0  0.569195  0  4.239783  0  0  0.603607  0  4.234997  0  0  0.184549  0.545957  0  4.242059  0
C  C91  1  0.48226041  0.25074191  0.58210747  1  0  0.614475  0  3.95587  0  0  0.569231  0  4.239825  0  0  0.603642  0  4.235042  0  0  0.184573  0.545992  0  4.242102  0
C  C92  1  0.98226087  0.58210954  0.25074389  1  0  0.614451  0  3.955943  0  0  0.569222  0  4.239875  0  0  0.603635  0  4.235089  0  0  0.184577  0.545982  0  4.242152  0
C  C93  1  0.51774052  0.74925809  0.41789017  1  0  0.614467  0  3.955824  0  0  0.569229  0  4.239766  0  0  0.603643  0  4.234983  0  0  0.184585  0.545991  0  4.242042  0
C  C94  1  0.15923198  0.44658661  0.82476931  1  0  -0.069629  0  3.770873  0  0  -0.044911  0  4.0011  0  0  -0.053958  0  4.024616  0  0  -0.02204  -0.038995  0  3.985434  0
C  C95  1  0.34076452  0.17523045  0.55340681  1  0  -0.06975  0  3.770947  0  0  -0.04506  0  4.001209  0  0  -0.054109  0  4.024728  0  0  -0.022097  -0.039144  0  3.985545  0
C  C96  1  0.84076562  0.55341250  0.17523508  1  0  -0.069721  0  3.771037  0  0  -0.045028  0  4.001291  0  0  -0.054078  0  4.02481  0  0  -0.022082  -0.039111  0  3.985624  0
C  C97  1  0.65923620  0.82476869  0.44658974  1  0  -0.069741  0  3.770888  0  0  -0.04504  0  4.001137  0  0  -0.054092  0  4.024657  0  0  -0.022086  -0.039125  0  3.985474  0
C  C98  1  0.27909139  0.46431576  0.77748665  1  0  -0.05725  0  3.751787  0  0  -0.085654  0  4.006995  0  0  -0.084404  0  4.02738  0  0  -0.085818  -0.086409  0  3.993014  0
C  C99  1  0.22090748  0.22251500  0.53568304  1  0  -0.057417  0  3.751961  0  0  -0.0858  0  4.007154  0  0  -0.084553  0  4.02754  0  0  -0.085916  -0.086556  0  3.993173  0
C  C100  1  0.72090805  0.53568248  0.22251609  1  0  -0.057447  0  3.751889  0  0  -0.085829  0  4.007087  0  0  -0.084582  0  4.027474  0  0  -0.085959  -0.086584  0  3.993105  0
C  C101  1  0.77909342  0.77748499  0.46431787  1  0  -0.057294  0  3.751817  0  0  -0.085685  0  4.007015  0  0  -0.084435  0  4.027399  0  0  -0.085879  -0.086438  0  3.993034  0
C  C102  1  0.41143234  0.48450082  0.84532832  1  0  -0.12029  0  3.737457  0  0  -0.138834  0  3.986935  0  0  -0.143025  0  4.007787  0  0  -0.095563  -0.135447  0  3.972303  0
C  C103  1  0.08856652  0.15467450  0.51550357  1  0  -0.120159  0  3.737358  0  0  -0.138694  0  3.986817  0  0  -0.142885  0  4.007673  0  0  -0.095541  -0.135306  0  3.972183  0
C  C104  1  0.58856838  0.51550263  0.15467679  1  0  -0.120181  0  3.737325  0  0  -0.138668  0  3.9868  0  0  -0.142858  0  4.007655  0  0  -0.09551  -0.135281  0  3.972168  0
C  C105  1  0.91143461  0.84532637  0.48449597  1  0  -0.120222  0  3.737333  0  0  -0.138765  0  3.986789  0  0  -0.142955  0  4.007645  0  0  -0.095553  -0.135378  0  3.972162  0
C  C106  1  0.42950453  0.49025890  0.96411867  1  0  0.051559  0  3.778853  0  0  0.065352  0  4.00856  0  0  0.067081  0  4.031135  0  0  -0.006141  0.064099  0  3.993111  0
C  C107  1  0.07049550  0.03588473  0.50974371  1  0  0.051609  0  3.778848  0  0  0.065391  0  4.008531  0  0  0.067119  0  4.031102  0  0  -0.006088  0.064136  0  3.993091  0
C  C108  1  0.57049780  0.50974279  0.03588699  1  0  0.051588  0  3.778752  0  0  0.065355  0  4.0085  0  0  0.067083  0  4.031071  0  0  -0.006136  0.0641  0  3.993055  0
C  C109  1  0.92950357  0.96411614  0.49025722  1  0  0.051532  0  3.77884  0  0  0.065365  0  4.008475  0  0  0.067092  0  4.031047  0  0  -0.006136  0.064111  0  3.99303  0
C  C110  1  0.30807584  0.47731524  0.01163136  1  0  -0.114177  0  3.739768  0  0  -0.129562  0  3.984171  0  0  -0.133217  0  4.004054  0  0  -0.08927  -0.127559  0  3.970952  0
C  C111  1  0.19192414  0.98836924  0.52268239  1  0  -0.114266  0  3.739876  0  0  -0.129663  0  3.984297  0  0  -0.133311  0  4.004187  0  0  -0.089277  -0.127685  0  3.971069  0
C  C112  1  0.69192731  0.52268557  0.98837416  1  0  -0.11431  0  3.739982  0  0  -0.129725  0  3.984437  0  0  -0.133375  0  4.004326  0  0  -0.089279  -0.127727  0  3.971216  0
C  C113  1  0.80807371  0.01163079  0.47731570  1  0  -0.114267  0  3.739908  0  0  -0.129674  0  3.984302  0  0  -0.133323  0  4.004188  0  0  -0.08928  -0.127675  0  3.971084  0
C  C114  1  0.17551471  0.45502665  0.94325606  1  0  -0.054698  0  3.733701  0  0  -0.078316  0  3.980975  0  0  -0.076563  0  3.999204  0  0  -0.080005  -0.079445  0  3.968107  0
C  C115  1  0.32448494  0.05674407  0.54496691  1  0  -0.054547  0  3.733558  0  0  -0.078136  0  3.980844  0  0  -0.07638  0  3.999063  0  0  -0.079971  -0.079269  0  3.96799  0
C  C116  1  0.82448800  0.54497243  0.05674894  1  0  -0.05454  0  3.733592  0  0  -0.078124  0  3.980875  0  0  -0.076368  0  3.999095  0  0  -0.079968  -0.079254  0  3.968009  0
C  C117  1  0.67551496  0.94325594  0.45502978  1  0  -0.054597  0  3.733664  0  0  -0.078203  0  3.980953  0  0  -0.076447  0  3.999175  0  0  -0.079982  -0.079333  0  3.968089  0
N  N118  1  0.74977958  0.57005886  0.69002140  1  0  -0.418084  0  3.212531  0  0  -0.342686  0  3.506852  0  0  -0.366487  0  3.520469  0  0  -0.350946  -0.326379  0  3.496762  0
N  N119  1  0.75021997  0.30997907  0.42994215  1  0  -0.418107  0  3.212535  0  0  -0.342675  0  3.506827  0  0  -0.366478  0  3.520449  0  0  -0.350916  -0.326367  0  3.496737  0
N  N120  1  0.25021825  0.42994114  0.30997997  1  0  -0.418162  0  3.212502  0  0  -0.342766  0  3.506824  0  0  -0.366568  0  3.520446  0  0  -0.350946  -0.326458  0  3.496736  0
N  N121  1  0.24978256  0.69001916  0.57005849  1  0  -0.418075  0  3.212539  0  0  -0.342653  0  3.506847  0  0  -0.366454  0  3.520467  0  0  -0.350924  -0.326346  0  3.49676  0
N  N122  1  0.67947175  0.74148549  0.71751572  1  0  -0.278007  0  2.861612  0  0  -0.277467  0  3.133547  0  0  -0.286464  0  3.148399  0  0  -0.22055  -0.271142  0  3.124283  0
N  N123  1  0.82053034  0.28248332  0.25851634  1  0  -0.277982  0  2.861622  0  0  -0.277427  0  3.133536  0  0  -0.286431  0  3.148391  0  0  -0.220539  -0.271103  0  3.124269  0
N  N124  1  0.32052608  0.25851452  0.28248564  1  0  -0.278053  0  2.861605  0  0  -0.277515  0  3.133528  0  0  -0.286519  0  3.148381  0  0  -0.220566  -0.271191  0  3.124263  0
N  N125  1  0.17947138  0.71751579  0.74148361  1  0  -0.277943  0  2.861547  0  0  -0.277395  0  3.133478  0  0  -0.286393  0  3.148331  0  0  -0.220575  -0.271072  0  3.124213  0
N  N126  1  0.81509779  0.75692817  0.77132607  1  0  0.052614  0  3.545465  0  0  0.175191  0  3.728585  0  0  0.165427  0  3.751235  0  0  -0.127694  0.180748  0  3.71479  0
N  N127  1  0.68490194  0.22867669  0.24307144  1  0  0.052704  0  3.545543  0  0  0.175273  0  3.728619  0  0  0.16554  0  3.751215  0  0  -0.127593  0.180832  0  3.714823  0
N  N128  1  0.18489962  0.24307011  0.22867313  1  0  0.052688  0  3.545349  0  0  0.175273  0  3.728438  0  0  0.165538  0  3.751035  0  0  -0.127618  0.180832  0  3.714643  0
N  N129  1  0.31509999  0.77132329  0.75692878  1  0  0.052564  0  3.545406  0  0  0.175147  0  3.728482  0  0  0.16539  0  3.751116  0  0  -0.127599  0.180705  0  3.714685  0
O  O130  1  0.00641316  0.41973265  0.64392207  1  0  -0.650013  0  1.932415  0  0  -0.59228  0  2.169637  0  0  -0.620753  0  2.161832  0  0  -0.338298  -0.572105  0  2.174294  0
O  O131  1  0.49358717  0.35607912  0.58026750  1  0  -0.64996  0  1.932458  0  0  -0.592237  0  2.169701  0  0  -0.620708  0  2.161898  0  0  -0.338293  -0.572061  0  2.174359  0
O  O132  1  0.99358897  0.58026819  0.35608087  1  0  -0.649959  0  1.932524  0  0  -0.592245  0  2.169776  0  0  -0.620719  0  2.161971  0  0  -0.338277  -0.57207  0  2.174433  0
O  O133  1  0.50641375  0.64392088  0.41973178  1  0  -0.649997  0  1.932419  0  0  -0.592272  0  2.169648  0  0  -0.620745  0  2.161844  0  0  -0.338317  -0.572096  0  2.174307  0
O  O134  1  0.91087213  0.39241035  0.79355828  1  0  -0.641248  0  1.952  0  0  -0.576092  0  2.19091  0  0  -0.605423  0  2.181438  0  0  -0.335951  -0.555389  0  2.196236  0
O  O135  1  0.58912416  0.20644059  0.60758784  1  0  -0.641286  0  1.952099  0  0  -0.576118  0  2.190978  0  0  -0.605456  0  2.181513  0  0  -0.335957  -0.555415  0  2.196303  0
O  O136  1  0.08912324  0.60758795  0.20644068  1  0  -0.641295  0  1.952063  0  0  -0.576138  0  2.190952  0  0  -0.605462  0  2.181464  0  0  -0.335973  -0.555434  0  2.196278  0
O  O137  1  0.41087676  0.79355941  0.39241061  1  0  -0.641271  0  1.952055  0  0  -0.576116  0  2.190956  0  0  -0.605445  0  2.181474  0  0  -0.33597  -0.555413  0  2.196281  0
