# generated using pymatgen
data_Zn2H17C30N3O10
_symmetry_space_group_name_H-M   'P 1'
_cell_length_a   9.74128354
_cell_length_b   11.04399742
_cell_length_c   16.08627889
_cell_angle_alpha   85.75346335
_cell_angle_beta   90.51790183
_cell_angle_gamma   90.53048156
_symmetry_Int_Tables_number   1
_chemical_formula_structural   Zn2H17C30N3O10
_chemical_formula_sum   'Zn2 H17 C30 N3 O10'
_cell_volume   1725.71986357
_cell_formula_units_Z   1
loop_
 _symmetry_equiv_pos_site_id
 _symmetry_equiv_pos_as_xyz
  1  'x, y, z'
loop_
 _atom_site_type_symbol
 _atom_site_label
 _atom_site_symmetry_multiplicity
 _atom_site_fract_x
 _atom_site_fract_y
 _atom_site_fract_z
 _atom_site_occupancy
 _atom_site_pbe_bader_charge
 _atom_site_pbe_bader_spin_density
 _atom_site_pbe_cm5_charge
 _atom_site_pbe_ddec_charge
 _atom_site_pbe_ddec_spin_density
 _atom_site_pbe_ddec_sum_bond_order
 _atom_site_pbe_magmom
Zn  Zn0  1  0.63822591  0.48898872  0.50244436  1  1.27948  0  0.665942  0.807889  0  2.442627  0
Zn  Zn1  1  0.35374872  0.48651657  0.49977460  1  1.284277  0  0.666317  0.813807  0  2.436062  0
H  H2  1  0.37577285  0.71627465  0.02469427  1  0.116074  0  0.114544  0.11813  0  0.971341  0
H  H3  1  0.25899738  0.51385610  0.95005294  1  0.09385  0  0.110826  0.104374  0  0.974676  0
H  H4  1  0.38714423  0.35463941  0.07458823  1  0.066134  0  0.108293  0.099048  0  0.979924  0
H  H5  1  0.62126713  0.34444937  0.97045158  1  0.08228  0  0.111522  0.10509  0  0.973209  0
H  H6  1  0.73780277  0.54754109  0.04515733  1  0.123291  0  0.11197  0.114052  0  0.975306  0
H  H7  1  0.27628638  0.87401944  0.48810387  1  0.080867  0  0.098787  0.102757  0  1.011807  0
H  H8  1  0.27641120  0.09998615  0.48025663  1  0.048009  0  0.1  0.105642  0  1.004883  0
H  H9  1  0.82630011  0.10410682  0.47182157  1  0.02069  0  0.09279  0.100427  0  0.987594  0
H  H10  1  0.80011582  0.10272450  0.58158329  1  0.047491  0  0.094477  0.10267  0  0.987157  0
H  H11  1  0.82775277  0.87509176  0.48311572  1  0.04381  0  0.088574  0.092084  0  1.005932  0
H  H12  1  0.79706583  0.87445219  0.59228495  1  0.059169  0  0.100371  0.113184  0  0.974204  0
H  H13  1  0.12632619  0.37614466  0.61227787  1  0.164415  0  0.139071  0.12408  0  0.962828  0
H  H14  1  0.86691855  0.37861502  0.61349276  1  0.153701  0  0.138538  0.121976  0  0.96636  0
H  H15  1  0.86182203  0.58499472  0.31246851  1  0.121649  0  0.112192  0.139094  0  0.971179  0
H  H16  1  0.86642500  0.71592905  0.37099527  1  0.066591  0  0.112559  0.133569  0  0.971269  0
H  H17  1  0.12433985  0.58353102  0.31143230  1  0.097487  0  0.112873  0.138817  0  0.969742  0
H  H18  1  0.12779010  0.71401752  0.37038416  1  0.08168  0  0.113767  0.136185  0  0.964736  0
C  C19  1  0.49361040  0.72227064  0.50836532  1  1.500948  0  0.216482  0.600345  0  4.176046  0
C  C20  1  0.49799449  0.52651513  0.33658490  1  1.680189  0  0.216863  0.662899  0  4.258806  0
C  C21  1  0.49351173  0.25377083  0.49438459  1  1.502505  0  0.215849  0.600848  0  4.171556  0
C  C22  1  0.49850655  0.46811864  0.66526456  1  1.694969  0  0.219434  0.66619  0  4.243952  0
C  C23  1  0.55867132  0.62559170  0.95937752  1  0.308879  0  0.096283  0.055449  0  3.626033  0
C  C24  1  0.42855669  0.63223266  0.01360276  1  -0.027145  0  -0.06238  -0.11074  0  3.612254  0
C  C25  1  0.49959604  0.54483437  0.24645638  1  0.206435  0  -0.053869  -0.195524  0  4.003752  0
C  C26  1  0.49663157  0.48069117  0.75426050  1  0.206648  0  -0.039235  -0.162515  0  3.961588  0
C  C27  1  0.63114226  0.53773500  0.02500695  1  -0.051146  0  -0.065  -0.112765  0  3.620391  0
C  C28  1  0.50067853  0.54382048  0.08291155  1  0.127371  0  0.012134  0.135701  0  3.787591  0
C  C29  1  0.56627380  0.42621824  0.98425985  1  -0.006646  0  -0.062689  -0.068321  0  3.620726  0
C  C30  1  0.49403815  0.51298325  0.91457197  1  0.084522  0  0.021561  0.112858  0  3.773568  0
C  C31  1  0.43596358  0.43172695  0.03964857  1  -0.019865  0  -0.065377  -0.072078  0  3.614238  0
C  C32  1  0.36475339  0.52030083  0.97262950  1  -0.040791  0  -0.06473  -0.071337  0  3.622132  0
C  C33  1  0.50115427  0.55088327  0.17048071  1  -0.52996  0  -0.044873  -0.071337  0  4.108217  0
C  C34  1  0.49533092  0.49757842  0.82823165  1  -0.4754  0  -0.041561  -0.067762  0  4.099682  0
C  C35  1  0.61458060  0.92497353  0.51485524  1  -0.06223  0  -0.005145  0.061383  0  3.883708  0
C  C36  1  0.49451258  0.85720146  0.50646928  1  0.025748  0  -0.013759  -0.072697  0  3.97766  0
C  C37  1  0.37237112  0.92416472  0.49414392  1  0.020696  0  -0.089191  -0.106216  0  4.002557  0
C  C38  1  0.37242287  0.05074315  0.48981425  1  -0.072891  0  -0.08995  -0.104805  0  3.997334  0
C  C39  1  0.49466489  0.11870917  0.49776435  1  0.041536  0  -0.013823  -0.073769  0  3.975098  0
C  C40  1  0.61467818  0.05181410  0.51045746  1  0.072823  0  -0.004632  0.062879  0  3.881479  0
C  C41  1  0.76851452  0.06073745  0.52451131  1  0.035317  0  -0.154101  -0.198966  0  3.894346  0
C  C42  1  0.76806607  0.91713169  0.53083038  1  -0.082419  0  -0.151572  -0.195049  0  3.889372  0
C  C43  1  0.06709539  0.54548325  0.44311715  1  0.589438  0  0.148601  0.199574  0  3.859997  0
C  C44  1  0.06794820  0.42529832  0.56268344  1  0.459726  0  0.06888  0.046028  0  3.859774  0
C  C45  1  0.92468618  0.42662645  0.56335593  1  0.456943  0  0.069856  0.047818  0  3.861054  0
C  C46  1  0.92397105  0.54672715  0.44371687  1  0.546535  0  0.148458  0.200221  0  3.861323  0
C  C47  1  0.91341124  0.62735539  0.36394974  1  -0.052974  0  -0.137223  -0.229727  0  3.822987  0
C  C48  1  0.07695709  0.62619114  0.36340210  1  0.00294  0  -0.13732  -0.228086  0  3.822699  0
N  N49  1  0.14246547  0.48559211  0.50140258  1  -1.218385  0  -0.285879  -0.175793  0  3.463016  0
N  N50  1  0.84938597  0.48825186  0.50278662  1  -1.213516  0  -0.286521  -0.177842  0  3.465826  0
N  N51  1  0.62316585  0.72774963  0.91079023  1  0.36719  0  0.052656  0.513624  0  4.232403  0
O  O52  1  0.61039828  0.67087377  0.50814452  1  -1.15418  0  -0.314113  -0.539155  0  2.316968  0
O  O53  1  0.37730143  0.66830421  0.50912997  1  -1.16089  0  -0.319628  -0.548527  0  2.329474  0
O  O54  1  0.61444224  0.51554677  0.37281116  1  -1.142805  0  -0.30921  -0.54215  0  2.272016  0
O  O55  1  0.38056534  0.52107712  0.37074946  1  -1.150787  0  -0.309674  -0.541501  0  2.263533  0
O  O56  1  0.61001828  0.30710329  0.49767572  1  -1.15954  0  -0.315297  -0.541508  0  2.321897  0
O  O57  1  0.37729976  0.30618260  0.48913733  1  -1.16338  0  -0.321474  -0.549416  0  2.326226  0
O  O58  1  0.61633579  0.46883617  0.63168040  1  -1.145581  0  -0.312584  -0.542773  0  2.254615  0
O  O59  1  0.38242691  0.45957236  0.62905480  1  -1.14388  0  -0.313146  -0.547662  0  2.253835  0
O  O60  1  0.74757492  0.71978917  0.89636847  1  -0.442948  0  -0.150276  -0.348354  0  1.841133  0
O  O61  1  0.54727259  0.81217346  0.88486276  1  -0.444944  0  -0.146237  -0.342322  0  1.841683  0
