# generated using pymatgen
data_Er2H20C28N2O17
_symmetry_space_group_name_H-M   'P 1'
_cell_length_a   10.22556893
_cell_length_b   12.02330698
_cell_length_c   12.97010000
_cell_angle_alpha   74.71491327
_cell_angle_beta   76.27356012
_cell_angle_gamma   71.31151314
_symmetry_Int_Tables_number   1
_chemical_formula_structural   Er2H20C28N2O17
_chemical_formula_sum   'Er4 H40 C56 N4 O34'
_cell_volume   1436.58012883
_cell_formula_units_Z   2
loop_
 _symmetry_equiv_pos_site_id
 _symmetry_equiv_pos_as_xyz
  1  'x, y, z'
loop_
 _atom_site_type_symbol
 _atom_site_label
 _atom_site_symmetry_multiplicity
 _atom_site_fract_x
 _atom_site_fract_y
 _atom_site_fract_z
 _atom_site_occupancy
 _atom_site_hle17_bader_spin_density
 _atom_site_hle17_ddec_charge
 _atom_site_hle17_ddec_spin_density
 _atom_site_hle17_ddec_sum_bond_order
 _atom_site_hle17_magmom
 _atom_site_hse06_10hf_bader_spin_density
 _atom_site_hse06_10hf_ddec_charge
 _atom_site_hse06_10hf_ddec_spin_density
 _atom_site_hse06_10hf_ddec_sum_bond_order
 _atom_site_hse06_10hf_magmom
 _atom_site_hse06_bader_spin_density
 _atom_site_hse06_ddec_charge
 _atom_site_hse06_ddec_spin_density
 _atom_site_hse06_ddec_sum_bond_order
 _atom_site_hse06_magmom
 _atom_site_pbe_bader_charge
 _atom_site_pbe_bader_spin_density
 _atom_site_pbe_cm5_charge
 _atom_site_pbe_ddec_charge
 _atom_site_pbe_ddec_spin_density
 _atom_site_pbe_ddec_sum_bond_order
 _atom_site_pbe_magmom
Er  Er0  1  0.80342598  0.28001078  0.94866745  1  0  2.249136  0  1.610007  0  0  2.103592  0  2.089739  0  0  2.239123  0  1.886831  0  2.179544  0  1.493713  2.068512  0  2.119014  0
Er  Er1  1  0.19657299  0.71998889  0.05133229  1  0  2.249141  0  1.610021  0  0  2.103619  0  2.089718  0  0  2.239124  0  1.886843  0  2.17951  0  1.49372  2.068538  0  2.119002  0
Er  Er2  1  0.20815682  0.21936710  0.10654836  1  0  2.2353  0  1.623896  0  0  2.088051  0  2.10421  0  0  2.22399  0  1.901151  0  2.176527  0  1.490297  2.050641  0  2.135337  0
Er  Er3  1  0.79184387  0.78063347  0.89345083  1  0  2.235329  0  1.623855  0  0  2.088072  0  2.104174  0  0  2.224001  0  1.901115  0  2.176536  0  1.490328  2.050653  0  2.135309  0
H  H4  1  0.68276695  0.45956070  0.77053566  1  0  0.437322  0  0.865653  0  0  0.40524  0  0.93084  0  0  0.417345  0  0.91356  0  0.65653  0  0.292387  0.396709  0  0.943211  0
H  H5  1  0.31723374  0.54043987  0.22946431  1  0  0.43727  0  0.865716  0  0  0.405182  0  0.930914  0  0  0.417287  0  0.913633  0  0.656528  0  0.292358  0.396654  0  0.943281  0
H  H6  1  0.68888789  0.53238262  0.85796376  1  0  0.440702  0  0.859795  0  0  0.410399  0  0.921916  0  0  0.422294  0  0.904818  0  0.642539  0  0.299144  0.40227  0  0.933712  0
H  H7  1  0.31111438  0.46761615  0.14203712  1  0  0.440694  0  0.859793  0  0  0.410386  0  0.921926  0  0  0.422276  0  0.904839  0  0.642536  0  0.299155  0.402254  0  0.933726  0
H  H8  1  0.89024241  0.42080808  0.07058997  1  0  0.448803  0  0.845645  0  0  0.416371  0  0.911561  0  0  0.427098  0  0.896162  0  0.653476  0  0.305763  0.409038  0  0.922269  0
H  H9  1  0.10975656  0.57919159  0.92940977  1  0  0.448801  0  0.845648  0  0  0.416365  0  0.911568  0  0  0.427092  0  0.896171  0  0.653468  0  0.305755  0.409032  0  0.922276  0
H  H10  1  0.73973724  0.49446317  0.04904937  1  0  0.453095  0  0.807032  0  0  0.429645  0  0.867681  0  0  0.438974  0  0.854219  0  0.63039  0  0.322977  0.423388  0  0.876211  0
H  H11  1  0.26026273  0.50553650  0.95095017  1  0  0.453138  0  0.806977  0  0  0.429692  0  0.867612  0  0  0.439019  0  0.854153  0  0.630388  0  0.322994  0.423434  0  0.876143  0
H  H12  1  0.12524260  0.03827550  0.03982193  1  0  0.450993  0  0.828501  0  0  0.423303  0  0.892488  0  0  0.433302  0  0.878188  0  0.650206  0  0.31619  0.41638  0  0.902607  0
H  H13  1  0.87475708  0.96172507  0.96017745  1  0  0.450992  0  0.828496  0  0  0.423299  0  0.892494  0  0  0.433302  0  0.878188  0  0.650569  0  0.31617  0.416375  0  0.902614  0
H  H14  1  0.28481997  0.99197471  0.03167554  1  0  0.447866  0  0.839531  0  0  0.420692  0  0.898041  0  0  0.431838  0  0.88203  0  0.654956  0  0.309748  0.413054  0  0.90921  0
H  H15  1  0.71517929  0.00802406  0.96832513  1  0  0.447779  0  0.839674  0  0  0.42064  0  0.898094  0  0  0.431786  0  0.882083  0  0.654966  0  0.309738  0.413006  0  0.90925  0
H  H16  1  0.02587929  0.74627359  0.41137092  1  0  0.10435  0  0.957096  0  0  0.115493  0  1.017351  0  0  0.11888  0  1.015035  0  0.110437  0  0.107079  0.113134  0  1.018842  0
H  H17  1  0.97412111  0.25372787  0.58863119  1  0  0.104347  0  0.95711  0  0  0.115512  0  1.017343  0  0  0.118899  0  1.015033  0  0.11042  0  0.107101  0.113155  0  1.018832  0
H  H18  1  0.85735349  0.81850449  0.57334936  1  0  0.117681  0  0.968729  0  0  0.125041  0  1.030608  0  0  0.129487  0  1.02732  0  0.132329  0  0.107328  0.121916  0  1.032971  0
H  H19  1  0.14264692  0.18149697  0.42665044  1  0  0.117698  0  0.968628  0  0  0.125037  0  1.030542  0  0  0.129483  0  1.027255  0  0.132319  0  0.107343  0.12191  0  1.032906  0
H  H20  1  0.69770440  0.02646227  0.54470919  1  0  0.107129  0  0.960144  0  0  0.115469  0  1.024356  0  0  0.118487  0  1.022975  0  0.120812  0  0.105645  0.113272  0  1.025383  0
H  H21  1  0.30229269  0.97354009  0.45528947  1  0  0.107099  0  0.960183  0  0  0.115458  0  1.024375  0  0  0.118469  0  1.023002  0  0.120817  0  0.105646  0.113264  0  1.025399  0
H  H22  1  0.35981044  0.32127725  0.31241910  1  0  0.144089  0  0.937964  0  0  0.153964  0  0.994788  0  0  0.158192  0  0.993307  0  0.121626  0  0.119828  0.151126  0  0.995695  0
H  H23  1  0.64018853  0.67872242  0.68758141  1  0  0.144081  0  0.93797  0  0  0.153985  0  0.994771  0  0  0.158215  0  0.993288  0  0.121647  0  0.119845  0.151147  0  0.995676  0
H  H24  1  0.53368711  0.12129274  0.34100408  1  0  0.0905  0  0.95407  0  0  0.100832  0  1.017453  0  0  0.103093  0  1.015697  0  0.118019  0  0.123614  0.099075  0  1.018843  0
H  H25  1  0.46631287  0.87870693  0.65899392  1  0  0.090515  0  0.954101  0  0  0.10086  0  1.017466  0  0  0.103117  0  1.015713  0  0.118221  0  0.123634  0.099105  0  1.018852  0
H  H26  1  0.83355007  0.26381557  0.38349676  1  0  0.100228  0  0.92817  0  0  0.111443  0  0.987813  0  0  0.113705  0  0.985903  0  0.124976  0  0.129092  0.10984  0  0.989074  0
H  H27  1  0.16645019  0.73618320  0.61650218  1  0  0.100236  0  0.92815  0  0  0.111453  0  0.987785  0  0  0.113718  0  0.985874  0  0.125275  0  0.129093  0.10985  0  0.989045  0
H  H28  1  0.67060980  0.47046542  0.36207961  1  0  0.108136  0  1.012855  0  0  0.116006  0  1.078846  0  0  0.117767  0  1.081787  0  0.107554  0  0.101613  0.114778  0  1.07692  0
H  H29  1  0.32939075  0.52953245  0.63792335  1  0  0.108185  0  1.012817  0  0  0.116037  0  1.078826  0  0  0.117803  0  1.081755  0  0.107553  0  0.101609  0.11481  0  1.0769  0
H  H30  1  0.99085184  0.63334302  0.56863547  1  0  0.098895  0  0.975835  0  0  0.107903  0  1.041748  0  0  0.110787  0  1.039994  0  0.102587  0  0.107126  0.105899  0  1.042896  0
H  H31  1  0.00914914  0.36665665  0.43136235  1  0  0.098829  0  0.975861  0  0  0.107854  0  1.041764  0  0  0.110726  0  1.040026  0  0.102591  0  0.1071  0.10585  0  1.042913  0
H  H32  1  0.17418301  0.51425472  0.44190009  1  0  0.11494  0  0.93543  0  0  0.125045  0  0.99102  0  0  0.128516  0  0.989335  0  0.116856  0  0.112172  0.122551  0  0.992333  0
H  H33  1  0.82581998  0.48574495  0.55809966  1  0  0.114946  0  0.935402  0  0  0.12506  0  0.990987  0  0  0.128529  0  0.989304  0  0.116852  0  0.112165  0.122565  0  0.992301  0
H  H34  1  0.34105098  0.32551573  0.52086725  1  0  0.096011  0  0.979071  0  0  0.104431  0  1.04513  0  0  0.106676  0  1.045397  0  0.121701  0  0.103284  0.102801  0  1.04507  0
H  H35  1  0.65895101  0.67448393  0.47913500  1  0  0.096051  0  0.979063  0  0  0.104481  0  1.045097  0  0  0.106725  0  1.045367  0  0.121699  0  0.103314  0.102851  0  1.045037  0
H  H36  1  0.40072621  0.93933715  0.82513256  1  0  0.131335  0  0.953124  0  0  0.139411  0  1.015536  0  0  0.143526  0  1.013428  0  0.141069  0  0.115721  0.13642  0  1.017042  0
H  H37  1  0.59927247  0.06066341  0.17486855  1  0  0.131318  0  0.95317  0  0  0.139388  0  1.015588  0  0  0.143507  0  1.013478  0  0.141058  0  0.115724  0.136402  0  1.017089  0
H  H38  1  0.21567278  0.12720294  0.78882433  1  0  0.105667  0  0.942669  0  0  0.113956  0  1.006059  0  0  0.11649  0  1.00354  0  0.142003  0  0.129832  0.112209  0  1.007466  0
H  H39  1  0.78432590  0.87279762  0.21117832  1  0  0.105656  0  0.942692  0  0  0.113909  0  1.006129  0  0  0.116438  0  1.003616  0  0.142022  0  0.129807  0.112162  0  1.007536  0
H  H40  1  0.50628089  0.32855334  0.67271573  1  0  0.110325  0  0.961234  0  0  0.115195  0  1.028361  0  0  0.119781  0  1.023362  0  0.213936  0  0.124685  0.11177  0  1.031896  0
H  H41  1  0.49372038  0.67144543  0.32728456  1  0  0.110311  0  0.961264  0  0  0.115181  0  1.028392  0  0  0.119765  0  1.023398  0  0.213927  0  0.12467  0.111756  0  1.031928  0
H  H42  1  0.70442641  0.14732901  0.70412505  1  0  0.141774  0  0.932784  0  0  0.151997  0  0.988236  0  0  0.155802  0  0.987074  0  0.103314  0  0.118123  0.149601  0  0.988608  0
H  H43  1  0.29557385  0.85266976  0.29587389  1  0  0.141761  0  0.932773  0  0  0.15199  0  0.98822  0  0  0.155793  0  0.98706  0  0.103246  0  0.118127  0.149593  0  0.988592  0
C  C44  1  0.90165326  0.12390256  0.18291346  1  0  0.746122  0  3.862573  0  0  0.695584  0  4.162195  0  0  0.733492  0  4.150814  0  1.636176  0  0.236618  0.670386  0  4.172273  0
C  C45  1  0.09834643  0.87609801  0.81708360  1  0  0.745956  0  3.862565  0  0  0.695279  0  4.162419  0  0  0.733176  0  4.151064  0  1.636167  0  0.236524  0.670094  0  4.172477  0
C  C46  1  0.05932593  0.85735218  0.20906715  1  0  0.625895  0  3.95005  0  0  0.577499  0  4.247123  0  0  0.609993  0  4.248033  0  1.559696  0  0.192015  0.554969  0  4.251294  0
C  C47  1  0.94067433  0.14264659  0.79093333  1  0  0.62585  0  3.950085  0  0  0.577453  0  4.247166  0  0  0.609945  0  4.248079  0  1.559852  0  0.191999  0.554922  0  4.251334  0
C  C48  1  0.88330589  0.03242897  0.28707251  1  0  -0.092632  0  3.640269  0  0  -0.088523  0  3.879503  0  0  -0.089376  0  3.893194  0  -0.027875  0  0.010052  -0.087621  0  3.868886  0
C  C49  1  0.11669380  0.96757159  0.71292764  1  0  -0.092692  0  3.640309  0  0  -0.088561  0  3.879643  0  0  -0.089406  0  3.893335  0  -0.027898  0  0.010016  -0.087661  0  3.869023  0
C  C50  1  0.96802557  0.91297981  0.30176369  1  0  -0.066826  0  3.719131  0  0  -0.05266  0  3.957151  0  0  -0.058771  0  3.976347  0  0.000297  0  -0.010271  -0.048102  0  3.942683  0
C  C51  1  0.03197642  0.08701986  0.69823702  1  0  -0.066747  0  3.719122  0  0  -0.052584  0  3.957155  0  0  -0.058692  0  3.97635  0  0.000144  0  -0.010241  -0.048022  0  3.942683  0
C  C52  1  0.95786670  0.83761085  0.40454543  1  0  -0.065363  0  3.723798  0  0  -0.094371  0  3.977977  0  0  -0.093614  0  3.997164  0  -0.060609  0  -0.0799  -0.094533  0  3.964403  0
C  C53  1  0.04213227  0.16238882  0.59545739  1  0  -0.065398  0  3.723864  0  0  -0.094425  0  3.97804  0  0  -0.09367  0  3.997228  0  -0.060512  0  -0.079919  -0.094586  0  3.964466  0
C  C54  1  0.86348113  0.87691144  0.49309977  1  0  -0.063721  0  3.743828  0  0  -0.076001  0  3.996501  0  0  -0.078821  0  4.015404  0  -0.009255  0  -0.088144  -0.074275  0  3.983782  0
C  C55  1  0.13651827  0.12309002  0.50690022  1  0  -0.063698  0  3.74374  0  0  -0.075972  0  3.996432  0  0  -0.078797  0  4.015339  0  -0.009374  0  -0.088165  -0.074248  0  3.983717  0
C  C56  1  0.77429620  0.99304195  0.47775904  1  0  -0.114379  0  3.730047  0  0  -0.138651  0  3.983388  0  0  -0.138574  0  4.001213  0  -0.081237  0  -0.081544  -0.138503  0  3.971405  0
C  C57  1  0.22570349  0.00695861  0.52223957  1  0  -0.114386  0  3.729988  0  0  -0.138654  0  3.983348  0  0  -0.138566  0  4.001171  0  -0.080699  0  -0.08154  -0.138505  0  3.971361  0
C  C58  1  0.78467800  0.06849017  0.37583665  1  0  0.119063  0  3.771932  0  0  0.105801  0  4.027625  0  0  0.108104  0  4.050888  0  0.281864  0  0.086046  0.104183  0  4.011678  0
C  C59  1  0.21532169  0.93151040  0.62416196  1  0  0.119051  0  3.771672  0  0  0.105744  0  4.027456  0  0  0.108045  0  4.050714  0  0.281458  0  0.086033  0.104127  0  4.01151  0
C  C60  1  0.46287506  0.31331417  0.32826747  1  0  -0.24886  0  3.675518  0  0  -0.264834  0  3.931881  0  0  -0.277263  0  3.947791  0  0.026921  0  -0.100323  -0.256662  0  3.920526  0
C  C61  1  0.53712262  0.68668639  0.67173229  1  0  -0.248805  0  3.675617  0  0  -0.264812  0  3.931959  0  0  -0.277249  0  3.947873  0  0.026914  0  -0.100312  -0.256644  0  3.920605  0
C  C62  1  0.55686330  0.20267504  0.34348097  1  0  0.098123  0  3.674804  0  0  0.053456  0  3.931419  0  0  0.065862  0  3.944391  0  0.320992  0  0.044974  0.045664  0  3.922243  0
C  C63  1  0.44313667  0.79732463  0.65651857  1  0  0.098018  0  3.674845  0  0  0.053355  0  3.931475  0  0  0.065762  0  3.944445  0  0.320784  0  0.044957  0.045564  0  3.922298  0
C  C64  1  0.72734789  0.28355869  0.36841668  1  0  0.106444  0  3.66912  0  0  0.063407  0  3.921881  0  0  0.075027  0  3.936571  0  0.304306  0  0.048169  0.055694  0  3.912138  0
C  C65  1  0.27265136  0.71644008  0.63158399  1  0  0.106413  0  3.669194  0  0  0.063396  0  3.921908  0  0  0.075001  0  3.936618  0  0.303842  0  0.048149  0.055687  0  3.912164  0
C  C66  1  0.63712627  0.39589735  0.35571772  1  0  -0.242459  0  3.700229  0  0  -0.260804  0  3.95555  0  0  -0.273714  0  3.974817  0  0.025423  0  -0.104172  -0.252402  0  3.94239  0
C  C67  1  0.36287270  0.60410232  0.64428355  1  0  -0.242529  0  3.700263  0  0  -0.260856  0  3.955567  0  0  -0.273764  0  3.974822  0  0.025552  0  -0.104132  -0.252455  0  3.942402  0
C  C68  1  0.49955143  0.41853279  0.33163191  1  0  0.437831  0  3.867391  0  0  0.421426  0  4.130117  0  0  0.446111  0  4.134655  0  0.839238  0  0.117306  0.405122  0  4.126027  0
C  C69  1  0.50044955  0.58146688  0.66836822  1  0  0.437809  0  3.867471  0  0  0.421417  0  4.13017  0  0  0.446106  0  4.134706  0  0.839428  0  0.117275  0.405115  0  4.126078  0
C  C70  1  0.52361089  0.19912623  0.99479605  1  0  0.557928  0  3.943373  0  0  0.513743  0  4.240041  0  0  0.543412  0  4.238723  0  1.60557  0  0.218812  0.493326  0  4.246643  0
C  C71  1  0.47639153  0.80087523  0.00520337  1  0  0.557865  0  3.943228  0  0  0.513701  0  4.239876  0  0  0.543362  0  4.238565  0  1.605584  0  0.218804  0.493284  0  4.246483  0
C  C72  1  0.48277856  0.31052499  0.04537274  1  0  0.559446  0  3.922209  0  0  0.51364  0  4.219484  0  0  0.543537  0  4.217744  0  1.585192  0  0.22048  0.493036  0  4.226612  0
C  C73  1  0.51722314  0.68947557  0.95462627  1  0  0.55952  0  3.922011  0  0  0.51366  0  4.219377  0  0  0.543558  0  4.217627  0  1.585238  0  0.220483  0.493054  0  4.226507  0
C  C74  1  0.12446178  0.34538172  0.87611296  1  0  0.738634  0  3.874289  0  0  0.685864  0  4.175981  0  0  0.723001  0  4.167425  0  1.633792  0  0.236559  0.661016  0  4.185449  0
C  C75  1  0.87553460  0.65461974  0.12388605  1  0  0.738505  0  3.87446  0  0  0.685732  0  4.176149  0  0  0.722871  0  4.167589  0  1.633803  0  0.236485  0.660881  0  4.185618  0
C  C76  1  0.95470074  0.59879211  0.77971630  1  0  0.653973  0  3.902874  0  0  0.603522  0  4.198501  0  0  0.636642  0  4.198571  0  1.560778  0  0.203306  0.580451  0  4.203252  0
C  C77  1  0.04529664  0.40120935  0.22028252  1  0  0.653946  0  3.902798  0  0  0.603482  0  4.198459  0  0  0.636603  0  4.198528  0  1.560949  0  0.203276  0.580414  0  4.203207  0
C  C78  1  0.14126542  0.40152325  0.75696979  1  0  -0.091172  0  3.627598  0  0  -0.085293  0  3.864583  0  0  -0.086119  0  3.877538  0  0.010479  0  0.013527  -0.084382  0  3.854647  0
C  C79  1  0.85873326  0.59847732  0.24303132  1  0  -0.091133  0  3.627622  0  0  -0.085197  0  3.86451  0  0  -0.086025  0  3.877467  0  0.010525  0  0.013545  -0.084286  0  3.854576  0
C  C80  1  0.05163345  0.51137495  0.71229821  1  0  -0.048935  0  3.686084  0  0  -0.033399  0  3.918156  0  0  -0.038768  0  3.936684  0  -0.019118  0  -0.00034  -0.029606  0  3.904881  0
C  C81  1  0.94836523  0.48862561  0.28770059  1  0  -0.04895  0  3.686166  0  0  -0.033433  0  3.918241  0  0  -0.038806  0  3.936765  0  -0.019132  0  -0.000327  -0.029643  0  3.904967  0
C  C82  1  0.06313430  0.54904150  0.59960874  1  0  -0.069903  0  3.730316  0  0  -0.09577  0  3.980094  0  0  -0.095438  0  3.999182  0  -0.062618  0  -0.074782  -0.095942  0  3.966832  0
C  C83  1  0.93686539  0.45095907  0.40038987  1  0  -0.069787  0  3.730343  0  0  -0.095654  0  3.980108  0  0  -0.095303  0  3.999195  0  -0.062418  0  -0.07473  -0.095825  0  3.966846  0
C  C84  1  0.16439974  0.48295128  0.52950679  1  0  -0.051729  0  3.744945  0  0  -0.064928  0  3.998929  0  0  -0.067021  0  4.018259  0  0.012866  0  -0.081643  -0.063474  0  3.985823  0
C  C85  1  0.83560225  0.51704839  0.47049315  1  0  -0.051755  0  3.744939  0  0  -0.064977  0  3.998958  0  0  -0.067071  0  4.01828  0  0.012673  0  -0.081647  -0.063522  0  3.985849  0
C  C86  1  0.25800778  0.37790397  0.57314788  1  0  -0.117502  0  3.73632  0  0  -0.142779  0  3.993493  0  0  -0.143581  0  4.012132  0  -0.08331  0  -0.078704  -0.142183  0  3.98094  0
C  C87  1  0.74199392  0.62209660  0.42685267  1  0  -0.117498  0  3.736253  0  0  -0.142787  0  3.993452  0  0  -0.143592  0  4.012093  0  -0.083322  0  -0.078702  -0.142189  0  3.980895  0
C  C88  1  0.24691954  0.33874956  0.68540210  1  0  0.131005  0  3.735459  0  0  0.116322  0  3.989989  0  0  0.119747  0  4.011438  0  0.286527  0  0.093018  0.114099  0  3.975014  0
C  C89  1  0.75308086  0.66125190  0.31460001  1  0  0.130887  0  3.735435  0  0  0.116197  0  3.989949  0  0  0.119624  0  4.011402  0  0.286093  0  0.092944  0.113975  0  3.974975  0
C  C90  1  0.43054218  0.02194487  0.78840877  1  0  -0.244602  0  3.669719  0  0  -0.264415  0  3.931677  0  0  -0.277126  0  3.947082  0  -0.009728  0  -0.09535  -0.255983  0  3.92039  0
C  C91  1  0.56945621  0.97805659  0.21159218  1  0  -0.244613  0  3.669747  0  0  -0.264422  0  3.931653  0  0  -0.277135  0  3.94706  0  -0.00982  0  -0.095361  -0.255992  0  3.920366  0
C  C92  1  0.32556898  0.12559042  0.76898718  1  0  0.126652  0  3.629439  0  0  0.081893  0  3.886808  0  0  0.094257  0  3.900839  0  0.344415  0  0.058333  0.074214  0  3.876506  0
C  C93  1  0.67443071  0.87441015  0.23101451  1  0  0.126635  0  3.629371  0  0  0.081891  0  3.88674  0  0  0.094251  0  3.90078  0  0.344478  0  0.058376  0.074212  0  3.876441  0
C  C94  1  0.49001110  0.23918914  0.70150860  1  0  0.105114  0  3.624174  0  0  0.061878  0  3.87917  0  0  0.07362  0  3.891098  0  0.277533  0  0.051485  0.05473  0  3.870922  0
C  C95  1  0.50999017  0.76080963  0.29849170  1  0  0.105069  0  3.624144  0  0  0.061821  0  3.879148  0  0  0.073572  0  3.891064  0  0.277506  0  0.051486  0.054672  0  3.870903  0
C  C96  1  0.59860689  0.13811125  0.71968514  1  0  -0.229595  0  3.660474  0  0  -0.248112  0  3.918328  0  0  -0.259867  0  3.933449  0  0.030861  0  -0.089387  -0.240526  0  3.907088  0
C  C97  1  0.40139380  0.86188931  0.28031328  1  0  -0.229585  0  3.660349  0  0  -0.248113  0  3.918179  0  0  -0.25987  0  3.933303  0  0.031003  0  -0.089412  -0.240527  0  3.906941  0
C  C98  1  0.57450966  0.02242289  0.76189037  1  0  0.468389  0  3.856542  0  0  0.453267  0  4.118518  0  0  0.478675  0  4.125686  0  0.804189  0  0.123537  0.436872  0  4.114629  0
C  C99  1  0.42549132  0.97757678  0.23810976  1  0  0.468465  0  3.856486  0  0  0.453385  0  4.118366  0  0  0.478793  0  4.125532  0  0.804162  0  0.123588  0.43699  0  4.11448  0
N  N100  1  0.68860370  0.18707265  0.36198430  1  0  -0.09257  0  3.604402  0  0  -0.002395  0  3.815943  0  0  -0.020001  0  3.842293  0  -1.263648  0  -0.22553  0.009269  0  3.797594  0
N  N101  1  0.31139656  0.81292612  0.63801464  1  0  -0.092452  0  3.604293  0  0  -0.002295  0  3.81588  0  0  -0.019893  0  3.842215  0  -1.263583  0  -0.225558  0.00936  0  3.797544  0
N  N102  1  0.35419498  0.23301437  0.72349180  1  0  -0.081145  0  3.572869  0  0  0.009046  0  3.78366  0  0  -0.007832  0  3.809125  0  -1.240428  0  -0.216349  0.02004  0  3.765966  0
N  N103  1  0.64580442  0.76698709  0.27650896  1  0  -0.08104  0  3.572764  0  0  0.009157  0  3.783537  0  0  -0.007719  0  3.808997  0  -1.240031  0  -0.216348  0.020152  0  3.765844  0
O  O104  1  0.81705898  0.15081684  0.11749152  1  0  -0.70362  0  1.992127  0  0  -0.659957  0  2.25185  0  0  -0.697809  0  2.235829  0  -1.17782  0  -0.375562  -0.642293  0  2.258971  0
O  O105  1  0.18294402  0.84918283  0.88250900  1  0  -0.703514  0  1.991905  0  0  -0.659804  0  2.251678  0  0  -0.697644  0  2.235648  0  -1.177792  0  -0.375498  -0.642149  0  2.2588  0
O  O106  1  0.00013307  0.17050077  0.17302692  1  0  -0.754956  0  2.061161  0  0  -0.705472  0  2.328729  0  0  -0.746504  0  2.313442  0  -1.20103  0  -0.38832  -0.686544  0  2.336664  0
O  O107  1  0.99986920  0.82949800  0.82697318  1  0  -0.754865  0  2.061211  0  0  -0.70531  0  2.32882  0  0  -0.746341  0  2.313539  0  -1.201027  0  -0.388295  -0.68639  0  2.336755  0
O  O108  1  0.04545558  0.90970902  0.11098111  1  0  -0.682053  0  1.982307  0  0  -0.626725  0  2.217616  0  0  -0.658355  0  2.207292  0  -1.175633  0  -0.345204  -0.610408  0  2.22374  0
O  O109  1  0.95454612  0.09029154  0.88901867  1  0  -0.682042  0  1.982267  0  0  -0.626684  0  2.217522  0  0  -0.65834  0  2.207246  0  -1.175632  0  -0.345194  -0.610369  0  2.223649  0
O  O110  1  0.14290890  0.75328063  0.23107170  1  0  -0.671362  0  1.984909  0  0  -0.623457  0  2.225342  0  0  -0.657583  0  2.216785  0  -1.174793  0  -0.375067  -0.606326  0  2.230122  0
O  O111  1  0.85708992  0.24671635  0.76892872  1  0  -0.671361  0  1.984989  0  0  -0.623443  0  2.225412  0  0  -0.65757  0  2.21686  0  -1.174896  0  -0.375063  -0.606311  0  2.230191  0
O  O112  1  0.41671130  0.52398637  0.31552763  1  0  -0.562629  0  1.930049  0  0  -0.508958  0  2.131497  0  0  -0.531376  0  2.123499  0  -1.15755  0  -0.306524  -0.492902  0  2.136235  0
O  O113  1  0.58329011  0.47601509  0.68447121  1  0  -0.562601  0  1.930075  0  0  -0.508951  0  2.131514  0  0  -0.531364  0  2.123517  0  -1.157737  0  -0.306515  -0.492894  0  2.136253  0
O  O114  1  0.65072398  0.16798781  0.94846493  1  0  -0.691277  0  2.113817  0  0  -0.635832  0  2.356591  0  0  -0.672377  0  2.346857  0  -1.190724  0  -0.362319  -0.618262  0  2.361273  0
O  O115  1  0.34927369  0.83201275  0.05153637  1  0  -0.691327  0  2.113528  0  0  -0.635875  0  2.356277  0  0  -0.672421  0  2.346548  0  -1.190718  0  -0.362329  -0.618302  0  2.360964  0
O  O116  1  0.43205727  0.14627791  0.00576228  1  0  -0.610773  0  2.083218  0  0  -0.565984  0  2.332463  0  0  -0.598581  0  2.324409  0  -1.15709  0  -0.351849  -0.549884  0  2.336054  0
O  O117  1  0.56793968  0.85372175  0.99423783  1  0  -0.610741  0  2.08343  0  0  -0.565929  0  2.332641  0  0  -0.598513  0  2.324587  0  -1.15711  0  -0.351818  -0.549832  0  2.336237  0
O  O118  1  0.57612721  0.36023345  0.03809473  1  0  -0.62022  0  2.064657  0  0  -0.573887  0  2.309469  0  0  -0.606631  0  2.298547  0  -1.152694  0  -0.354684  -0.558375  0  2.314659  0
O  O119  1  0.42387175  0.63976621  0.96190424  1  0  -0.620264  0  2.064433  0  0  -0.573914  0  2.30927  0  0  -0.606656  0  2.298341  0  -1.152736  0  -0.354692  -0.5584  0  2.314463  0
O  O120  1  0.35611523  0.34130377  0.09330358  1  0  -0.685889  0  2.145011  0  0  -0.626858  0  2.387304  0  0  -0.662701  0  2.376517  0  -1.191939  0  -0.35578  -0.609084  0  2.392726  0
O  O121  1  0.64388445  0.65869679  0.90669657  1  0  -0.68592  0  2.145058  0  0  -0.626882  0  2.387389  0  0  -0.662724  0  2.376599  0  -1.191962  0  -0.355792  -0.609103  0  2.392814  0
O  O122  1  0.21719865  0.33758187  0.92894422  1  0  -0.697365  0  2.036127  0  0  -0.652072  0  2.287636  0  0  -0.687203  0  2.274328  0  -1.180249  0  -0.367435  -0.634556  0  2.294354  0
O  O123  1  0.78280205  0.66241869  0.07105575  1  0  -0.697237  0  2.036312  0  0  -0.651971  0  2.28783  0  0  -0.687094  0  2.274513  0  -1.180286  0  -0.367351  -0.63445  0  2.294545  0
O  O124  1  0.02285715  0.29951175  0.91432100  1  0  -0.759112  0  2.092568  0  0  -0.708041  0  2.36744  0  0  -0.752653  0  2.355896  0  -1.195904  0  -0.396749  -0.688757  0  2.37451  0
O  O125  1  0.97714296  0.70049061  0.08567940  1  0  -0.759135  0  2.092555  0  0  -0.708016  0  2.36733  0  0  -0.752629  0  2.355786  0  -1.195857  0  -0.396769  -0.688728  0  2.3744  0
O  O126  1  0.96348802  0.58379688  0.87957811  1  0  -0.686669  0  2.030338  0  0  -0.626462  0  2.264494  0  0  -0.659145  0  2.254587  0  -1.17929  0  -0.342625  -0.609282  0  2.270519  0
O  O127  1  0.03651095  0.41620279  0.12042086  1  0  -0.686612  0  2.030219  0  0  -0.626418  0  2.264393  0  0  -0.659097  0  2.254486  0  -1.179319  0  -0.342613  -0.609243  0  2.270421  0
O  O128  1  0.86959340  0.69196701  0.73460143  1  0  -0.685748  0  1.980562  0  0  -0.64052  0  2.22827  0  0  -0.674042  0  2.217892  0  -1.17828  0  -0.367355  -0.623596  0  2.234104  0
O  O129  1  0.13040499  0.30803446  0.26539721  1  0  -0.685739  0  1.980585  0  0  -0.640498  0  2.228293  0  0  -0.674024  0  2.21792  0  -1.178412  0  -0.367342  -0.623573  0  2.234129  0
O  O130  1  0.67640273  0.92617149  0.77379845  1  0  -0.725843  0  2.036647  0  0  -0.673661  0  2.292792  0  0  -0.712915  0  2.277776  0  -1.190065  0  -0.429812  -0.655831  0  2.297572  0
O  O131  1  0.32359594  0.07382908  0.22620266  1  0  -0.725877  0  2.036623  0  0  -0.673709  0  2.292723  0  0  -0.712956  0  2.277706  0  -1.190068  0  -0.429824  -0.655877  0  2.297507  0
O  O132  1  0.73115246  0.45562894  0.83174491  1  0  -0.948655  0  1.892155  0  0  -0.899511  0  2.102376  0  0  -0.933697  0  2.061463  0  -1.287445  0  -0.67165  -0.884531  0  2.125795  0
O  O133  1  0.26884622  0.54437163  0.16825544  1  0  -0.948612  0  1.892171  0  0  -0.899469  0  2.102396  0  0  -0.933651  0  2.061483  0  -1.287443  0  -0.671661  -0.884489  0  2.125809  0
O  O134  1  0.80347450  0.41386202  0.05436025  1  0  -0.896947  0  1.865644  0  0  -0.850147  0  2.072593  0  0  -0.879316  0  2.036194  0  -1.248451  0  -0.631925  -0.837075  0  2.09199  0
O  O135  1  0.19652446  0.58613765  0.94564025  1  0  -0.896975  0  1.865609  0  0  -0.850185  0  2.07257  0  0  -0.879353  0  2.036172  0  -1.248428  0  -0.631931  -0.837114  0  2.091971  0
O  O136  1  0.20859604  0.06793681  0.02432609  1  0  -0.904371  0  1.893916  0  0  -0.859361  0  2.102466  0  0  -0.889855  0  2.065879  0  -1.271723  0  -0.640293  -0.845571  0  2.12341  0
O  O137  1  0.79140523  0.93206196  0.97567343  1  0  -0.90429  0  1.894045  0  0  -0.859316  0  2.102594  0  0  -0.88981  0  2.066001  0  -1.272082  0  -0.640264  -0.845523  0  2.123541  0
