# generated using pymatgen
data_MnH14C18(NO6)2
_symmetry_space_group_name_H-M   'P 1'
_cell_length_a   7.41932601
_cell_length_b   8.21343670
_cell_length_c   15.82511823
_cell_angle_alpha   105.00801783
_cell_angle_beta   101.01670847
_cell_angle_gamma   90.02628902
_symmetry_Int_Tables_number   1
_chemical_formula_structural   MnH14C18(NO6)2
_chemical_formula_sum   'Mn2 H28 C36 N4 O24'
_cell_volume   913.02430638
_cell_formula_units_Z   2
loop_
 _symmetry_equiv_pos_site_id
 _symmetry_equiv_pos_as_xyz
  1  'x, y, z'
loop_
 _atom_site_type_symbol
 _atom_site_label
 _atom_site_symmetry_multiplicity
 _atom_site_fract_x
 _atom_site_fract_y
 _atom_site_fract_z
 _atom_site_occupancy
 _atom_site_hle17_ddec_charge
 _atom_site_hle17_ddec_spin_density
 _atom_site_hle17_ddec_sum_bond_order
 _atom_site_hle17_magmom
 _atom_site_hse06_10hf_ddec_charge
 _atom_site_hse06_10hf_ddec_spin_density
 _atom_site_hse06_10hf_ddec_sum_bond_order
 _atom_site_hse06_10hf_magmom
 _atom_site_hse06_ddec_charge
 _atom_site_hse06_ddec_spin_density
 _atom_site_hse06_ddec_sum_bond_order
 _atom_site_hse06_magmom
 _atom_site_pbe_cm5_charge
 _atom_site_pbe_ddec_charge
 _atom_site_pbe_ddec_spin_density
 _atom_site_pbe_ddec_sum_bond_order
 _atom_site_pbe_magmom
Mn  Mn0  1  0.25006155  0.62076031  0.00001384  1  1.321445  4.80592  1.610408  4.702  1.168016  4.730016  2.10119  4.566  1.2273  4.771914  2.023413  4.623  0.608865  1.121753  4.685321  2.15826  4.509
Mn  Mn1  1  0.74993104  0.37914734  0.99998886  1  1.321433  -4.805943  1.610169  -4.702  1.16806  -4.730046  2.100971  -4.566  1.227348  -4.771941  2.023184  -4.623  0.608746  1.121796  -4.685352  2.158052  -4.509
H  H2  1  0.12445406  0.92383825  0.08099327  1  0.426891  0.000134  0.877005  0.001  0.394701  0.000863  0.942115  0.002  0.40584  0.000581  0.925863  0.001  0.295503  0.386837  0.001119  0.953547  0.002
H  H3  1  0.37535298  0.84320541  0.91923701  1  0.425792  0.000139  0.879046  0.001  0.393264  0.000874  0.944485  0.002  0.404389  0.000591  0.928267  0.001  0.294393  0.3854  0.00113  0.955914  0.002
H  H4  1  0.87557268  0.07613729  0.91897224  1  0.426783  -0.000135  0.877141  -0.001  0.394505  -0.000865  0.942387  -0.002  0.405647  -0.000583  0.92613  -0.001  0.295338  0.386642  -0.001121  0.953816  -0.002
H  H5  1  0.62464389  0.15687034  0.08083079  1  0.425903  -0.00014  0.878895  -0.001  0.39333  -0.000874  0.944437  -0.002  0.404455  -0.000591  0.928218  -0.001  0.294521  0.385465  -0.001131  0.955868  -0.002
H  H6  1  0.94786113  0.79367073  0.03910479  1  0.444305  0.000537  0.814608  0.001  0.417079  0.001313  0.884919  0.002  0.425986  0.001007  0.874312  0.002  0.318886  0.410747  0.001586  0.891802  0.002
H  H7  1  0.55202825  0.75479214  0.96104189  1  0.444368  0.000542  0.814265  0.001  0.417084  0.001322  0.884599  0.002  0.425968  0.001014  0.874326  0.002  0.318852  0.410747  0.001597  0.891476  0.002
H  H8  1  0.05221986  0.20626955  0.96088110  1  0.44394  -0.000542  0.814692  -0.001  0.41674  -0.001316  0.88495  -0.002  0.425647  -0.00101  0.874671  -0.002  0.318721  0.410408  -0.001591  0.891827  -0.002
H  H9  1  0.44789197  0.24521677  0.03901331  1  0.444421  -0.000543  0.814299  -0.001  0.41716  -0.001322  0.884558  -0.002  0.426046  -0.001014  0.874218  -0.002  0.318969  0.410825  -0.001597  0.89143  -0.002
H  H10  1  0.90460661  0.27107831  0.19310884  1  0.406359  0.00046  0.882484  0.0  0.372418  0.000432  0.964443  0.0  0.385503  0.000482  0.951047  0.0  0.303814  0.363222  0.000379  0.973739  0.0
H  H11  1  0.59511208  0.07718922  0.80670706  1  0.405263  0.000454  0.883551  0.0  0.371974  0.000427  0.964817  0.0  0.385096  0.000477  0.951379  0.0  0.303654  0.362758  0.000373  0.974133  0.0
H  H12  1  0.09538809  0.72893656  0.80689252  1  0.40618  -0.000461  0.882745  0.0  0.372347  -0.000432  0.964542  0.0  0.385433  -0.000482  0.951148  0.0  0.30381  0.363153  -0.000379  0.973829  0.0
H  H13  1  0.40490212  0.92280667  0.19328720  1  0.405264  -0.000454  0.883499  0.0  0.371905  -0.000427  0.964862  0.0  0.385024  -0.000477  0.951443  0.0  0.303639  0.36269  -0.000374  0.974175  0.0
H  H14  1  0.83103328  0.46184369  0.37812327  1  0.302424  -8e-06  0.891389  0.0  0.281272  -9e-06  0.961378  0.0  0.289276  -1e-05  0.955239  0.0  0.319709  0.275568  -7e-06  0.965845  0.0
H  H15  1  0.66919528  0.08337438  0.62182557  1  0.301946  -7e-06  0.891971  0.0  0.280695  -8e-06  0.961949  0.0  0.288661  -1e-05  0.955857  0.0  0.319529  0.275  -6e-06  0.966419  0.0
H  H16  1  0.16895705  0.53814334  0.62186263  1  0.30238  7e-06  0.891629  0.0  0.281264  9e-06  0.961539  0.0  0.28927  1e-05  0.955398  0.0  0.319663  0.275562  7e-06  0.966011  0.0
H  H17  1  0.33081090  0.91662533  0.37817480  1  0.301868  6e-06  0.892126  0.0  0.280634  9e-06  0.962083  0.0  0.288595  1e-05  0.955999  0.0  0.319531  0.274945  6e-06  0.966547  0.0
H  H18  1  0.70082696  0.52727764  0.24653713  1  0.124161  0.000157  0.936171  0.0  0.134333  0.000205  0.995693  0.0  0.137929  0.000203  0.994368  0.0  0.113091  0.131712  0.000206  0.996832  0.0
H  H19  1  0.79920924  0.28036302  0.75352442  1  0.124542  0.000151  0.936051  0.0  0.134226  0.000205  0.996103  0.0  0.137871  0.000203  0.994771  0.0  0.112888  0.131552  0.000206  0.997292  0.0
H  H20  1  0.29915906  0.47272960  0.75345107  1  0.124147  -0.00015  0.936219  0.0  0.134256  -0.000205  0.99587  0.0  0.137843  -0.000202  0.994549  0.0  0.113121  0.131651  -0.000206  0.996962  0.0
H  H21  1  0.20080677  0.71964043  0.24646975  1  0.124561  -0.000156  0.935991  0.0  0.134206  -0.000205  0.996104  0.0  0.13786  -0.000203  0.994761  0.0  0.112889  0.131532  -0.000206  0.997292  0.0
H  H22  1  0.02247288  0.09411149  0.36443485  1  0.114192  3e-06  0.94996  0.0  0.119786  -9e-06  1.015268  0.0  0.123213  -7e-06  1.012484  0.0  0.108441  0.117292  -1.1e-05  1.017375  0.0
H  H23  1  0.47753365  0.72902346  0.63538155  1  0.114166  6e-06  0.951009  0.0  0.12095  -9e-06  1.014956  0.0  0.124406  -7e-06  1.012151  0.0  0.108737  0.118445  -1.1e-05  1.017048  0.0
H  H24  1  0.97752650  0.90588950  0.63556635  1  0.114214  -5e-06  0.949918  0.0  0.119808  9e-06  1.01522  0.0  0.123237  7e-06  1.012431  0.0  0.108437  0.117313  1.1e-05  1.017326  0.0
H  H25  1  0.52247802  0.27097620  0.36460983  1  0.114265  -5e-06  0.950858  0.0  0.121005  9e-06  1.014866  0.0  0.124462  7e-06  1.01206  0.0  0.108747  0.118499  1.1e-05  1.016962  0.0
H  H26  1  0.06694628  0.88809675  0.45588888  1  0.118687  -1.1e-05  0.979935  0.0  0.123591  -1e-06  1.046671  0.0  0.126949  -2e-06  1.045561  0.0  0.107332  0.121179  -1e-06  1.047632  0.0
H  H27  1  0.43307647  0.43162733  0.54404382  1  0.118345  -1.3e-05  0.979763  0.0  0.123385  -1e-06  1.046342  0.0  0.126766  -2e-06  1.045179  0.0  0.107372  0.120944  -1e-06  1.047376  0.0
H  H28  1  0.93306220  0.11189538  0.54411006  1  0.118581  1.6e-05  0.980085  0.0  0.123545  1e-06  1.046762  0.0  0.1269  2e-06  1.045659  0.0  0.107316  0.121131  1e-06  1.047723  0.0
H  H29  1  0.56691843  0.56836729  0.45594476  1  0.118417  1.2e-05  0.979791  0.0  0.123319  1e-06  1.046497  0.0  0.126701  2e-06  1.045332  0.0  0.107329  0.120882  1e-06  1.047524  0.0
C  C30  1  0.88879062  0.69414037  0.35670624  1  0.281211  -0.000286  3.772971  0.0  0.273143  -0.000231  4.026075  0.0  0.283244  -0.000241  4.046285  0.0  0.11049  0.266478  -0.000252  4.012285  0.0
C  C31  1  0.61133683  0.33698345  0.64328989  1  0.282818  -0.00032  3.771123  0.0  0.274121  -0.000236  4.024768  0.0  0.284222  -0.000246  4.044944  0.0  0.11069  0.267451  -0.000259  4.010996  0.0
C  C32  1  0.11120601  0.30586057  0.64328523  1  0.281267  0.000336  3.772901  0.0  0.273122  0.00023  4.026114  0.0  0.283224  0.000243  4.046325  0.0  0.110427  0.266463  0.000252  4.012325  0.0
C  C33  1  0.38866299  0.66302511  0.35671236  1  0.282817  0.000315  3.771033  0.0  0.274116  0.000235  4.024705  0.0  0.28421  0.000248  4.044886  0.0  0.110648  0.267453  0.000259  4.010928  0.0
C  C34  1  0.77078235  0.65204263  0.27266793  1  -0.175372  0.000549  3.673446  0.0  -0.205503  0.000567  3.927702  0.0  -0.211344  0.000578  3.946673  0.0  -0.086623  -0.201793  0.000544  3.915239  0.0
C  C35  1  0.72929081  0.37895005  0.72732799  1  -0.175924  0.000583  3.672265  0.0  -0.205516  0.000536  3.92627  0.0  -0.211448  0.000562  3.945195  0.0  -0.08645  -0.201735  0.000496  3.913876  0.0
C  C36  1  0.22921443  0.34796086  0.72732958  1  -0.175474  -0.000613  3.673526  0.0  -0.205499  -0.000566  3.927878  0.0  -0.211328  -0.000581  3.946838  0.0  -0.086626  -0.201784  -0.000545  3.915416  0.0
C  C37  1  0.27071429  0.62105468  0.27266726  1  -0.175844  -0.000557  3.672158  0.0  -0.205427  -0.000536  3.926148  0.0  -0.211371  -0.000563  3.945072  0.0  -0.086316  -0.201646  -0.000497  3.913751  0.0
C  C38  1  0.74276475  0.76855486  0.22203825  1  -0.017174  -6e-05  3.706142  0.0  -0.006075  -9e-05  3.944455  0.0  -0.005637  -0.000163  3.962172  0.0  0.003329  -0.006433  5e-06  3.932846  0.0
C  C39  1  0.75725750  0.54606554  0.77790556  1  -0.017746  -9.2e-05  3.70488  0.0  -0.006244  -9.6e-05  3.942409  0.0  -0.005781  -0.000166  3.960092  0.0  0.003208  -0.006669  -6e-06  3.930939  0.0
C  C40  1  0.25725849  0.23145493  0.77796310  1  -0.017019  0.000102  3.70605  0.0  -0.006103  9.1e-05  3.94469  0.0  -0.005656  0.000165  3.962408  0.0  0.003289  -0.00646  -3e-06  3.933085  0.0
C  C41  1  0.24271197  0.45394049  0.22208984  1  -0.017764  7.2e-05  3.70503  0.0  -0.006221  9.7e-05  3.942373  0.0  -0.005752  0.000169  3.960037  0.0  0.003119  -0.006646  7e-06  3.930902  0.0
C  C42  1  0.83584393  0.92902070  0.25439454  1  -0.113274  0.000328  3.759639  0.0  -0.105306  0.000345  4.004493  0.0  -0.115546  0.0003  4.027017  0.0  -0.02482  -0.098814  0.000422  3.989667  0.0
C  C43  1  0.66423049  0.67405711  0.74544601  1  -0.110514  0.000361  3.757737  0.0  -0.103418  0.000359  4.003356  0.0  -0.113643  0.000306  4.025868  0.0  -0.02402  -0.096918  0.000449  3.988542  0.0
C  C44  1  0.16417816  0.07099287  0.74560595  1  -0.113318  -0.000358  3.759726  0.0  -0.105327  -0.000346  4.004698  0.0  -0.115608  -0.000301  4.027277  0.0  -0.024781  -0.098834  -0.000423  3.989875  0.0
C  C45  1  0.33574888  0.32595396  0.25454905  1  -0.11027  -0.000359  3.757483  0.0  -0.103233  -0.000358  4.003049  0.0  -0.113458  -0.000311  4.025562  0.0  -0.023944  -0.096731  -0.00045  3.988231  0.0
C  C46  1  0.95128522  0.97022993  0.33906541  1  -0.034537  -0.000282  3.728073  0.0  -0.061249  -0.000199  3.987134  0.0  -0.05742  -0.000224  4.004288  0.0  -0.078776  -0.063577  -0.000212  3.975572  0.0
C  C47  1  0.54878110  0.63055460  0.66077687  1  -0.037354  -0.000321  3.729474  0.0  -0.064926  -0.000197  3.989033  0.0  -0.06117  -0.000225  4.006284  0.0  -0.079783  -0.067193  -0.000211  3.977398  0.0
C  C48  1  0.04872775  0.02976852  0.66093604  1  -0.034635  0.000332  3.728075  0.0  -0.061319  0.000199  3.987142  0.0  -0.057476  0.000225  4.004309  0.0  -0.078839  -0.063645  0.000212  3.97558  0.0
C  C49  1  0.45120838  0.36944131  0.33921708  1  -0.037565  0.000316  3.729524  0.0  -0.065124  0.000197  3.989106  0.0  -0.061364  0.000226  4.006347  0.0  -0.079858  -0.067395  0.000211  3.977475  0.0
C  C50  1  0.97709927  0.85570768  0.39062395  1  -0.176266  0.000458  3.713029  0.0  -0.199102  0.00049  3.973373  0.0  -0.206011  0.00044  3.99335  0.0  -0.100091  -0.194688  0.000577  3.959992  0.0
C  C51  1  0.52300917  0.46453975  0.60928676  1  -0.174104  0.000506  3.710663  0.0  -0.197085  0.000508  3.97173  0.0  -0.203981  0.000452  3.991722  0.0  -0.099231  -0.192694  0.000613  3.958364  0.0
C  C52  1  0.02290510  0.14428444  0.60937336  1  -0.176192  -0.000519  3.71297  0.0  -0.19906  -0.00049  3.97333  0.0  -0.205971  -0.000442  3.993307  0.0  -0.100052  -0.194644  -0.000579  3.959945  0.0
C  C53  1  0.47698443  0.53545615  0.39070566  1  -0.174157  -0.000499  3.711028  0.0  -0.197027  -0.000508  3.972137  0.0  -0.20392  -0.000454  3.992127  0.0  -0.099148  -0.192635  -0.000615  3.958764  0.0
C  C54  1  0.61121175  0.71311778  0.13366277  1  0.699221  -0.005486  3.856011  -0.007  0.638879  -0.006717  4.158751  -0.008  0.675753  -0.005291  4.147347  -0.007  0.237159  0.612978  -0.008615  4.165901  -0.01
C  C55  1  0.88856817  0.57898520  0.86635124  1  0.699265  -0.005625  3.856408  -0.007  0.639162  -0.006878  4.158023  -0.008  0.676061  -0.005412  4.146571  -0.007  0.236933  0.613257  -0.008831  4.165191  -0.01
C  C56  1  0.38878759  0.28690597  0.86635030  1  0.699273  0.005482  3.856147  0.007  0.638912  0.006712  4.159032  0.008  0.675811  0.005288  4.147582  0.007  0.237209  0.613003  0.008611  4.16619  0.01
C  C57  1  0.11142052  0.42102080  0.13364083  1  0.699346  0.005629  3.856549  0.007  0.639327  0.006881  4.157914  0.008  0.676237  0.005414  4.146444  0.007  0.237025  0.613424  0.008836  4.165088  0.01
C  C58  1  0.81556919  0.04892832  0.19837151  1  0.666682  -0.000206  3.801975  0.0  0.612243  -0.000227  4.103761  0.0  0.64673  -0.000165  4.094476  0.0  0.234353  0.588678  -0.000355  4.109829  0.0
C  C59  1  0.68461866  0.84997742  0.80140860  1  0.663965  -0.000204  3.800504  0.0  0.610116  -0.00023  4.102463  0.0  0.644624  -0.000163  4.093144  0.0  0.232722  0.586541  -0.000358  4.108543  0.0
C  C60  1  0.18444733  0.95108400  0.80163083  1  0.666789  0.000201  3.801972  0.0  0.612301  0.000227  4.103879  0.0  0.6468  0.000165  4.094584  0.0  0.234341  0.588734  0.000354  4.109954  0.0
C  C61  1  0.31537805  0.15002481  0.19858873  1  0.663762  0.000204  3.800488  0.0  0.610048  0.000229  4.102274  0.0  0.644548  0.000167  4.092968  0.0  0.232702  0.586474  0.000357  4.108351  0.0
C  C62  1  0.01992517  0.57815348  0.48417872  1  0.448177  -4.2e-05  3.814163  0.0  0.408317  -3.6e-05  4.094943  0.0  0.434147  -3.6e-05  4.092888  0.0  0.249816  0.390886  -4.7e-05  4.095906  0.0
C  C63  1  0.48007786  0.09386435  0.51588272  1  0.448242  -4.2e-05  3.813807  0.0  0.407759  -4e-05  4.095522  0.0  0.433694  -3.7e-05  4.09318  0.0  0.249148  0.390259  -5.2e-05  4.096676  0.0
C  C64  1  0.98006560  0.42184113  0.51580759  1  0.448308  4.7e-05  3.814194  0.0  0.408338  3.6e-05  4.095064  0.0  0.434293  3.4e-05  4.092873  0.0  0.249675  0.390887  4.7e-05  4.096046  0.0
C  C65  1  0.51993440  0.90614543  0.48411512  1  0.448061  3.9e-05  3.813696  0.0  0.407605  4e-05  4.095393  0.0  0.433547  3.6e-05  4.093037  0.0  0.249147  0.390112  5.1e-05  4.096545  0.0
N  N66  1  0.91109705  0.57159724  0.40399321  1  -0.405367  5e-06  3.40122  0.0  -0.352378  -1.3e-05  3.636639  0.0  -0.374223  -9e-06  3.646458  0.0  -0.381979  -0.337471  -1.5e-05  3.62967  0.0
N  N67  1  0.58902701  0.16727182  0.59603981  1  -0.406083  5e-06  3.401697  0.0  -0.352427  -9e-06  3.637406  0.0  -0.374267  -8e-06  3.647161  0.0  -0.381837  -0.337517  -1.1e-05  3.630477  0.0
N  N68  1  0.08888570  0.42840117  0.59599542  1  -0.405468  -9e-06  3.401026  0.0  -0.35244  1.3e-05  3.636463  0.0  -0.374307  6e-06  3.646218  0.0  -0.38192  -0.337538  1.5e-05  3.629512  0.0
N  N69  1  0.41098944  0.83273923  0.40395983  1  -0.406054  -7e-06  3.401834  0.0  -0.352441  1.1e-05  3.6376  0.0  -0.374277  7e-06  3.647352  0.0  -0.381942  -0.33754  1.1e-05  3.630668  0.0
O  O70  1  0.44478289  0.75806165  0.12937983  1  -0.654108  0.021384  2.08911  0.011  -0.585457  0.024808  2.342737  0.012  -0.617682  0.023592  2.331041  0.011  -0.290349  -0.561805  0.025728  2.349907  0.013
O  O71  1  0.05518763  0.62790044  0.87071746  1  -0.655145  0.021486  2.090898  0.011  -0.585193  0.024835  2.342861  0.012  -0.617456  0.023632  2.331289  0.011  -0.28939  -0.561649  0.025739  2.350171  0.012
O  O72  1  0.55523607  0.24192171  0.87063152  1  -0.654203  -0.021396  2.088424  -0.011  -0.585615  -0.024817  2.342058  -0.012  -0.617911  -0.023605  2.330462  -0.011  -0.290399  -0.56197  -0.025738  2.349282  -0.013
O  O73  1  0.94478371  0.37209048  0.12928368  1  -0.655354  -0.021495  2.090247  -0.011  -0.585466  -0.02484  2.342345  -0.012  -0.617741  -0.023641  2.330754  -0.011  -0.289437  -0.561916  -0.025743  2.349674  -0.012
O  O74  1  0.66573614  0.61640223  0.06893677  1  -0.647351  -0.025619  2.097497  -0.013  -0.58425  -0.030456  2.377624  -0.014  -0.614033  -0.027766  2.360405  -0.012  -0.290127  -0.562148  -0.033019  2.389036  -0.017
O  O75  1  0.83352713  0.54738100  0.93108268  1  -0.647333  -0.025902  2.098355  -0.013  -0.5845  -0.030735  2.378646  -0.014  -0.614321  -0.028012  2.36135  -0.012  -0.290667  -0.562355  -0.033333  2.390088  -0.017
O  O76  1  0.33426648  0.38358355  0.93105069  1  -0.647222  0.025643  2.098802  0.013  -0.584033  0.030485  2.378865  0.014  -0.613803  0.027793  2.361618  0.012  -0.290111  -0.561938  0.033047  2.390292  0.017
O  O77  1  0.16645908  0.45258217  0.06892178  1  -0.647245  0.025917  2.099169  0.013  -0.584314  0.030755  2.379264  0.014  -0.614163  0.028031  2.36199  0.012  -0.290653  -0.562186  0.033353  2.390718  0.017
O  O78  1  0.07797311  0.80345582  0.06674043  1  -0.850666  0.031095  1.895686  0.019  -0.794963  0.0388  2.118313  0.022  -0.818721  0.035006  2.085819  0.019  -0.569364  -0.776855  0.042264  2.140174  0.025
O  O79  1  0.42193101  0.73698522  0.93336098  1  -0.849698  0.031221  1.897891  0.019  -0.793514  0.038885  2.121338  0.022  -0.817313  0.035081  2.089122  0.019  -0.568044  -0.77538  0.042366  2.1432  0.025
O  O80  1  0.92208054  0.19653377  0.93326411  1  -0.850231  -0.031091  1.895776  -0.018  -0.794455  -0.038798  2.11852  -0.022  -0.818213  -0.035003  2.086342  -0.019  -0.569008  -0.776334  -0.042262  2.140349  -0.025
O  O81  1  0.57800005  0.26304505  0.06667971  1  -0.849877  -0.031207  1.897655  -0.019  -0.793725  -0.038877  2.121139  -0.022  -0.817523  -0.035074  2.088853  -0.019  -0.568347  -0.775591  -0.042358  2.143004  -0.025
O  O82  1  0.73174210  0.00691470  0.11908123  1  -0.573874  3.7e-05  1.978688  0.0  -0.516598  5e-05  2.188599  0.0  -0.537253  8.5e-05  2.177546  0.0  -0.283418  -0.502712  1.5e-05  2.196238  0.0
O  O83  1  0.76897412  0.88737189  0.88060524  1  -0.572967  3.4e-05  1.979118  0.0  -0.516047  4.2e-05  2.189246  0.0  -0.536789  8.1e-05  2.178242  0.0  -0.282545  -0.502165  3e-06  2.196931  0.0
O  O84  1  0.26826836  0.99311149  0.88091737  1  -0.573865  -3.8e-05  1.978941  0.0  -0.516558  -4.9e-05  2.188789  0.0  -0.537229  -8.4e-05  2.177782  0.0  -0.283419  -0.502671  -1.4e-05  2.196433  0.0
O  O85  1  0.23102310  0.11263918  0.11939269  1  -0.572894  -3e-05  1.979116  0.0  -0.516114  -4.2e-05  2.189242  0.0  -0.536856  -7.9e-05  2.178244  0.0  -0.282582  -0.502235  -4e-06  2.196928  0.0
O  O86  1  0.89411138  0.20179952  0.23853501  1  -0.555556  6.5e-05  2.085492  0.0  -0.502757  1e-05  2.311412  0.0  -0.526171  5.8e-05  2.297918  0.0  -0.328915  -0.486398  -3.7e-05  2.320255  0.0
O  O87  1  0.60560199  0.96257122  0.76126678  1  -0.553964  6.1e-05  2.082811  0.0  -0.501883  6e-06  2.308456  0.0  -0.525235  5.2e-05  2.294826  0.0  -0.328772  -0.48558  -4.1e-05  2.317416  0.0
O  O88  1  0.10589025  0.79821661  0.76146841  1  -0.555378  -6.4e-05  2.085619  0.0  -0.502628  -1.1e-05  2.311444  0.0  -0.526049  -5.9e-05  2.297966  0.0  -0.328801  -0.486269  3.7e-05  2.320288  0.0
O  O89  1  0.39440470  0.03743728  0.23872722  1  -0.553883  -6.3e-05  2.082822  0.0  -0.50175  -7e-06  2.308422  0.0  -0.525106  -5.5e-05  2.294798  0.0  -0.328692  -0.485453  4e-05  2.317379  0.0
O  O90  1  0.13760151  0.68967257  0.52927024  1  -0.488914  -3.3e-05  1.948505  0.0  -0.446214  -4e-05  2.158507  0.0  -0.46422  -3.4e-05  2.154281  0.0  -0.271965  -0.433731  -5.2e-05  2.16116  0.0
O  O91  1  0.36219952  0.16032944  0.47091757  1  -0.48922  -3.5e-05  1.948771  0.0  -0.445951  -3.4e-05  2.158661  0.0  -0.463999  -3.2e-05  2.154393  0.0  -0.271725  -0.433447  -4e-05  2.161361  0.0
O  O92  1  0.86239057  0.31032082  0.47072361  1  -0.488863  4e-05  1.948911  0.0  -0.446071  3.9e-05  2.158897  0.0  -0.464111  3.8e-05  2.154615  0.0  -0.271812  -0.433578  5.1e-05  2.161552  0.0
O  O93  1  0.63780658  0.83966901  0.52908263  1  -0.489158  3.9e-05  1.948659  0.0  -0.445863  3.2e-05  2.158486  0.0  -0.463912  3.4e-05  2.154213  0.0  -0.271693  -0.433361  4e-05  2.161184  0.0
