# generated using pymatgen
data_GdH20C30N3O10
_symmetry_space_group_name_H-M   'P 1'
_cell_length_a   9.83309745
_cell_length_b   11.98625649
_cell_length_c   25.29174255
_cell_angle_alpha   89.99995179
_cell_angle_beta   90.00017845
_cell_angle_gamma   93.02849464
_symmetry_Int_Tables_number   1
_chemical_formula_structural   GdH20C30N3O10
_chemical_formula_sum   'Gd4 H80 C120 N12 O40'
_cell_volume   2976.77284613
_cell_formula_units_Z   4
loop_
 _symmetry_equiv_pos_site_id
 _symmetry_equiv_pos_as_xyz
  1  'x, y, z'
loop_
 _atom_site_type_symbol
 _atom_site_label
 _atom_site_symmetry_multiplicity
 _atom_site_fract_x
 _atom_site_fract_y
 _atom_site_fract_z
 _atom_site_occupancy
 _atom_site_pbe_bader_charge
 _atom_site_pbe_bader_spin_density
 _atom_site_pbe_cm5_charge
 _atom_site_pbe_ddec_charge
 _atom_site_pbe_ddec_spin_density
 _atom_site_pbe_ddec_sum_bond_order
 _atom_site_pbe_magmom
Gd  Gd0  1  0.89670985  0.54140579  0.07332792  1  2.226399  0  1.465003  2.135981  0  2.15103  0
Gd  Gd1  1  0.60328423  0.45859269  0.57332653  1  2.226259  0  1.465059  2.136038  0  2.151014  0
Gd  Gd2  1  0.10328825  0.45859493  0.92667278  1  2.226205  0  1.465065  2.13598  0  2.15104  0
Gd  Gd3  1  0.39671377  0.54140636  0.42667180  1  2.226195  0  1.465007  2.135997  0  2.15104  0
H  H4  1  0.51125668  0.58660042  0.00992912  1  0.132422  0  0.115519  0.146021  0  1.014966  0
H  H5  1  0.98873331  0.41340566  0.50992703  1  0.132161  0  0.115443  0.145882  0  1.015104  0
H  H6  1  0.48873462  0.41340530  0.99007276  1  0.132168  0  0.115434  0.145865  0  1.015088  0
H  H7  1  0.01126816  0.58660007  0.49007526  1  0.13221  0  0.115451  0.145868  0  1.015052  0
H  H8  1  0.77516201  0.80199524  0.13984516  1  0.132341  0  0.10959  0.116223  0  1.041372  0
H  H9  1  0.72482944  0.19800147  0.63984322  1  0.132238  0  0.109644  0.116265  0  1.041261  0
H  H10  1  0.22482827  0.19801048  0.86015554  1  0.132294  0  0.109662  0.11627  0  1.041288  0
H  H11  1  0.27517531  0.80199174  0.36015510  1  0.132245  0  0.109654  0.116269  0  1.04129  0
H  H12  1  0.71949855  0.87977298  0.22788768  1  0.059368  0  0.104143  0.10203  0  0.997535  0
H  H13  1  0.78049408  0.12023112  0.72788584  1  0.059326  0  0.104149  0.102047  0  0.997497  0
H  H14  1  0.28049393  0.12023525  0.77211381  1  0.059314  0  0.104117  0.101975  0  0.997502  0
H  H15  1  0.21950783  0.87976542  0.27211367  1  0.059343  0  0.104151  0.102057  0  0.99747  0
H  H16  1  0.48968060  0.84004890  0.26732295  1  0.089161  0  0.107899  0.110866  0  0.985964  0
H  H17  1  0.01031019  0.15995594  0.76732037  1  0.088821  0  0.107904  0.110895  0  0.985841  0
H  H18  1  0.51031080  0.15995849  0.73267973  1  0.088829  0  0.107945  0.110945  0  0.985888  0
H  H19  1  0.98968882  0.84004311  0.23268033  1  0.088828  0  0.107927  0.110936  0  0.985794  0
H  H20  1  0.31197233  0.72787129  0.21703175  1  0.1213  0  0.105862  0.122357  0  1.046268  0
H  H21  1  0.18802091  0.27213028  0.71702895  1  0.120915  0  0.105799  0.122351  0  1.046195  0
H  H22  1  0.68802272  0.27212942  0.78297132  1  0.120905  0  0.105785  0.122325  0  1.046217  0
H  H23  1  0.81197740  0.72787378  0.28297255  1  0.12094  0  0.105776  0.122366  0  1.046171  0
H  H24  1  0.91592183  0.13166848  0.10914326  1  0.12073  0  0.11309  0.14856  0  0.984281  0
H  H25  1  0.58408057  0.86832829  0.60914484  1  0.120618  0  0.113102  0.148599  0  0.9843  0
H  H26  1  0.08407607  0.86832890  0.89085309  1  0.120898  0  0.113101  0.148589  0  0.984266  0
H  H27  1  0.41591641  0.13167076  0.39085388  1  0.120834  0  0.113075  0.148543  0  0.984308  0
H  H28  1  0.17465342  0.80583402  0.06750577  1  0.110081  0  0.105713  0.10743  0  1.03016  0
H  H29  1  0.32534967  0.19416528  0.56750633  1  0.109998  0  0.10573  0.107455  0  1.030246  0
H  H30  1  0.82535603  0.19416921  0.93249453  1  0.109981  0  0.105722  0.107409  0  1.030228  0
H  H31  1  0.67465042  0.80583461  0.43249397  1  0.109994  0  0.105716  0.107426  0  1.030243  0
H  H32  1  0.35176571  0.77151508  0.00035867  1  0.05447  0  0.096317  0.094225  0  1.048704  0
H  H33  1  0.14823673  0.22848265  0.50035940  1  0.054549  0  0.096292  0.094237  0  1.048727  0
H  H34  1  0.64823641  0.22848481  0.99963886  1  0.054518  0  0.096324  0.094286  0  1.048709  0
H  H35  1  0.85176442  0.77151807  0.49964051  1  0.054566  0  0.096289  0.094227  0  1.048752  0
H  H36  1  0.42672561  0.92208698  0.93710949  1  0.046071  0  0.101687  0.096793  0  1.011871  0
H  H37  1  0.07328356  0.07791346  0.43710870  1  0.045857  0  0.101718  0.096792  0  1.011886  0
H  H38  1  0.57328486  0.07791625  0.06289042  1  0.045956  0  0.101712  0.096786  0  1.011931  0
H  H39  1  0.92671470  0.92208977  0.56289121  1  0.045907  0  0.101704  0.096779  0  1.011884  0
H  H40  1  0.32321500  0.10607675  0.94067162  1  0.065223  0  0.106397  0.117822  0  1.032999  0
H  H41  1  0.17679323  0.89392452  0.44067221  1  0.064908  0  0.106381  0.117772  0  1.033054  0
H  H42  1  0.67679969  0.89392900  0.05932908  1  0.064755  0  0.10637  0.117746  0  1.033112  0
H  H43  1  0.82319877  0.10607619  0.55932849  1  0.064825  0  0.106367  0.11775  0  1.033109  0
H  H44  1  0.21810876  0.57449409  0.28317584  1  0.141247  0  0.116462  0.149766  0  1.004891  0
H  H45  1  0.28189239  0.42551158  0.78317625  1  0.140758  0  0.116452  0.149778  0  1.004979  0
H  H46  1  0.78188791  0.42549995  0.71682209  1  0.14125  0  0.116475  0.149783  0  1.004892  0
H  H47  1  0.71811101  0.57449248  0.21682287  1  0.141114  0  0.116451  0.149733  0  1.004959  0
H  H48  1  0.06932083  0.34011998  0.42855605  1  0.119088  0  0.114202  0.118806  0  1.017514  0
H  H49  1  0.43068868  0.65988716  0.92855378  1  0.119289  0  0.11424  0.118846  0  1.017522  0
H  H50  1  0.93068113  0.65987740  0.57144623  1  0.119156  0  0.114188  0.118815  0  1.017541  0
H  H51  1  0.56932296  0.34011859  0.07144336  1  0.119058  0  0.114184  0.118812  0  1.017582  0
H  H52  1  0.87759965  0.19516669  0.44086138  1  0.086284  0  0.1012  0.100463  0  1.027877  0
H  H53  1  0.62241200  0.80483796  0.94085868  1  0.086234  0  0.101218  0.100576  0  1.027789  0
H  H54  1  0.12240328  0.80482985  0.55914091  1  0.085892  0  0.10119  0.100484  0  1.027869  0
H  H55  1  0.37760263  0.19516695  0.05913925  1  0.085814  0  0.101205  0.100457  0  1.027914  0
H  H56  1  0.72313882  0.14586102  0.36542205  1  0.082969  0  0.102024  0.100382  0  1.024148  0
H  H57  1  0.77687315  0.85414207  0.86541833  1  0.082942  0  0.102009  0.100336  0  1.024169  0
H  H58  1  0.27685908  0.85413636  0.63458142  1  0.083063  0  0.102028  0.10037  0  1.024149  0
H  H59  1  0.22314138  0.14586117  0.13457684  1  0.083001  0  0.10202  0.100344  0  1.024195  0
H  H60  1  0.75527313  0.23978037  0.27860122  1  0.06304  0  0.109748  0.120094  0  0.984761  0
H  H61  1  0.74473698  0.76022033  0.77859829  1  0.065448  0  0.109705  0.120011  0  0.984765  0
H  H62  1  0.24472193  0.76022034  0.72140225  1  0.06313  0  0.10973  0.12004  0  0.984795  0
H  H63  1  0.25527617  0.23977706  0.22139806  1  0.063126  0  0.109755  0.120112  0  0.984816  0
H  H64  1  0.25116819  0.62621112  0.13892877  1  0.54554  0  0.31429  0.281431  0  0.995461  0
H  H65  1  0.24882289  0.37378222  0.63892600  1  0.544719  0  0.314339  0.281531  0  0.995367  0
H  H66  1  0.74882532  0.37378124  0.86107509  1  0.54471  0  0.314336  0.281519  0  0.995376  0
H  H67  1  0.75117623  0.62621850  0.36107589  1  0.544712  0  0.31435  0.281554  0  0.995358  0
H  H68  1  0.17321699  0.22447012  0.98287896  1  0.540203  0  0.318955  0.289314  0  0.985735  0
H  H69  1  0.32678430  0.77552858  0.48287978  1  0.540217  0  0.318943  0.289348  0  0.985728  0
H  H70  1  0.82678528  0.77553228  0.01712056  1  0.540277  0  0.318979  0.289406  0  0.985679  0
H  H71  1  0.67321070  0.22447130  0.51711973  1  0.540242  0  0.318958  0.289373  0  0.985699  0
H  H72  1  0.88809367  0.38333155  0.22578878  1  0.508821  0  0.331433  0.291176  0  0.915812  0
H  H73  1  0.61190885  0.61666839  0.72578535  1  0.508733  0  0.331445  0.291129  0  0.915775  0
H  H74  1  0.11189903  0.61666415  0.77421509  1  0.508781  0  0.331477  0.291192  0  0.91571  0
H  H75  1  0.38809815  0.38332816  0.27421100  1  0.508848  0  0.331435  0.291159  0  0.915837  0
H  H76  1  0.98885127  0.79255749  0.11150363  1  0.63405  0  0.28956  0.402229  0  0.937663  0
H  H77  1  0.51114617  0.20744094  0.61150539  1  0.634037  0  0.289568  0.402288  0  0.937581  0
H  H78  1  0.01115091  0.20744323  0.88849628  1  0.634069  0  0.289563  0.402222  0  0.937673  0
H  H79  1  0.48885284  0.79255811  0.38849255  1  0.634068  0  0.289574  0.402276  0  0.937591  0
H  H80  1  0.04416437  0.68869064  0.14451820  1  0.634359  0  0.292199  0.376107  0  0.974057  0
H  H81  1  0.45582797  0.31130603  0.64451808  1  0.634284  0  0.292201  0.37618  0  0.973962  0
H  H82  1  0.95582833  0.31130506  0.85548250  1  0.634306  0  0.292154  0.376063  0  0.974115  0
H  H83  1  0.54417104  0.68869302  0.35548025  1  0.634251  0  0.292244  0.37627  0  0.973822  0
C  C84  1  0.24264787  0.55221815  0.04501592  1  1.634239  0  0.23604  0.60715  0  4.185019  0
C  C85  1  0.25735162  0.44777533  0.54501431  1  1.634621  0  0.236054  0.606963  0  4.185089  0
C  C86  1  0.75735281  0.44777505  0.95498716  1  1.634675  0  0.236062  0.60701  0  4.184839  0
C  C87  1  0.74265055  0.55222539  0.45498916  1  1.634749  0  0.236149  0.607167  0  4.184524  0
C  C88  1  0.36761965  0.60571063  0.07239527  1  0.448389  0  0.124994  0.135803  0  3.93634  0
C  C89  1  0.13237410  0.39428531  0.57239196  1  0.448245  0  0.124957  0.135814  0  3.93626  0
C  C90  1  0.63237514  0.39428591  0.92760899  1  0.448045  0  0.124926  0.135689  0  3.936291  0
C  C91  1  0.86762721  0.60571792  0.42761072  1  0.448146  0  0.124937  0.135763  0  3.936265  0
C  C92  1  0.49458319  0.62009294  0.04916405  1  -0.032404  0  -0.100068  -0.293403  0  3.91083  0
C  C93  1  0.00540668  0.37990888  0.54916138  1  -0.032242  0  -0.099885  -0.293113  0  3.910753  0
C  C94  1  0.50540704  0.37991195  0.95083823  1  -0.032246  0  -0.099892  -0.293079  0  3.910785  0
C  C95  1  0.99459361  0.62009434  0.45083972  1  -0.032259  0  -0.099934  -0.293135  0  3.910818  0
C  C96  1  0.60542424  0.67451119  0.07666399  1  0.783051  0  0.124234  0.388459  0  4.106347  0
C  C97  1  0.89456794  0.32548896  0.57666221  1  0.783256  0  0.124175  0.388397  0  4.106472  0
C  C98  1  0.39456893  0.32549203  0.92333671  1  0.783274  0  0.124254  0.388508  0  4.106447  0
C  C99  1  0.10543316  0.67451093  0.42333849  1  0.783262  0  0.124148  0.388361  0  4.106536  0
C  C100  1  0.57509790  0.72367474  0.12766796  1  -0.059915  0  -0.015043  -0.096691  0  3.956444  0
C  C101  1  0.92489244  0.27632199  0.62766544  1  -0.060105  0  -0.015046  -0.096713  0  3.956637  0
C  C102  1  0.42489212  0.27632680  0.87233314  1  -0.060111  0  -0.015018  -0.096761  0  3.956601  0
C  C103  1  0.07510941  0.72367372  0.37233368  1  -0.060067  0  -0.015018  -0.096674  0  3.956623  0
C  C104  1  0.67398039  0.78768758  0.15676288  1  -0.002931  0  -0.078187  -0.088974  0  3.953968  0
C  C105  1  0.82601345  0.21231245  0.65676106  1  -0.002886  0  -0.078198  -0.088987  0  3.953955  0
C  C106  1  0.32601284  0.21231648  0.84323703  1  -0.002886  0  -0.078286  -0.089084  0  3.954077  0
C  C107  1  0.17398958  0.78768576  0.34323767  1  -0.002894  0  -0.07826  -0.089089  0  3.953987  0
C  C108  1  0.64267140  0.83004072  0.20588125  1  -0.062717  0  -0.089193  -0.090222  0  4.005085  0
C  C109  1  0.85732095  0.16996174  0.70587909  1  -0.062703  0  -0.089275  -0.090296  0  4.005032  0
C  C110  1  0.35732209  0.16996751  0.79411905  1  -0.063063  0  -0.08917  -0.090117  0  4.005096  0
C  C111  1  0.14267984  0.83003313  0.29411924  1  -0.062833  0  -0.089222  -0.090227  0  4.005004  0
C  C112  1  0.51227536  0.80811932  0.22805087  1  -0.022849  0  -0.079153  -0.047199  0  4.004041  0
C  C113  1  0.98772026  0.19188395  0.72804806  1  -0.021806  0  -0.079112  -0.047166  0  4.004061  0
C  C114  1  0.48772016  0.19188891  0.77195102  1  -0.021959  0  -0.079164  -0.047242  0  4.004256  0
C  C115  1  0.01227875  0.80811510  0.27195185  1  -0.022212  0  -0.079157  -0.047251  0  4.004134  0
C  C116  1  0.41312001  0.74599752  0.20061222  1  -0.074166  0  -0.096493  -0.189711  0  3.95498  0
C  C117  1  0.08686978  0.25399990  0.70060811  1  -0.074427  0  -0.096431  -0.189712  0  3.955114  0
C  C118  1  0.58687194  0.25400236  0.79939165  1  -0.074232  0  -0.096442  -0.189722  0  3.955171  0
C  C119  1  0.91312929  0.74599998  0.29939180  1  -0.073947  0  -0.096381  -0.189669  0  3.955058  0
C  C120  1  0.44338507  0.70438170  0.14991981  1  0.422527  0  0.115716  0.219228  0  3.982607  0
C  C121  1  0.05660941  0.29561580  0.64991684  1  0.423267  0  0.115679  0.219185  0  3.982486  0
C  C122  1  0.55661009  0.29562068  0.85008247  1  0.423282  0  0.115707  0.219253  0  3.982447  0
C  C123  1  0.94339261  0.70438242  0.35008347  1  0.422979  0  0.115665  0.2192  0  3.982522  0
C  C124  1  0.99320041  0.30436081  0.04175053  1  1.640175  0  0.232333  0.607439  0  4.194125  0
C  C125  1  0.50680659  0.69563689  0.54175288  1  1.639944  0  0.23246  0.607329  0  4.19444  0
C  C126  1  0.00679855  0.69563740  0.95824622  1  1.639922  0  0.232323  0.607371  0  4.194351  0
C  C127  1  0.49319777  0.30436634  0.45824585  1  1.639941  0  0.232334  0.607313  0  4.194057  0
C  C128  1  0.04099019  0.18698394  0.04463630  1  0.436146  0  0.121662  0.134839  0  3.966608  0
C  C129  1  0.45901464  0.81301373  0.54463795  1  0.436153  0  0.121689  0.134976  0  3.966919  0
C  C130  1  0.95901182  0.81301428  0.95536203  1  0.436187  0  0.121746  0.135019  0  3.966808  0
C  C131  1  0.54098448  0.18698699  0.45536077  1  0.436278  0  0.121683  0.134963  0  3.966845  0
C  C132  1  0.99364394  0.10896286  0.08109740  1  0.003544  0  -0.106476  -0.304279  0  3.94433  0
C  C133  1  0.50636032  0.89103478  0.58109967  1  0.003589  0  -0.106533  -0.304442  0  3.94448  0
C  C134  1  0.00636016  0.89103619  0.91890013  1  0.003294  0  -0.106513  -0.304391  0  3.944395  0
C  C135  1  0.49363462  0.10896426  0.41890024  1  0.00327  0  -0.106487  -0.304329  0  3.944386  0
C  C136  1  0.04205221  0.99820108  0.08195820  1  0.79388  0  0.11375  0.362127  0  4.137812  0
C  C137  1  0.45795184  0.00179569  0.58196057  1  0.793841  0  0.11382  0.362225  0  4.137666  0
C  C138  1  0.95795392  0.00179797  0.91803974  1  0.793843  0  0.113812  0.362233  0  4.137833  0
C  C139  1  0.54204621  0.99820419  0.41803855  1  0.793863  0  0.113747  0.362137  0  4.137788  0
C  C140  1  0.14856163  0.97570378  0.04325433  1  0.036155  0  -0.022378  -0.105764  0  3.961667  0
C  C141  1  0.35144527  0.02429473  0.54325578  1  0.036393  0  -0.02235  -0.105661  0  3.961647  0
C  C142  1  0.85145397  0.02430030  0.95674598  1  0.035737  0  -0.022339  -0.105776  0  3.961599  0
C  C143  1  0.64855069  0.97570432  0.45674374  1  0.03619  0  -0.02236  -0.10578  0  3.961754  0
C  C144  1  0.20913627  0.87175095  0.04024431  1  -0.054491  0  -0.085561  -0.085745  0  3.960496  0
C  C145  1  0.29086852  0.12824672  0.54024565  1  -0.054763  0  -0.085617  -0.08578  0  3.960738  0
C  C146  1  0.79087719  0.12825146  0.95975560  1  -0.054476  0  -0.08557  -0.085678  0  3.960494  0
C  C147  1  0.70912846  0.87175232  0.45975466  1  -0.054759  0  -0.085596  -0.085702  0  3.960673  0
C  C148  1  0.30760449  0.85270574  0.00265306  1  -0.01605  0  -0.094938  -0.091839  0  3.995513  0
C  C149  1  0.19240097  0.14729115  0.50265387  1  -0.015736  0  -0.094888  -0.091982  0  3.995627  0
C  C150  1  0.69240689  0.14729583  0.99734646  1  -0.015774  0  -0.094921  -0.092005  0  3.995479  0
C  C151  1  0.80759911  0.85270874  0.49734565  1  -0.015738  0  -0.094895  -0.091984  0  3.995572  0
C  C152  1  0.34970170  0.93758975  0.96682032  1  -0.020163  0  -0.081671  -0.048338  0  4.007111  0
C  C153  1  0.15030363  0.06241064  0.46682042  1  -0.020101  0  -0.081712  -0.0483  0  4.007193  0
C  C154  1  0.65030988  0.06241516  0.03317959  1  -0.019893  0  -0.081774  -0.048353  0  4.007272  0
C  C155  1  0.84969351  0.93759091  0.53317869  1  -0.020219  0  -0.08166  -0.048214  0  4.007124  0
C  C156  1  0.29318021  0.04046468  0.96869894  1  -0.007803  0  -0.090341  -0.17451  0  3.953846  0
C  C157  1  0.20682504  0.95953404  0.46870034  1  -0.007451  0  -0.09027  -0.174386  0  3.953747  0
C  C158  1  0.70683438  0.95953940  0.03130136  1  -0.007258  0  -0.09022  -0.174435  0  3.953828  0
C  C159  1  0.79316788  0.04046500  0.53130036  1  -0.007181  0  -0.090302  -0.174527  0  3.953806  0
C  C160  1  0.19241940  0.06024905  0.00680588  1  0.348947  0  0.112849  0.206828  0  4.014763  0
C  C161  1  0.30758422  0.93975033  0.50680770  1  0.348998  0  0.112737  0.206741  0  4.014932  0
C  C162  1  0.80759112  0.93975502  0.99319403  1  0.349113  0  0.112756  0.206981  0  4.014517  0
C  C163  1  0.69240767  0.06024871  0.49319260  1  0.349218  0  0.11278  0.206926  0  4.014785  0
C  C164  1  0.04765437  0.53498403  0.19754701  1  1.643968  0  0.226049  0.565563  0  4.214337  0
C  C165  1  0.45233417  0.46501006  0.69754761  1  1.643632  0  0.226006  0.565484  0  4.214355  0
C  C166  1  0.95233299  0.46500749  0.80245211  1  1.643929  0  0.226089  0.565531  0  4.214602  0
C  C167  1  0.54765715  0.53497979  0.30245349  1  1.644311  0  0.226131  0.565674  0  4.214312  0
C  C168  1  0.05018928  0.47796097  0.25071338  1  0.401019  0  0.117442  0.130786  0  3.996066  0
C  C169  1  0.44981225  0.52203890  0.75071238  1  0.401088  0  0.117526  0.130842  0  3.996031  0
C  C170  1  0.94980728  0.52203139  0.74928692  1  0.401162  0  0.117557  0.130923  0  3.996101  0
C  C171  1  0.55019185  0.47796015  0.24928634  1  0.401031  0  0.11748  0.130779  0  3.996113  0
C  C172  1  0.14132309  0.50756188  0.29018560  1  -0.042748  0  -0.104977  -0.315448  0  3.952644  0
C  C173  1  0.35867698  0.49244211  0.79018648  1  -0.042287  0  -0.104947  -0.315485  0  3.952596  0
C  C174  1  0.85867149  0.49243132  0.70981312  1  -0.042713  0  -0.104974  -0.315443  0  3.952736  0
C  C175  1  0.64132540  0.50756195  0.20981462  1  -0.042515  0  -0.104979  -0.315382  0  3.952675  0
C  C176  1  0.12939628  0.45597870  0.34092905  1  0.875782  0  0.133919  0.405652  0  4.098064  0
C  C177  1  0.37060837  0.54402689  0.84092794  1  0.875713  0  0.13388  0.40556  0  4.098036  0
C  C178  1  0.87060039  0.54401533  0.65907086  1  0.875971  0  0.133874  0.405578  0  4.09822  0
C  C179  1  0.62939732  0.45598136  0.15907039  1  0.875568  0  0.133969  0.405677  0  4.098141  0
C  C180  1  0.01985029  0.37022280  0.34759481  1  -0.030648  0  -0.015173  -0.090718  0  3.944025  0
C  C181  1  0.48015720  0.62977860  0.84759380  1  -0.030674  0  -0.015163  -0.090678  0  3.944105  0
C  C182  1  0.98014948  0.62977207  0.65240510  1  -0.03086  0  -0.015164  -0.090641  0  3.944103  0
C  C183  1  0.51985123  0.37022463  0.15240453  1  -0.030631  0  -0.015214  -0.090817  0  3.944206  0
C  C184  1  0.99924791  0.31619400  0.39658690  1  -0.017349  0  -0.074117  -0.077096  0  3.944028  0
C  C185  1  0.50076339  0.68381072  0.89658410  1  -0.017831  0  -0.074157  -0.077215  0  3.944166  0
C  C186  1  0.00075405  0.68380338  0.60341499  1  -0.017521  0  -0.074053  -0.077043  0  3.944252  0
C  C187  1  0.49925023  0.31619419  0.10341225  1  -0.017276  0  -0.074117  -0.077146  0  3.944087  0
C  C188  1  0.89370106  0.23644069  0.40285569  1  -0.026728  0  -0.090282  -0.089761  0  3.988693  0
C  C189  1  0.60631115  0.76356151  0.90285339  1  -0.026214  0  -0.090325  -0.089809  0  3.988658  0
C  C190  1  0.10630079  0.76355501  0.59714580  1  -0.026677  0  -0.090305  -0.089814  0  3.988832  0
C  C191  1  0.39370028  0.23644090  0.09714455  1  -0.026323  0  -0.090292  -0.089723  0  3.988722  0
C  C192  1  0.80624992  0.20846372  0.36010493  1  -0.094097  0  -0.078289  -0.039838  0  3.98765  0
C  C193  1  0.69376185  0.79153687  0.86010193  1  -0.094053  0  -0.078303  -0.039847  0  3.987662  0
C  C194  1  0.19374691  0.79153282  0.63989774  1  -0.093591  0  -0.078313  -0.039877  0  3.987797  0
C  C195  1  0.30624958  0.20846554  0.13989402  1  -0.094122  0  -0.078275  -0.039762  0  3.98769  0
C  C196  1  0.82358156  0.26055916  0.31157368  1  0.034765  0  -0.092635  -0.185966  0  3.976952  0
C  C197  1  0.67642774  0.73944066  0.81157028  1  0.03195  0  -0.092491  -0.185751  0  3.97682  0
C  C198  1  0.17641441  0.73943989  0.68842939  1  0.034378  0  -0.092563  -0.185747  0  3.97708  0
C  C199  1  0.32358246  0.26055840  0.18842646  1  0.034465  0  -0.092613  -0.185985  0  3.976899  0
C  C200  1  0.93065553  0.34213783  0.30500914  1  0.356984  0  0.112991  0.213661  0  4.024459  0
C  C201  1  0.56935452  0.65785866  0.80500643  1  0.357131  0  0.112824  0.213386  0  4.024562  0
C  C202  1  0.06934306  0.65785453  0.69499315  1  0.357132  0  0.112881  0.213329  0  4.024812  0
C  C203  1  0.43065659  0.34213873  0.19499032  1  0.357255  0  0.112965  0.21366  0  4.024411  0
N  N204  1  0.34567695  0.64397908  0.12167893  1  -1.296143  0  -0.364734  -0.240597  0  3.650541  0
N  N205  1  0.15431516  0.35601678  0.62167447  1  -1.295722  0  -0.364758  -0.240658  0  3.650497  0
N  N206  1  0.65431692  0.35601912  0.87832612  1  -1.295374  0  -0.364742  -0.240615  0  3.650501  0
N  N207  1  0.84568396  0.64398394  0.37832623  1  -1.295315  0  -0.364719  -0.240629  0  3.650419  0
N  N208  1  0.13605577  0.16236619  0.00837077  1  -1.307177  0  -0.370864  -0.25673  0  3.658766  0
N  N209  1  0.36394781  0.83763236  0.50837270  1  -1.307132  0  -0.370867  -0.256879  0  3.659064  0
N  N210  1  0.86395160  0.83763621  0.99162875  1  -1.30711  0  -0.370929  -0.25711  0  3.659116  0
N  N211  1  0.63604713  0.16236668  0.49162761  1  -1.307182  0  -0.370823  -0.256877  0  3.659036  0
N  N212  1  0.95050414  0.39724684  0.25779689  1  -1.292967  0  -0.368948  -0.251619  0  3.670688  0
N  N213  1  0.54949842  0.60274972  0.75779379  1  -1.292862  0  -0.368877  -0.251408  0  3.670838  0
N  N214  1  0.04948947  0.60274719  0.74220618  1  -1.292933  0  -0.368977  -0.251551  0  3.670931  0
N  N215  1  0.45050644  0.39724516  0.24220335  1  -1.292964  0  -0.368963  -0.2516  0  3.670713  0
O  O216  1  0.14066450  0.53116209  0.07466664  1  -1.196341  0  -0.374138  -0.650261  0  2.330562  0
O  O217  1  0.35933319  0.46883135  0.57466515  1  -1.196553  0  -0.374166  -0.650203  0  2.330777  0
O  O218  1  0.85933506  0.46882944  0.92533722  1  -1.196526  0  -0.374117  -0.650148  0  2.330667  0
O  O219  1  0.64067097  0.53116854  0.42533515  1  -1.196393  0  -0.374127  -0.65024  0  2.330371  0
O  O220  1  0.25167526  0.53735661  0.99571831  1  -1.159565  0  -0.356427  -0.629615  0  2.303616  0
O  O221  1  0.24831987  0.46263955  0.49571640  1  -1.159637  0  -0.356388  -0.629534  0  2.30349  0
O  O222  1  0.74831830  0.46263658  0.00428516  1  -1.159689  0  -0.356461  -0.629604  0  2.303406  0
O  O223  1  0.75168048  0.53736451  0.50428628  1  -1.159846  0  -0.356492  -0.62967  0  2.303346  0
O  O224  1  0.72741965  0.68031679  0.05795479  1  -1.1941  0  -0.37886  -0.615386  0  2.344775  0
O  O225  1  0.77257275  0.31968923  0.55795286  1  -1.194326  0  -0.378865  -0.615429  0  2.344837  0
O  O226  1  0.27257293  0.31969311  0.94204551  1  -1.194287  0  -0.378942  -0.615504  0  2.344909  0
O  O227  1  0.22742937  0.68031066  0.44204704  1  -1.194329  0  -0.37885  -0.615417  0  2.344903  0
O  O228  1  0.92477886  0.34061939  0.07961106  1  -1.170878  0  -0.357297  -0.600404  0  2.216556  0
O  O229  1  0.57521394  0.65937407  0.57961508  1  -1.171023  0  -0.35737  -0.600351  0  2.21671  0
O  O230  1  0.07521272  0.65937464  0.92038608  1  -1.170945  0  -0.357305  -0.600332  0  2.21665  0
O  O231  1  0.42478100  0.34062497  0.42038324  1  -1.171039  0  -0.357303  -0.600371  0  2.216376  0
O  O232  1  0.02786523  0.36052383  0.00079111  1  -1.207137  0  -0.399649  -0.70989  0  2.435766  0
O  O233  1  0.47214033  0.63947473  0.50079246  1  -1.206919  0  -0.399717  -0.709876  0  2.435829  0
O  O234  1  0.97213486  0.63947605  0.99920761  1  -1.206966  0  -0.399653  -0.709928  0  2.435824  0
O  O235  1  0.52785702  0.36053016  0.49920587  1  -1.206927  0  -0.399682  -0.709838  0  2.435748  0
O  O236  1  0.99526557  0.92522476  0.11461965  1  -1.161363  0  -0.321801  -0.501196  0  2.156615  0
O  O237  1  0.50473692  0.07477283  0.61462105  1  -1.161397  0  -0.321772  -0.501165  0  2.156629  0
O  O238  1  0.00474163  0.07477513  0.88537947  1  -1.161462  0  -0.321834  -0.501226  0  2.156708  0
O  O239  1  0.49526423  0.92522789  0.38537570  1  -1.161493  0  -0.321781  -0.501194  0  2.156661  0
O  O240  1  0.95950148  0.49525394  0.16529751  1  -1.171957  0  -0.351229  -0.610941  0  2.303713  0
O  O241  1  0.54048804  0.50474106  0.66529602  1  -1.171838  0  -0.3513  -0.610979  0  2.303461  0
O  O242  1  0.04048465  0.50473423  0.83470319  1  -1.172059  0  -0.351373  -0.611031  0  2.303589  0
O  O243  1  0.45950980  0.49525548  0.33470310  1  -1.171931  0  -0.351296  -0.61098  0  2.303813  0
O  O244  1  0.12985500  0.61892592  0.19104096  1  -1.185749  0  -0.301212  -0.537213  0  2.25216  0
O  O245  1  0.37013284  0.38107401  0.69104190  1  -1.185504  0  -0.301135  -0.537117  0  2.252287  0
O  O246  1  0.87013160  0.38106977  0.80895816  1  -1.185644  0  -0.301166  -0.537161  0  2.252369  0
O  O247  1  0.62986393  0.61892169  0.30895920  1  -1.186097  0  -0.301278  -0.537375  0  2.252093  0
O  O248  1  0.20556940  0.48381364  0.37964330  1  -1.177316  0  -0.388573  -0.588422  0  2.401544  0
O  O249  1  0.29442987  0.51619857  0.87964291  1  -1.177182  0  -0.38861  -0.58837  0  2.401414  0
O  O250  1  0.79442580  0.51618958  0.62035502  1  -1.177403  0  -0.388636  -0.588467  0  2.401522  0
O  O251  1  0.70556495  0.48381468  0.12035582  1  -1.17725  0  -0.388551  -0.588395  0  2.401602  0
O  O252  1  0.98086946  0.70850270  0.11570857  1  -1.286987  0  -0.664594  -0.897773  0  2.144494  0
O  O253  1  0.51912197  0.29149655  0.61570833  1  -1.286814  0  -0.664585  -0.897914  0  2.144414  0
O  O254  1  0.01912554  0.29149718  0.88429055  1  -1.286852  0  -0.664539  -0.897707  0  2.14452  0
O  O255  1  0.48087609  0.70850333  0.38428921  1  -1.286748  0  -0.664643  -0.897965  0  2.144478  0
