# generated using pymatgen
data_AlH8C15NClO6
_symmetry_space_group_name_H-M   'P 1'
_cell_length_a   6.65636384
_cell_length_b   16.95505699
_cell_length_c   17.75064109
_cell_angle_alpha   87.15594637
_cell_angle_beta   79.10036887
_cell_angle_gamma   82.54751871
_symmetry_Int_Tables_number   1
_chemical_formula_structural   AlH8C15NClO6
_chemical_formula_sum   'Al2 H16 C30 N2 Cl2 O12'
_cell_volume   1949.91502858
_cell_formula_units_Z   2
loop_
 _symmetry_equiv_pos_site_id
 _symmetry_equiv_pos_as_xyz
  1  'x, y, z'
loop_
 _atom_site_type_symbol
 _atom_site_label
 _atom_site_symmetry_multiplicity
 _atom_site_fract_x
 _atom_site_fract_y
 _atom_site_fract_z
 _atom_site_occupancy
 _atom_site_pbe_bader_charge
 _atom_site_pbe_bader_spin_density
 _atom_site_pbe_cm5_charge
 _atom_site_pbe_ddec_charge
 _atom_site_pbe_ddec_spin_density
 _atom_site_pbe_ddec_sum_bond_order
 _atom_site_pbe_magmom
Al  Al0  1  0.49151797  0.50059533  0.50124676  1  2.504073  0  0.399524  1.649164  0  2.575054  0
Al  Al1  1  0.99277490  0.50090999  0.49899794  1  2.50633  0  0.402074  1.64252  0  2.57826  0
H  H2  1  0.76379367  0.55571723  0.41253626  1  0.61989  0  0.355828  0.433012  0  0.849974  0
H  H3  1  0.21270493  0.44583705  0.58780456  1  0.619477  0  0.356183  0.43363  0  0.849143  0
H  H4  1  0.12284599  0.26232859  0.52365838  1  0.12371  0  0.105499  0.111839  0  1.018401  0
H  H5  1  0.18838458  0.11389567  0.52303804  1  0.099841  0  0.103904  0.110069  0  1.031498  0
H  H6  1  0.58966826  0.10639799  0.46559842  1  0.117503  0  0.11563  0.138196  0  0.988622  0
H  H7  1  0.39983022  0.89425382  0.53369921  1  0.114018  0  0.115333  0.138706  0  0.98956  0
H  H8  1  0.80070992  0.88836788  0.47606469  1  0.087906  0  0.103544  0.108755  0  1.033973  0
H  H9  1  0.86298805  0.73988033  0.47598477  1  0.110352  0  0.105327  0.111922  0  1.015682  0
H  H10  1  0.65349056  0.53196917  0.27279318  1  0.112512  0  0.108979  0.112823  0  0.997481  0
H  H11  1  0.73844415  0.53576519  0.12976098  1  0.082652  0  0.106114  0.112844  0  1.000834  0
H  H12  1  0.09231688  0.43454216  0.26464408  1  0.108547  0  0.115647  0.135249  0  0.984298  0
H  H13  1  0.90915918  0.57097336  0.72716130  1  0.130906  0  0.116154  0.136412  0  0.982937  0
H  H14  1  0.35907536  0.45952014  0.73613666  1  0.097963  0  0.110222  0.113953  0  0.992081  0
H  H15  1  0.30747225  0.45348426  0.87924834  1  0.093564  0  0.108825  0.114811  0  0.992888  0
H  H16  1  0.48411502  0.31746398  0.46997217  1  0.662809  0  0.315035  0.359265  0  0.957398  0
H  H17  1  0.49928150  0.68308744  0.53166765  1  0.625626  0  0.31515  0.359515  0  0.957678  0
C  C18  1  0.30955617  0.48928401  0.36245530  1  1.584747  0  0.269741  0.643648  0  4.087684  0
C  C19  1  0.19882493  0.64568449  0.50080641  1  1.464067  0  0.261622  0.648986  0  4.087425  0
C  C20  1  0.68004251  0.51177501  0.63771318  1  1.521926  0  0.271151  0.644908  0  4.084174  0
C  C21  1  0.78588156  0.35567334  0.49936762  1  1.444651  0  0.26046  0.648135  0  4.091995  0
C  C22  1  0.81923235  0.26841970  0.49692770  1  0.04403  0  -0.037294  -0.206822  0  3.984267  0
C  C23  1  0.00656673  0.22742070  0.51201231  1  0.007889  0  -0.077668  -0.039638  0  3.995259  0
C  C24  1  0.04433810  0.14553709  0.51124876  1  -0.055991  0  -0.098825  -0.180346  0  3.972541  0
C  C25  1  0.89138061  0.10214409  0.49452222  1  0.376055  0  0.093267  0.19928  0  4.055988  0
C  C26  1  0.70516916  0.14101826  0.47873945  1  -0.055129  0  -0.089516  -0.261363  0  3.885794  0
C  C27  1  0.66655865  0.22426072  0.47990872  1  0.5549  0  0.098449  0.32891  0  4.054093  0
C  C28  1  0.28352751  0.86004594  0.52055093  1  -0.040149  0  -0.088322  -0.261594  0  3.885433  0
C  C29  1  0.09808501  0.89934093  0.50451275  1  0.358688  0  0.092221  0.199629  0  4.057891  0
C  C30  1  0.94421455  0.85631940  0.48793191  1  -0.000979  0  -0.09707  -0.178699  0  3.977021  0
C  C31  1  0.98022719  0.77439116  0.48752294  1  0.030839  0  -0.07899  -0.040897  0  3.996257  0
C  C32  1  0.16669276  0.73294659  0.50297832  1  0.025362  0  -0.03764  -0.20593  0  3.984067  0
C  C33  1  0.32012800  0.77673764  0.52007636  1  0.540134  0  0.096471  0.326344  0  4.052772  0
C  C34  1  0.36565471  0.48505133  0.27734188  1  -0.002073  0  -0.010096  -0.026082  0  3.974217  0
C  C35  1  0.55023408  0.51164461  0.23918542  1  -0.114534  0  -0.080326  -0.091976  0  3.987254  0
C  C36  1  0.59772588  0.51361904  0.15978688  1  0.059249  0  -0.079111  -0.107569  0  3.949171  0
C  C37  1  0.46464932  0.48731480  0.11569031  1  0.119636  0  0.003812  0.088772  0  4.084872  0
C  C38  1  0.28433632  0.45655804  0.15534256  1  0.027519  0  0.022989  0.108611  0  3.998733  0
C  C39  1  0.23363346  0.45663568  0.23504700  1  0.061916  0  -0.083686  -0.159022  0  3.954328  0
C  C40  1  0.50921538  0.49364642  0.03497205  1  0.148956  0  -0.040766  -0.086467  0  4.121946  0
C  C41  1  0.54598533  0.50241142  0.96526503  1  -0.436439  0  -0.03777  -0.083117  0  4.121286  0
C  C42  1  0.57723955  0.50901912  0.88456190  1  0.114796  0  0.003089  0.087028  0  4.085195  0
C  C43  1  0.74537844  0.54385259  0.84033912  1  0.043887  0  0.021996  0.108245  0  4.002842  0
C  C44  1  0.77737974  0.54539805  0.76058900  1  0.000905  0  -0.082199  -0.156928  0  3.953488  0
C  C45  1  0.63901218  0.51420552  0.72301589  1  0.038907  0  -0.011992  -0.028668  0  3.979557  0
C  C46  1  0.46693227  0.48262560  0.76588898  1  -0.011724  0  -0.081219  -0.092362  0  3.9908  0
C  C47  1  0.43802358  0.47933991  0.84527542  1  -0.008455  0  -0.07855  -0.107443  0  3.948198  0
N  N48  1  0.91051947  0.01819665  0.49229669  1  -0.480464  0  -0.142723  -0.126862  0  3.260227  0
N  N49  1  0.07982837  0.98330735  0.50660037  1  -0.505826  0  -0.143739  -0.128503  0  3.257325  0
Cl  Cl50  1  0.12354700  0.41955452  0.10376465  1  -0.202238  0  0.002475  -0.07253  0  1.489716  0
Cl  Cl51  1  0.91441391  0.58386981  0.88591410  1  -0.198493  0  -0.000465  -0.073456  0  1.477414  0
O  O52  1  0.45046827  0.50430991  0.39745430  1  -1.271515  0  -0.234822  -0.601739  0  2.365286  0
O  O53  1  0.05754434  0.60861340  0.48564401  1  -1.268167  0  -0.236316  -0.590159  0  2.349854  0
O  O54  1  0.86058565  0.52263177  0.60298969  1  -1.264956  0  -0.234234  -0.589133  0  2.333985  0
O  O55  1  0.60746091  0.39060435  0.48894673  1  -1.261967  0  -0.24098  -0.613095  0  2.382676  0
O  O56  1  0.53360751  0.49706009  0.60531921  1  -1.268817  0  -0.235631  -0.599199  0  2.336219  0
O  O57  1  0.92911451  0.39298860  0.51240196  1  -1.265984  0  -0.235708  -0.58888  0  2.353507  0
O  O58  1  0.12579320  0.47955516  0.39453381  1  -1.262148  0  -0.234334  -0.586712  0  2.312589  0
O  O59  1  0.37480355  0.61043904  0.51360609  1  -1.258836  0  -0.241613  -0.613265  0  2.382657  0
O  O60  1  0.74722493  0.53519063  0.46495619  1  -1.421518  0  -0.448093  -0.993384  0  2.197213  0
O  O61  1  0.23550173  0.46617141  0.53531616  1  -1.421414  0  -0.448343  -0.993702  0  2.199307  0
O  O62  1  0.48399607  0.25899227  0.46454450  1  -1.172924  0  -0.34536  -0.435772  0  2.282398  0
O  O63  1  0.50153609  0.74161020  0.53609767  1  -1.135995  0  -0.34331  -0.433867  0  2.279278  0
