# generated using pymatgen
data_Zn2H21C22N8F
_symmetry_space_group_name_H-M   'P 1'
_cell_length_a   13.02431003
_cell_length_b   13.00602805
_cell_length_c   14.85608395
_cell_angle_alpha   100.73295699
_cell_angle_beta   118.72379478
_cell_angle_gamma   103.56129316
_symmetry_Int_Tables_number   1
_chemical_formula_structural   Zn2H21C22N8F
_chemical_formula_sum   'Zn4 H42 C44 N16 F2'
_cell_volume   2009.13257172
_cell_formula_units_Z   2
loop_
 _symmetry_equiv_pos_site_id
 _symmetry_equiv_pos_as_xyz
  1  'x, y, z'
loop_
 _atom_site_type_symbol
 _atom_site_label
 _atom_site_symmetry_multiplicity
 _atom_site_fract_x
 _atom_site_fract_y
 _atom_site_fract_z
 _atom_site_occupancy
 _atom_site_pbe_bader_charge
 _atom_site_pbe_bader_spin_density
 _atom_site_pbe_cm5_charge
 _atom_site_pbe_ddec_charge
 _atom_site_pbe_ddec_spin_density
 _atom_site_pbe_ddec_sum_bond_order
 _atom_site_pbe_magmom
C  C0  1  0.58096440  0.84044633  0.91071976  1  0.444644  0  0.001549  -0.063996  0  3.989391  0
C  C1  1  0.54444013  0.18023440  0.91900890  1  -0.016696  0  -0.044965  0.004293  0  4.133268  0
C  C2  1  0.00903282  0.61791279  0.14626555  1  0.006049  0  -0.045051  0.009436  0  4.15338  0
C  C3  1  0.04270645  0.20768514  0.67809201  1  0.052196  0  -0.037933  -0.04931  0  4.026202  0
C  C4  1  0.51887936  0.41482719  0.70417116  1  -0.013093  0  -0.037508  -0.04839  0  3.991787  0
C  C5  1  0.78683824  0.90662409  0.49782962  1  0.459729  0  0.026608  0.189653  0  3.774476  0
C  C6  1  0.53475288  0.48729723  0.47293766  1  0.449123  0  0.023172  0.192134  0  3.795782  0
C  C7  1  0.31182651  0.54224446  0.10900626  1  0.401743  0  0.006497  -0.047227  0  3.941378  0
C  C8  1  0.86127007  0.01977255  0.59421092  1  -0.027809  0  -0.162168  -0.275973  0  3.876816  0
C  C9  1  0.51330735  0.49335453  0.56571149  1  -0.039557  0  -0.162638  -0.276907  0  3.883421  0
C  C10  1  0.93220263  0.95053457  0.43336467  1  -0.021491  0  -0.162382  -0.182061  0  3.877632  0
C  C11  1  0.64042516  0.34875662  0.51384800  1  -0.011917  0  -0.160633  -0.184683  0  3.87117  0
C  C12  1  0.75689116  0.02332714  0.38242128  1  -0.015955  0  -0.156426  -0.183503  0  3.8716  0
C  C13  1  0.40517003  0.28442045  0.39947633  1  -0.044231  0  -0.158133  -0.181316  0  3.878113  0
C  C14  1  0.79297128  0.92012531  0.39979070  1  0.052567  0  -0.012785  0.061612  0  3.835152  0
C  C15  1  0.52913771  0.36874280  0.42451198  1  0.085471  0  -0.015012  0.059951  0  3.850728  0
C  C16  1  0.94838601  0.10519490  0.57716755  1  0.071162  0  -0.012135  0.138117  0  3.834434  0
C  C17  1  0.52325773  0.39049855  0.60315911  1  0.09139  0  -0.010744  0.137893  0  3.825002  0
C  C18  1  0.02262481  0.04532408  0.54586117  1  -0.02584  0  -0.163525  -0.193705  0  3.884393  0
C  C19  1  0.64705955  0.37881314  0.62309633  1  -0.001774  0  -0.159924  -0.191675  0  3.864547  0
C  C20  1  0.42690428  0.32407622  0.21470804  1  0.362143  0  -0.007115  -0.079528  0  4.038294  0
C  C21  1  0.67527599  0.80931539  0.19101481  1  0.343323  0  -0.003494  -0.064568  0  3.98842  0
C  C22  1  0.86202191  0.13368209  0.47798412  1  -0.026184  0  -0.160948  -0.189842  0  3.8749  0
C  C23  1  0.64411231  0.28452540  0.99383964  1  0.440135  0  0.005412  -0.056852  0  3.964011  0
C  C24  1  0.41298329  0.28404975  0.50679420  1  -0.02015  0  -0.159575  -0.190261  0  3.86736  0
C  C25  1  0.11971614  0.60891054  0.15051704  1  -0.01515  0  -0.110368  -0.142545  0  4.083518  0
C  C26  1  0.55525416  0.07151012  0.89647265  1  -0.016221  0  -0.106241  -0.133696  0  4.074988  0
C  C27  1  0.17426940  0.65816911  0.10348267  1  -0.015263  0  -0.106128  -0.133652  0  4.072914  0
C  C28  1  0.45869165  0.97049319  0.84939361  1  -0.024964  0  -0.10836  -0.140803  0  4.076821  0
C  C29  1  0.94521432  0.56066570  0.18728111  1  0.403367  0  0.000884  -0.071213  0  4.007367  0
C  C30  1  0.29163821  0.65015226  0.00754552  1  0.372643  0  0.002959  -0.060405  0  3.962783  0
C  C31  1  0.37319476  0.75923930  0.81298484  1  0.378758  0  -0.00019  -0.072667  0  4.003413  0
C  C32  1  0.69436485  0.70254837  0.29323024  1  0.358327  0  0.001052  -0.058569  0  3.960834  0
C  C33  1  0.63352275  0.41247827  0.31679095  1  0.339713  0  0.001604  -0.056795  0  4.008831  0
C  C34  1  0.47129423  0.86361826  0.85325969  1  -0.014152  0  -0.043954  0.00931  0  4.153099  0
C  C35  1  0.26075749  0.62451045  0.08167646  1  0.033127  0  -0.043092  0.006882  0  4.131001  0
C  C36  1  0.53064314  0.36251999  0.32331472  1  0.009361  0  -0.042177  -0.056877  0  4.045016  0
C  C37  1  0.71443145  0.81514661  0.29857163  1  0.008713  0  -0.038866  -0.051299  0  4.004725  0
C  C38  1  0.92853849  0.67010547  0.08824509  1  0.434037  0  0.001  -0.065745  0  3.990273  0
C  C39  1  0.43544718  0.20472092  0.89155372  1  0.413862  0  0.006761  -0.04788  0  3.938578  0
C  C40  1  0.11468296  0.21169212  0.78638394  1  0.354058  0  -0.005484  -0.0742  0  4.023717  0
C  C41  1  0.61955757  0.48339217  0.81167767  1  0.433631  0  0.000216  -0.06185  0  3.974947  0
C  C42  1  0.41154155  0.40179539  0.70880513  1  0.358406  0  -0.003227  -0.066612  0  3.98806  0
C  C43  1  0.09645403  0.31799391  0.68477871  1  0.369782  0  -0.003899  -0.074229  0  4.02542  0
F  F44  1  0.84134562  0.82689514  0.53381865  1  -0.629612  0  -0.15593  -0.217991  0  1.226621  0
F  F45  1  0.65585727  0.56921061  0.51404215  1  -0.635473  0  -0.156113  -0.217609  0  1.228531  0
H  H46  1  0.68808491  0.87007965  0.47332226  1  0.06279  0  0.099961  0.048433  0  0.953368  0
H  H47  1  0.72941166  0.39913404  0.52599973  1  0.025874  0  0.088561  0.087232  0  0.997784  0
H  H48  1  0.95476238  0.87438753  0.43328147  1  0.047631  0  0.091175  0.095139  0  0.984508  0
H  H49  1  0.07196230  0.01139236  0.60976529  1  0.019032  0  0.087249  0.086003  0  0.988028  0
H  H50  1  0.72687894  0.45885160  0.68220703  1  0.011476  0  0.089983  0.0896  0  0.983265  0
H  H51  1  0.74081311  0.02848956  0.30406084  1  0.021136  0  0.091881  0.092252  0  0.990172  0
H  H52  1  0.38721116  0.20001251  0.35033717  1  0.022983  0  0.092256  0.091768  0  0.979256  0
H  H53  1  0.46663504  0.50950983  0.40744649  1  0.049887  0  0.094625  0.041021  0  0.965055  0
H  H54  1  0.66634476  0.01055020  0.37546932  1  0.010728  0  0.090269  0.085849  0  0.982856  0
H  H55  1  0.32584407  0.30759361  0.34801653  1  0.016569  0  0.084485  0.07478  0  0.991128  0
H  H56  1  0.82095672  0.18972876  0.50181898  1  0.023453  0  0.087132  0.083487  0  0.997081  0
H  H57  1  0.32334263  0.28072721  0.49789589  1  0.013023  0  0.086612  0.083471  0  0.99624  0
H  H58  1  0.91939625  0.18066786  0.45277502  1  -0.000772  0  0.08682  0.081385  0  0.986113  0
H  H59  1  0.42817475  0.20875346  0.52510327  1  0.014005  0  0.091284  0.0917  0  0.975673  0
H  H60  1  0.93840239  0.97559496  0.36880343  1  0.012491  0  0.086967  0.084594  0  0.983531  0
H  H61  1  0.62636260  0.25945165  0.48324249  1  0.000231  0  0.08782  0.085955  0  0.985343  0
H  H62  1  0.32727611  0.27943453  0.18033258  1  0.092075  0  0.110969  0.098737  0  1.01054  0
H  H63  1  0.67266371  0.87556282  0.15584890  1  0.086705  0  0.10996  0.095582  0  1.023802  0
H  H64  1  0.09602227  0.10828096  0.54624710  1  0.013537  0  0.086131  0.082728  0  0.991959  0
H  H65  1  0.66328499  0.31369271  0.66003729  1  0.013692  0  0.089702  0.088277  0  0.983595  0
H  H66  1  0.15285981  0.54766552  0.18601665  1  0.021161  0  0.092968  0.093932  0  1.004124  0
H  H67  1  0.65163958  0.07344362  0.93200588  1  0.025726  0  0.093794  0.094585  0  1.000158  0
H  H68  1  0.14116689  0.71916402  0.06748058  1  0.026197  0  0.095431  0.096508  0  0.998239  0
H  H69  1  0.79656530  0.05504872  0.60373065  1  0.02912  0  0.095122  0.104699  0  0.973563  0
H  H70  1  0.36252920  0.96891128  0.81450424  1  0.007323  0  0.09501  0.09723  0  0.999433  0
H  H71  1  0.27116084  0.70960466  0.96522742  1  0.086266  0  0.113897  0.101641  0  1.007505  0
H  H72  1  0.27162457  0.73748041  0.76378108  1  0.115982  0  0.115559  0.105236  0  0.996359  0
H  H73  1  0.71141562  0.66730914  0.35757429  1  0.137711  0  0.110511  0.105431  0  1.028758  0
H  H74  1  0.73305610  0.45494835  0.38169449  1  0.110222  0  0.115012  0.104172  0  1.000462  0
H  H75  1  0.41995635  0.49669236  0.54017584  1  0.037765  0  0.092798  0.100672  0  0.977837  0
H  H76  1  0.93833155  0.72242458  0.04155656  1  0.048898  0  0.115119  0.102073  0  1.001126  0
H  H77  1  0.33620115  0.15054134  0.83554761  1  0.087078  0  0.112266  0.097368  0  1.019646  0
H  H78  1  0.10685012  0.14549396  0.82057378  1  0.05068  0  0.11301  0.101291  0  1.006278  0
H  H79  1  0.72067677  0.51500153  0.84698860  1  0.031633  0  0.112798  0.100896  0  1.015499  0
H  H80  1  0.31213311  0.35461097  0.64528784  1  0.093874  0  0.107582  0.090613  0  1.032893  0
H  H81  1  0.07084905  0.35451702  0.62070003  1  0.100095  0  0.1111  0.098472  0  1.009229  0
H  H82  1  0.67967693  0.89628460  0.95650039  1  0.05323  0  0.114055  0.100158  0  1.001665  0
H  H83  1  0.31215538  0.49795071  0.16428072  1  0.07589  0  0.110404  0.093689  0  1.021281  0
H  H84  1  0.91600540  0.00252914  0.66931249  1  0.031775  0  0.095112  0.106041  0  0.990436  0
H  H85  1  0.58368325  0.57212198  0.63487874  1  0.057599  0  0.099298  0.114731  0  0.977919  0
H  H86  1  0.74549264  0.30572123  0.03605631  1  0.047285  0  0.111397  0.097778  0  1.009576  0
H  H87  1  0.97271113  0.50857173  0.23714165  1  0.059357  0  0.111921  0.099096  0  1.000132  0
N  N88  1  0.55014216  0.73226907  0.90528937  1  -0.815884  0  -0.270527  -0.172539  0  3.544983  0
N  N89  1  0.42052429  0.68134164  0.84425441  1  -0.765693  0  -0.273734  -0.17964  0  3.546407  0
N  N90  1  0.35229153  0.58567268  0.99030999  1  -0.774533  0  -0.281025  -0.179137  0  3.617892  0
N  N91  1  0.64875810  0.63614009  0.19046448  1  -0.783667  0  -0.28497  -0.18223  0  3.622853  0
N  N92  1  0.59403632  0.40444200  0.21270088  1  -0.784999  0  -0.273915  -0.176378  0  3.539403  0
N  N93  1  0.82624157  0.64526795  0.09419467  1  -0.793189  0  -0.271551  -0.174947  0  3.547892  0
N  N94  1  0.46910006  0.31341492  0.94822615  1  -0.787157  0  -0.280866  -0.175218  0  3.629374  0
N  N95  1  0.36479654  0.51965542  0.05299667  1  -0.796921  0  -0.28035  -0.173814  0  3.623314  0
N  N96  1  0.20424080  0.31589660  0.85203275  1  -0.792438  0  -0.273403  -0.175295  0  3.549952  0
N  N97  1  0.57436605  0.51022090  0.87406018  1  -0.796843  0  -0.28454  -0.18057  0  3.637361  0
N  N98  1  0.44658036  0.46010233  0.81087521  1  -0.76561  0  -0.28542  -0.181234  0  3.633666  0
N  N99  1  0.19297618  0.38227480  0.78871662  1  -0.800173  0  -0.275097  -0.178013  0  3.542097  0
N  N100  1  0.59733033  0.36269617  0.01141070  1  -0.771781  0  -0.283326  -0.182131  0  3.625065  0
N  N101  1  0.83645371  0.57707642  0.15605413  1  -0.773037  0  -0.270626  -0.174378  0  3.541824  0
N  N102  1  0.46505805  0.34943126  0.14886745  1  -0.783964  0  -0.277088  -0.179396  0  3.547399  0
N  N103  1  0.63701999  0.70165125  0.12759877  1  -0.765436  0  -0.287523  -0.183247  0  3.633125  0
Zn  Zn104  1  0.65211179  0.65288922  0.00048347  1  1.185227  0  0.740895  0.604843  0  2.466687  0
Zn  Zn105  1  0.37022619  0.36910157  0.00093312  1  1.185755  0  0.743248  0.603569  0  2.477481  0
Zn  Zn106  1  0.34530757  0.52841454  0.85176177  1  1.188977  0  0.740482  0.609685  0  2.447239  0
Zn  Zn107  1  0.67644096  0.49439450  0.14924614  1  1.188025  0  0.740745  0.610917  0  2.443708  0
