# generated using pymatgen
data_Cu2H5C3SN4Cl
_symmetry_space_group_name_H-M   'P 1'
_cell_length_a   6.95214290
_cell_length_b   6.95214802
_cell_length_c   17.16868318
_cell_angle_alpha   79.56809121
_cell_angle_beta   79.56825915
_cell_angle_gamma   74.22273493
_symmetry_Int_Tables_number   1
_chemical_formula_structural   Cu2H5C3SN4Cl
_chemical_formula_sum   'Cu8 H20 C12 S4 N16 Cl4'
_cell_volume   777.68471630
_cell_formula_units_Z   4
loop_
 _symmetry_equiv_pos_site_id
 _symmetry_equiv_pos_as_xyz
  1  'x, y, z'
loop_
 _atom_site_type_symbol
 _atom_site_label
 _atom_site_symmetry_multiplicity
 _atom_site_fract_x
 _atom_site_fract_y
 _atom_site_fract_z
 _atom_site_occupancy
 _atom_site_hle17_bader_spin_density
 _atom_site_hle17_ddec_charge
 _atom_site_hle17_ddec_spin_density
 _atom_site_hle17_ddec_sum_bond_order
 _atom_site_hle17_magmom
 _atom_site_hse06_10hf_bader_spin_density
 _atom_site_hse06_10hf_ddec_charge
 _atom_site_hse06_10hf_ddec_spin_density
 _atom_site_hse06_10hf_ddec_sum_bond_order
 _atom_site_hse06_10hf_magmom
 _atom_site_hse06_bader_spin_density
 _atom_site_hse06_ddec_charge
 _atom_site_hse06_ddec_spin_density
 _atom_site_hse06_ddec_sum_bond_order
 _atom_site_hse06_magmom
 _atom_site_pbe_bader_spin_density
 _atom_site_pbe_cm5_charge
 _atom_site_pbe_ddec_charge
 _atom_site_pbe_ddec_spin_density
 _atom_site_pbe_ddec_sum_bond_order
 _atom_site_pbe_magmom
Cu  Cu0  1  0.40717149  0.88145831  0.68616384  1  0  0.327742  0  2.14523  0  0  0.211373  0  2.673024  0  0  0.208714  0  2.626377  0  0  0.456794  0.215668  0  2.703084  0
Cu  Cu1  1  0.11854260  0.59282735  0.81383681  1  0  0.327768  0  2.145224  0  0  0.211392  0  2.673026  0  0  0.208729  0  2.626361  0  0  0.456801  0.215706  0  2.703093  0
Cu  Cu2  1  0.59282861  0.11854354  0.31383701  1  0  0.327717  0  2.145231  0  0  0.211349  0  2.673024  0  0  0.208701  0  2.626376  0  0  0.456795  0.215662  0  2.703098  0
Cu  Cu3  1  0.88145863  0.40716997  0.18616429  1  0  0.327747  0  2.145222  0  0  0.211357  0  2.673009  0  0  0.208697  0  2.626347  0  0  0.456803  0.215683  0  2.703087  0
Cu  Cu4  1  0.51609903  0.75695012  0.49435519  1  0  0.422017  0  1.943907  0  0  0.314009  0  2.426456  0  0  0.311815  0  2.382155  0  0  0.458129  0.318172  0  2.455009  0
Cu  Cu5  1  0.24305072  0.48390302  0.00564493  1  0  0.422013  0  1.943918  0  0  0.314014  0  2.426469  0  0  0.311813  0  2.382168  0  0  0.458134  0.318168  0  2.455008  0
Cu  Cu6  1  0.48390107  0.24305173  0.50564508  1  0  0.422031  0  1.943927  0  0  0.314036  0  2.426474  0  0  0.311835  0  2.382163  0  0  0.458144  0.318187  0  2.455018  0
Cu  Cu7  1  0.75694976  0.51609732  0.99435542  1  0  0.421998  0  1.943946  0  0  0.31399  0  2.426491  0  0  0.311808  0  2.382175  0  0  0.45813  0.318155  0  2.45504  0
H  H8  1  0.10213058  0.16204330  0.56361339  1  0  0.091496  0  0.958464  0  0  0.102624  0  1.027082  0  0  0.105925  0  1.024217  0  0  0.086699  0.100067  0  1.029368  0
H  H9  1  0.83795556  0.89787267  0.93638617  1  0  0.09147  0  0.958444  0  0  0.10262  0  1.027055  0  0  0.10592  0  1.024186  0  0  0.086711  0.100064  0  1.02934  0
H  H10  1  0.89786990  0.83795704  0.43638637  1  0  0.091517  0  0.958503  0  0  0.102624  0  1.027115  0  0  0.105933  0  1.024256  0  0  0.086696  0.100064  0  1.029405  0
H  H11  1  0.16204454  0.10212918  0.06361293  1  0  0.091436  0  0.958489  0  0  0.102583  0  1.027096  0  0  0.105885  0  1.024231  0  0  0.086682  0.100028  0  1.029381  0
H  H12  1  0.95009944  0.03319101  0.63785031  1  0  0.091805  0  0.962261  0  0  0.104844  0  1.027679  0  0  0.105031  0  1.030567  0  0  0.08701  0.104605  0  1.02583  0
H  H13  1  0.96680720  0.04990339  0.86214877  1  0  0.091795  0  0.962252  0  0  0.104872  0  1.027643  0  0  0.105056  0  1.030534  0  0  0.087023  0.10463  0  1.025792  0
H  H14  1  0.04989958  0.96680933  0.36215015  1  0  0.091834  0  0.962257  0  0  0.104855  0  1.027668  0  0  0.10505  0  1.030561  0  0  0.087005  0.104614  0  1.025816  0
H  H15  1  0.03319290  0.95009845  0.13784858  1  0  0.091806  0  0.962247  0  0  0.104865  0  1.027652  0  0  0.105051  0  1.03054  0  0  0.087025  0.104623  0  1.025802  0
H  H16  1  0.74043318  0.35857075  0.57235187  1  0  0.09772  0  0.988228  0  0  0.109115  0  1.069941  0  0  0.112735  0  1.066261  0  0  0.078751  0.106357  0  1.072684  0
H  H17  1  0.64142988  0.25956820  0.92764622  1  0  0.097756  0  0.988245  0  0  0.109159  0  1.069939  0  0  0.112777  0  1.066263  0  0  0.078767  0.106402  0  1.07268  0
H  H18  1  0.25956692  0.64143110  0.42764897  1  0  0.097782  0  0.988221  0  0  0.109189  0  1.069909  0  0  0.11281  0  1.066226  0  0  0.078778  0.106431  0  1.072653  0
H  H19  1  0.35857097  0.74043062  0.07235188  1  0  0.097793  0  0.988221  0  0  0.10919  0  1.069922  0  0  0.112808  0  1.066243  0  0  0.078786  0.106432  0  1.072664  0
H  H20  1  0.88112992  0.49847189  0.60526819  1  0  0.106032  0  0.951668  0  0  0.125496  0  1.01242  0  0  0.126444  0  1.01403  0  0  0.08132  0.1248  0  1.011284  0
H  H21  1  0.50152846  0.11887206  0.89472929  1  0  0.106055  0  0.95165  0  0  0.125511  0  1.012402  0  0  0.126463  0  1.013999  0  0  0.081333  0.124812  0  1.011267  0
H  H22  1  0.11887165  0.50152996  0.39473196  1  0  0.106048  0  0.951724  0  0  0.12551  0  1.012469  0  0  0.126454  0  1.014085  0  0  0.081321  0.124813  0  1.011334  0
H  H23  1  0.49847093  0.88112676  0.10526891  1  0  0.106047  0  0.951681  0  0  0.12551  0  1.012423  0  0  0.126454  0  1.014041  0  0  0.081317  0.124812  0  1.011289  0
H  H24  1  0.72882456  0.36214906  0.67655445  1  0  0.099055  0  0.944382  0  0  0.119622  0  1.005961  0  0  0.120461  0  1.007392  0  0  0.08255  0.118989  0  1.005017  0
H  H25  1  0.63785133  0.27117796  0.82344357  1  0  0.099055  0  0.944416  0  0  0.119607  0  1.006006  0  0  0.120444  0  1.007437  0  0  0.082525  0.118972  0  1.00506  0
H  H26  1  0.27117664  0.63785430  0.32344621  1  0  0.099074  0  0.944403  0  0  0.119636  0  1.005989  0  0  0.120475  0  1.007418  0  0  0.082559  0.119004  0  1.005039  0
H  H27  1  0.36214914  0.72882238  0.17655445  1  0  0.099055  0  0.944445  0  0  0.119622  0  1.006022  0  0  0.120459  0  1.007453  0  0  0.082551  0.118984  0  1.005074  0
C  C28  1  0.24541081  0.37557717  0.66069368  1  0  0.25079  0  3.76813  0  0  0.239485  0  4.046249  0  0  0.248802  0  4.060173  0  0  0.211188  0.232833  0  4.037757  0
C  C29  1  0.62442478  0.75458588  0.83930551  1  0  0.250865  0  3.768045  0  0  0.239545  0  4.046165  0  0  0.248862  0  4.060091  0  0  0.211215  0.232895  0  4.037671  0
C  C30  1  0.75458820  0.62442317  0.33930677  1  0  0.250806  0  3.768134  0  0  0.239495  0  4.04625  0  0  0.248814  0  4.060174  0  0  0.211205  0.232847  0  4.03776  0
C  C31  1  0.37557791  0.24541144  0.16069432  1  0  0.2508  0  3.768164  0  0  0.23948  0  4.046299  0  0  0.248797  0  4.060225  0  0  0.21119  0.232831  0  4.037806  0
C  C32  1  0.00235096  0.17241025  0.62095036  1  0  -0.086578  0  3.634871  0  0  -0.115153  0  3.891187  0  0  -0.116337  0  3.903895  0  0  -0.152459  -0.11418  0  3.882515  0
C  C33  1  0.82758998  0.99765090  0.87904855  1  0  -0.086471  0  3.634807  0  0  -0.115113  0  3.891147  0  0  -0.116293  0  3.903847  0  0  -0.152508  -0.11414  0  3.882471  0
C  C34  1  0.99764806  0.82759009  0.37905067  1  0  -0.086682  0  3.635043  0  0  -0.115149  0  3.891206  0  0  -0.116376  0  3.903965  0  0  -0.152441  -0.114171  0  3.882528  0
C  C35  1  0.17241050  0.00234944  0.12095005  1  0  -0.086466  0  3.634857  0  0  -0.115072  0  3.89117  0  0  -0.116247  0  3.903854  0  0  -0.152453  -0.114098  0  3.882492  0
C  C36  1  0.82894255  0.35902474  0.61914556  1  0  -0.278571  0  3.707427  0  0  -0.350778  0  3.953755  0  0  -0.35505  0  3.966336  0  0  -0.257978  -0.34743  0  3.94508  0
C  C37  1  0.64097513  0.17105871  0.88085265  1  0  -0.278662  0  3.7075  0  0  -0.350853  0  3.953839  0  0  -0.355125  0  3.966426  0  0  -0.257983  -0.347505  0  3.945157  0
C  C38  1  0.17105977  0.64097409  0.38085476  1  0  -0.278653  0  3.707537  0  0  -0.350898  0  3.95386  0  0  -0.355156  0  3.966453  0  0  -0.258033  -0.347549  0  3.945179  0
C  C39  1  0.35902426  0.82894012  0.11914614  1  0  -0.278695  0  3.707568  0  0  -0.350914  0  3.953928  0  0  -0.355187  0  3.966518  0  0  -0.258032  -0.347564  0  3.945249  0
S  S40  1  0.15660839  0.16078389  0.69831078  1  0  0.011282  0  2.813182  0  0  0.013777  0  3.259454  0  0  0.021509  0  3.236048  0  0  -0.00673  0.007744  0  3.275814  0
S  S41  1  0.83921810  0.84338969  0.80168838  1  0  0.011215  0  2.813156  0  0  0.013722  0  3.259439  0  0  0.021457  0  3.236025  0  0  -0.006722  0.007673  0  3.275813  0
S  S42  1  0.84339171  0.83921796  0.30168948  1  0  0.011317  0  2.813192  0  0  0.013791  0  3.259417  0  0  0.021533  0  3.236032  0  0  -0.006739  0.007748  0  3.275789  0
S  S43  1  0.16078313  0.15660763  0.19831097  1  0  0.011269  0  2.813166  0  0  0.013782  0  3.259428  0  0  0.021514  0  3.236019  0  0  -0.006735  0.007727  0  3.27581  0
N  N44  1  0.23437213  0.52185495  0.70431795  1  0  -0.257975  0  3.254307  0  0  -0.211087  0  3.570541  0  0  -0.217758  0  3.572763  0  0  -0.266782  -0.20746  0  3.569779  0
N  N45  1  0.47814699  0.76562561  0.79568165  1  0  -0.257992  0  3.254275  0  0  -0.211068  0  3.57049  0  0  -0.217743  0  3.572721  0  0  -0.266792  -0.207441  0  3.569722  0
N  N46  1  0.76562872  0.47814388  0.29568248  1  0  -0.258002  0  3.254306  0  0  -0.211088  0  3.570537  0  0  -0.21776  0  3.57276  0  0  -0.266801  -0.207464  0  3.569783  0
N  N47  1  0.52185386  0.23437322  0.20431878  1  0  -0.257983  0  3.254355  0  0  -0.211076  0  3.570582  0  0  -0.217753  0  3.572816  0  0  -0.266798  -0.207451  0  3.569824  0
N  N48  1  0.31330230  0.66177815  0.65361918  1  0  -0.049147  0  3.226501  0  0  -0.009356  0  3.544205  0  0  -0.004817  0  3.541954  0  0  -0.153564  -0.013258  0  3.546798  0
N  N49  1  0.33822253  0.68669605  0.84638043  1  0  -0.049171  0  3.226543  0  0  -0.009407  0  3.544257  0  0  -0.004866  0  3.541998  0  0  -0.153573  -0.013314  0  3.546853  0
N  N50  1  0.68669964  0.33822219  0.34638164  1  0  -0.049061  0  3.226479  0  0  -0.009318  0  3.544211  0  0  -0.00478  0  3.541963  0  0  -0.15353  -0.013229  0  3.546816  0
N  N51  1  0.66177465  0.31330579  0.15362005  1  0  -0.049096  0  3.226486  0  0  -0.009326  0  3.544191  0  0  -0.004783  0  3.541937  0  0  -0.153534  -0.013237  0  3.546802  0
N  N52  1  0.36649698  0.60484003  0.58172191  1  0  -0.055288  0  3.232815  0  0  -0.015465  0  3.554063  0  0  -0.009779  0  3.549829  0  0  -0.152775  -0.02032  0  3.558053  0
N  N53  1  0.39516129  0.63350106  0.91827833  1  0  -0.055291  0  3.232823  0  0  -0.015462  0  3.554072  0  0  -0.009775  0  3.549833  0  0  -0.152776  -0.020312  0  3.558052  0
N  N54  1  0.63350496  0.39516031  0.41827833  1  0  -0.055294  0  3.232878  0  0  -0.015453  0  3.55413  0  0  -0.009764  0  3.549891  0  0  -0.152769  -0.0203  0  3.558112  0
N  N55  1  0.60483957  0.36649777  0.08172269  1  0  -0.055329  0  3.232867  0  0  -0.0155  0  3.554121  0  0  -0.009815  0  3.549885  0  0  -0.152802  -0.020355  0  3.558112  0
N  N56  1  0.32927894  0.42221444  0.58455204  1  0  -0.274602  0  3.251005  0  0  -0.223844  0  3.562009  0  0  -0.230348  0  3.564224  0  0  -0.271681  -0.220483  0  3.561313  0
N  N57  1  0.57778734  0.67071914  0.91544825  1  0  -0.274599  0  3.250914  0  0  -0.223832  0  3.561907  0  0  -0.230342  0  3.564132  0  0  -0.271684  -0.220473  0  3.561214  0
N  N58  1  0.67072117  0.57778741  0.41544822  1  0  -0.274652  0  3.251063  0  0  -0.223891  0  3.562064  0  0  -0.230398  0  3.564284  0  0  -0.271705  -0.220535  0  3.561376  0
N  N59  1  0.42221351  0.32927969  0.08455218  1  0  -0.274603  0  3.250963  0  0  -0.223836  0  3.561961  0  0  -0.230343  0  3.564178  0  0  -0.271672  -0.220471  0  3.561258  0
Cl  Cl60  1  0.65011114  0.93318236  0.57558302  1  0  -0.495793  0  1.451293  0  0  -0.414691  0  1.852315  0  0  -0.427371  0  1.814393  0  0  -0.280477  -0.406119  0  1.877256  0
Cl  Cl61  1  0.06681443  0.34988719  0.92441692  1  0  -0.495782  0  1.451294  0  0  -0.41467  0  1.852308  0  0  -0.427352  0  1.814379  0  0  -0.280467  -0.406113  0  1.87726  0
Cl  Cl62  1  0.34988933  0.06681797  0.42441675  1  0  -0.495782  0  1.451291  0  0  -0.414679  0  1.852314  0  0  -0.42736  0  1.814392  0  0  -0.280473  -0.406113  0  1.877261  0
Cl  Cl63  1  0.93318313  0.65011314  0.07558306  1  0  -0.495791  0  1.451285  0  0  -0.414674  0  1.85229  0  0  -0.427355  0  1.814361  0  0  -0.280468  -0.406118  0  1.877245  0
