# generated using pymatgen
data_ZnH10(C2O)5
_symmetry_space_group_name_H-M   'P 1'
_cell_length_a   5.71721068
_cell_length_b   8.79012945
_cell_length_c   20.79686130
_cell_angle_alpha   90.00021340
_cell_angle_beta   89.99871096
_cell_angle_gamma   89.99706247
_symmetry_Int_Tables_number   1
_chemical_formula_structural   ZnH10(C2O)5
_chemical_formula_sum   'Zn4 H40 C40 O20'
_cell_volume   1045.14671977
_cell_formula_units_Z   4
loop_
 _symmetry_equiv_pos_site_id
 _symmetry_equiv_pos_as_xyz
  1  'x, y, z'
loop_
 _atom_site_type_symbol
 _atom_site_label
 _atom_site_symmetry_multiplicity
 _atom_site_fract_x
 _atom_site_fract_y
 _atom_site_fract_z
 _atom_site_occupancy
 _atom_site_hle17_bader_spin_density
 _atom_site_hle17_ddec_charge
 _atom_site_hle17_ddec_spin_density
 _atom_site_hle17_ddec_sum_bond_order
 _atom_site_hle17_magmom
 _atom_site_hse06_10hf_bader_spin_density
 _atom_site_hse06_10hf_ddec_charge
 _atom_site_hse06_10hf_ddec_spin_density
 _atom_site_hse06_10hf_ddec_sum_bond_order
 _atom_site_hse06_10hf_magmom
 _atom_site_hse06_bader_spin_density
 _atom_site_hse06_ddec_charge
 _atom_site_hse06_ddec_spin_density
 _atom_site_hse06_ddec_sum_bond_order
 _atom_site_hse06_magmom
 _atom_site_pbe_bader_charge
 _atom_site_pbe_bader_spin_density
 _atom_site_pbe_cm5_charge
 _atom_site_pbe_ddec_charge
 _atom_site_pbe_ddec_spin_density
 _atom_site_pbe_ddec_sum_bond_order
 _atom_site_pbe_magmom
Zn  Zn0  1  0.04406569  0.04557449  0.97598958  1  0  1.186692  0  1.69572  0  0  1.011445  0  2.17608  0  0  1.061653  0  2.110633  0  1.330181  0  0.694034  0.975748  0  2.221723  0
Zn  Zn1  1  0.45594212  0.95442586  0.47598769  1  0  1.18668  0  1.695651  0  0  1.01142  0  2.175993  0  0  1.061616  0  2.110551  0  1.330154  0  0.694063  0.975716  0  2.221625  0
Zn  Zn2  1  0.54404746  0.45442355  0.02400651  1  0  1.186677  0  1.69572  0  0  1.011416  0  2.176096  0  0  1.06162  0  2.110649  0  1.330005  0  0.694015  0.975711  0  2.221737  0
Zn  Zn3  1  0.95593100  0.54558248  0.52400936  1  0  1.186709  0  1.695638  0  0  1.011466  0  2.175993  0  0  1.061653  0  2.110541  0  1.33009  0  0.694018  0.975751  0  2.221627  0
H  H4  1  0.84581369  0.80309877  0.02781814  1  0  0.445827  0  0.85382  0  0  0.412644  0  0.919671  0  0  0.423759  0  0.903428  0  0.67055  0  0.29829  0.404708  0  0.931296  0
H  H5  1  0.65417815  0.19691415  0.52781715  1  0  0.445759  0  0.853909  0  0  0.412719  0  0.919572  0  0  0.423801  0  0.903367  0  0.670443  0  0.298359  0.4048  0  0.931182  0
H  H6  1  0.34580518  0.69692208  0.97218132  1  0  0.445799  0  0.853837  0  0  0.412708  0  0.919578  0  0  0.423816  0  0.903337  0  0.670447  0  0.298319  0.404773  0  0.931202  0
H  H7  1  0.15417177  0.30308275  0.47218375  1  0  0.445737  0  0.853933  0  0  0.412682  0  0.919624  0  0  0.423766  0  0.903416  0  0.670419  0  0.298359  0.404747  0  0.931247  0
H  H8  1  0.67078218  0.86919145  0.97299586  1  0  0.434795  0  0.871883  0  0  0.402833  0  0.935944  0  0  0.413241  0  0.921058  0  0.646231  0  0.295668  0.395424  0  0.946589  0
H  H9  1  0.82922950  0.13080884  0.47299878  1  0  0.434792  0  0.871882  0  0  0.402809  0  0.935984  0  0  0.413215  0  0.921101  0  0.646385  0  0.29563  0.3954  0  0.94663  0
H  H10  1  0.17076213  0.63082940  0.02700263  1  0  0.434688  0  0.872045  0  0  0.402816  0  0.93598  0  0  0.413225  0  0.921091  0  0.646108  0  0.29568  0.395406  0  0.946628  0
H  H11  1  0.32922121  0.36918351  0.52700020  1  0  0.434851  0  0.871801  0  0  0.402868  0  0.9359  0  0  0.413271  0  0.921023  0  0.646166  0  0.295683  0.395459  0  0.946548  0
H  H12  1  0.03445862  0.74728600  0.65412948  1  0  0.112203  0  0.926989  0  0  0.128639  0  0.985347  0  0  0.130318  0  0.985818  0  0.076904  0  0.105355  0.127537  0  0.984995  0
H  H13  1  0.46551617  0.25271322  0.15413768  1  0  0.112164  0  0.92701  0  0  0.128559  0  0.985434  0  0  0.130229  0  0.985912  0  0.076609  0  0.105354  0.127457  0  0.985079  0
H  H14  1  0.53442301  0.75268935  0.34586373  1  0  0.11221  0  0.926894  0  0  0.12865  0  0.985309  0  0  0.13033  0  0.985769  0  0.076145  0  0.105371  0.127548  0  0.98496  0
H  H15  1  0.96556749  0.24730529  0.84586322  1  0  0.112277  0  0.926921  0  0  0.128723  0  0.985311  0  0  0.130403  0  0.985773  0  0.076242  0  0.105429  0.127621  0  0.98496  0
H  H16  1  0.80562854  0.81653826  0.60678676  1  0  0.118513  0  0.918256  0  0  0.13587  0  0.972426  0  0  0.138231  0  0.971555  0  0.077045  0  0.107656  0.134154  0  0.973195  0
H  H17  1  0.69435737  0.18347378  0.10679496  1  0  0.118482  0  0.918182  0  0  0.135793  0  0.972424  0  0  0.138169  0  0.971524  0  0.077165  0  0.1076  0.134063  0  0.973208  0
H  H18  1  0.30560148  0.68344391  0.39320982  1  0  0.118469  0  0.918182  0  0  0.135874  0  0.972336  0  0  0.138232  0  0.971465  0  0.076897  0  0.107649  0.134176  0  0.973083  0
H  H19  1  0.19438490  0.31654019  0.89320978  1  0  0.118508  0  0.918219  0  0  0.135871  0  0.972406  0  0  0.138233  0  0.971538  0  0.076963  0  0.107647  0.134164  0  0.973164  0
H  H20  1  0.16267630  0.01962570  0.67636360  1  0  0.080996  0  0.945325  0  0  0.097461  0  1.009657  0  0  0.097866  0  1.010633  0  0.057283  0  0.094838  0.096993  0  1.009466  0
H  H21  1  0.33733682  0.98036482  0.17637036  1  0  0.081085  0  0.945323  0  0  0.097537  0  1.009626  0  0  0.097935  0  1.0106  0  0.057321  0  0.09486  0.097056  0  1.009435  0
H  H22  1  0.66266792  0.48034163  0.32363105  1  0  0.081058  0  0.945373  0  0  0.097521  0  1.009649  0  0  0.097918  0  1.010631  0  0.057514  0  0.094875  0.097051  0  1.009449  0
H  H23  1  0.83734721  0.51965604  0.82363582  1  0  0.081077  0  0.945505  0  0  0.097563  0  1.009691  0  0  0.097966  0  1.010675  0  0.057381  0  0.094926  0.097096  0  1.009493  0
H  H24  1  0.92101837  0.08572785  0.63111302  1  0  0.084884  0  0.926365  0  0  0.102221  0  0.985162  0  0  0.103524  0  0.984568  0  0.040268  0  0.096214  0.101369  0  0.985379  0
H  H25  1  0.57899854  0.91427666  0.13111642  1  0  0.08495  0  0.926346  0  0  0.102258  0  0.985158  0  0  0.103555  0  0.984559  0  0.040333  0  0.096205  0.101398  0  0.985369  0
H  H26  1  0.42100962  0.41424971  0.36888355  1  0  0.084878  0  0.92642  0  0  0.102269  0  0.985126  0  0  0.103567  0  0.984528  0  0.040076  0  0.096185  0.10141  0  0.985342  0
H  H27  1  0.07900347  0.58573624  0.86888833  1  0  0.084987  0  0.926288  0  0  0.102271  0  0.985084  0  0  0.103575  0  0.984489  0  0.040134  0  0.096214  0.101419  0  0.985303  0
H  H28  1  0.04906827  0.81463641  0.76777018  1  0  0.09308  0  0.957336  0  0  0.104748  0  1.018319  0  0  0.106694  0  1.019453  0  0.063553  0  0.099709  0.103007  0  1.018428  0
H  H29  1  0.45094213  0.18536254  0.26778031  1  0  0.093065  0  0.957411  0  0  0.104772  0  1.018335  0  0  0.106713  0  1.019484  0  0.063798  0  0.099706  0.103032  0  1.018445  0
H  H30  1  0.54902865  0.68534690  0.23222350  1  0  0.093205  0  0.957498  0  0  0.104911  0  1.018413  0  0  0.106855  0  1.019556  0  0.063781  0  0.099755  0.103169  0  1.018524  0
H  H31  1  0.95097171  0.31463891  0.73223020  1  0  0.093175  0  0.957474  0  0  0.104878  0  1.018406  0  0  0.106824  0  1.019543  0  0.063839  0  0.099749  0.103136  0  1.018516  0
H  H32  1  0.79289020  0.78920873  0.86351107  1  0  0.093767  0  0.963469  0  0  0.101681  0  1.031136  0  0  0.105243  0  1.028102  0  0.089853  0  0.104357  0.099031  0  1.03354  0
H  H33  1  0.70713415  0.21078622  0.36351976  1  0  0.093808  0  0.963459  0  0  0.101684  0  1.031165  0  0  0.105245  0  1.028133  0  0.089667  0  0.104323  0.099068  0  1.033535  0
H  H34  1  0.29283787  0.71077003  0.13648454  1  0  0.093841  0  0.963493  0  0  0.101686  0  1.031214  0  0  0.105247  0  1.028181  0  0.089859  0  0.104356  0.099089  0  1.033564  0
H  H35  1  0.20714154  0.28922433  0.63648451  1  0  0.093809  0  0.963437  0  0  0.101678  0  1.031146  0  0  0.10524  0  1.028114  0  0.089725  0  0.104375  0.099062  0  1.033518  0
H  H36  1  0.32606031  0.12605399  0.78587580  1  0  0.096657  0  0.964087  0  0  0.104837  0  1.030852  0  0  0.107395  0  1.030139  0  0.093885  0  0.101798  0.10286  0  1.031863  0
H  H37  1  0.17398036  0.87397372  0.28586669  1  0  0.096653  0  0.963929  0  0  0.104825  0  1.030718  0  0  0.107384  0  1.030005  0  0.093486  0  0.101776  0.102843  0  1.031722  0
H  H38  1  0.82602891  0.37396225  0.21413424  1  0  0.096665  0  0.963996  0  0  0.104873  0  1.030738  0  0  0.107432  0  1.030025  0  0.093588  0  0.101792  0.10289  0  1.031742  0
H  H39  1  0.67395868  0.62603348  0.71413132  1  0  0.096593  0  0.963924  0  0  0.104769  0  1.030721  0  0  0.107327  0  1.030009  0  0.093855  0  0.101779  0.102787  0  1.03173  0
H  H40  1  0.57541038  0.14561484  0.68827213  1  0  0.094419  0  0.973633  0  0  0.102419  0  1.040465  0  0  0.104958  0  1.040362  0  0.072779  0  0.097348  0.100543  0  1.040887  0
H  H41  1  0.92461292  0.85440660  0.18826591  1  0  0.094399  0  0.973534  0  0  0.102417  0  1.040373  0  0  0.104956  0  1.040267  0  0.07342  0  0.097328  0.100539  0  1.0408  0
H  H42  1  0.07540643  0.35438775  0.31173166  1  0  0.094366  0  0.973523  0  0  0.102379  0  1.040376  0  0  0.104917  0  1.040271  0  0.0728  0  0.097327  0.100501  0  1.040801  0
H  H43  1  0.42461077  0.64559719  0.81173643  1  0  0.094429  0  0.973414  0  0  0.102389  0  1.040328  0  0  0.104926  0  1.040223  0  0.073298  0  0.097318  0.100513  0  1.040749  0
C  C44  1  0.14257203  0.84489926  0.56619217  1  0  0.732751  0  3.796537  0  0  0.685002  0  4.087566  0  0  0.720174  0  4.080165  0  1.551368  0  0.225655  0.660955  0  4.091716  0
C  C45  1  0.35741540  0.15509955  0.06619749  1  0  0.732695  0  3.796563  0  0  0.685033  0  4.087466  0  0  0.720224  0  4.080031  0  1.551235  0  0.225669  0.660985  0  4.091619  0
C  C46  1  0.64256016  0.65508178  0.43380296  1  0  0.73235  0  3.796888  0  0  0.68474  0  4.087747  0  0  0.719915  0  4.080341  0  1.551084  0  0.225448  0.66069  0  4.091901  0
C  C47  1  0.85743170  0.34490986  0.93380245  1  0  0.732842  0  3.796481  0  0  0.685288  0  4.087234  0  0  0.720473  0  4.079813  0  1.55109  0  0.225709  0.661238  0  4.091393  0
C  C48  1  0.98270605  0.84442082  0.62388405  1  0  -0.269939  0  3.677036  0  0  -0.306485  0  3.922178  0  0  -0.313119  0  3.930193  0  -0.022545  0  -0.160705  -0.301906  0  3.916421  0
C  C49  1  0.51727706  0.15558128  0.12389177  1  0  -0.26973  0  3.676903  0  0  -0.306214  0  3.921944  0  0  -0.312849  0  3.929916  0  -0.021963  0  -0.160646  -0.301637  0  3.916171  0
C  C50  1  0.48268443  0.65555794  0.37611108  1  0  -0.269596  0  3.676586  0  0  -0.306333  0  3.92185  0  0  -0.312958  0  3.929837  0  -0.020996  0  -0.160607  -0.301775  0  3.916082  0
C  C51  1  0.01731174  0.34443155  0.87611057  1  0  -0.269873  0  3.676724  0  0  -0.306577  0  3.921856  0  0  -0.313214  0  3.929875  0  -0.021276  0  -0.160719  -0.302006  0  3.9161  0
C  C52  1  0.98185689  0.99284105  0.66222445  1  0  -0.133253  0  3.714578  0  0  -0.180124  0  3.96751  0  0  -0.1799  0  3.979158  0  0.001548  0  -0.161876  -0.180009  0  3.95922  0
C  C53  1  0.51815318  0.00716173  0.16222929  1  0  -0.133539  0  3.714716  0  0  -0.180372  0  3.967589  0  0  -0.180122  0  3.979195  0  0.001407  0  -0.161911  -0.18021  0  3.959234  0
C  C54  1  0.48184745  0.50713772  0.33777212  1  0  -0.133655  0  3.714817  0  0  -0.180488  0  3.967655  0  0  -0.180245  0  3.979269  0  0.001318  0  -0.161973  -0.180347  0  3.95934  0
C  C55  1  0.01816024  0.49285564  0.83777690  1  0  -0.133575  0  3.714736  0  0  -0.180294  0  3.967505  0  0  -0.180074  0  3.979162  0  0.001612  0  -0.161992  -0.180178  0  3.959222  0
C  C56  1  0.82999217  0.98190657  0.72114969  1  0  0.118143  0  3.71796  0  0  0.136979  0  3.955146  0  0  0.13927  0  3.978503  0  -0.022036  0  0.000776  0.135645  0  3.939104  0
C  C57  1  0.67002225  0.01810066  0.22115260  1  0  0.118142  0  3.717954  0  0  0.137043  0  3.955047  0  0  0.139323  0  3.978403  0  -0.021903  0  0.000876  0.135698  0  3.938994  0
C  C58  1  0.32997490  0.51808015  0.27884881  1  0  0.118353  0  3.71782  0  0  0.137228  0  3.954919  0  0  0.139511  0  3.978273  0  -0.022173  0  0.000881  0.135884  0  3.938872  0
C  C59  1  0.17003194  0.48190989  0.77885118  1  0  0.118065  0  3.718061  0  0  0.136929  0  3.955136  0  0  0.139222  0  3.97849  0  -0.021948  0  0.000739  0.135592  0  3.939094  0
C  C60  1  0.88951793  0.88240450  0.77136111  1  0  -0.122575  0  3.719455  0  0  -0.139285  0  3.967605  0  0  -0.144327  0  3.989742  0  -0.068588  0  -0.092031  -0.135927  0  3.952981  0
C  C61  1  0.61049701  0.11759793  0.27136739  1  0  -0.122543  0  3.719417  0  0  -0.139302  0  3.967541  0  0  -0.144346  0  3.989681  0  -0.068715  0  -0.092091  -0.135948  0  3.952931  0
C  C62  1  0.38948621  0.61758223  0.22863546  1  0  -0.122635  0  3.719562  0  0  -0.139385  0  3.967628  0  0  -0.144431  0  3.989769  0  -0.068211  0  -0.092045  -0.136031  0  3.953026  0
C  C63  1  0.11050611  0.38241262  0.72863976  1  0  -0.122597  0  3.719524  0  0  -0.139366  0  3.967641  0  0  -0.144408  0  3.989776  0  -0.068462  0  -0.092023  -0.136008  0  3.953032  0
C  C64  1  0.74756951  0.86860768  0.82528752  1  0  -0.058254  0  3.752476  0  0  -0.08457  0  4.005672  0  0  -0.082568  0  4.025293  0  -0.018373  0  -0.082947  -0.08549  0  3.99208  0
C  C65  1  0.75244885  0.13139570  0.32529236  1  0  -0.05832  0  3.752422  0  0  -0.084606  0  4.00564  0  0  -0.082604  0  4.025263  0  -0.01833  0  -0.08295  -0.085555  0  3.992039  0
C  C66  1  0.24753045  0.63138132  0.17471146  1  0  -0.058279  0  3.752423  0  0  -0.084547  0  4.005674  0  0  -0.082545  0  4.025296  0  -0.018421  0  -0.082952  -0.085506  0  3.992049  0
C  C67  1  0.25245146  0.36861372  0.67471143  1  0  -0.058129  0  3.752377  0  0  -0.084413  0  4.005589  0  0  -0.082412  0  4.025212  0  -0.018441  0  -0.082911  -0.08536  0  3.991979  0
C  C68  1  0.54277698  0.95602738  0.83097203  1  0  -0.10287  0  3.787155  0  0  -0.0795  0  4.022419  0  0  -0.090357  0  4.047115  0  -0.002045  0  -0.029371  -0.07213  0  4.005605  0
C  C69  1  0.95724395  0.04398065  0.33097158  1  0  -0.102913  0  3.787282  0  0  -0.079564  0  4.022514  0  0  -0.09042  0  4.047213  0  -0.00202  0  -0.029283  -0.072195  0  4.005704  0
C  C70  1  0.04274388  0.54396845  0.16903128  1  0  -0.102989  0  3.787054  0  0  -0.079619  0  4.022307  0  0  -0.090474  0  4.047007  0  -0.002138  0  -0.02931  -0.07225  0  4.005504  0
C  C71  1  0.45723546  0.45602876  0.66902980  1  0  -0.103197  0  3.787526  0  0  -0.079812  0  4.022741  0  0  -0.090671  0  4.047441  0  -0.002435  0  -0.029405  -0.072442  0  4.005936  0
C  C72  1  0.48401722  0.05749068  0.78153428  1  0  -0.051681  0  3.738799  0  0  -0.075096  0  3.983902  0  0  -0.072814  0  4.004237  0  -0.101152  0  -0.082785  -0.076588  0  3.971206  0
C  C73  1  0.01600667  0.94252330  0.28152902  1  0  -0.051548  0  3.738504  0  0  -0.074966  0  3.983643  0  0  -0.072682  0  4.003976  0  -0.100649  0  -0.082806  -0.076445  0  3.970932  0
C  C74  1  0.98399004  0.44251304  0.21847287  1  0  -0.051592  0  3.73865  0  0  -0.075039  0  3.983782  0  0  -0.072752  0  4.004104  0  -0.100909  0  -0.082832  -0.07652  0  3.971072  0
C  C75  1  0.51599858  0.55748163  0.71847188  1  0  -0.051375  0  3.738614  0  0  -0.074799  0  3.983734  0  0  -0.072515  0  4.00407  0  -0.100636  0  -0.082733  -0.076285  0  3.971032  0
C  C76  1  0.62513856  0.06872781  0.72710587  1  0  -0.140106  0  3.738002  0  0  -0.156181  0  3.983722  0  0  -0.161511  0  4.005349  0  -0.054473  0  -0.095317  -0.152725  0  3.969784  0
C  C77  1  0.87488363  0.93128408  0.22710350  1  0  -0.140123  0  3.737847  0  0  -0.156247  0  3.983579  0  0  -0.161577  0  4.005209  0  -0.055387  0  -0.095323  -0.152795  0  3.969641  0
C  C78  1  0.12512360  0.43126795  0.27289647  1  0  -0.140205  0  3.737842  0  0  -0.156339  0  3.983623  0  0  -0.161667  0  4.005249  0  -0.054824  0  -0.095379  -0.152885  0  3.969682  0
C  C79  1  0.37488597  0.56872199  0.77290076  1  0  -0.140212  0  3.737874  0  0  -0.1563  0  3.98366  0  0  -0.161628  0  4.005284  0  -0.055512  0  -0.095356  -0.152844  0  3.96972  0
C  C80  1  0.39012938  0.93727503  0.88853071  1  0  0.674305  0  3.877871  0  0  0.618973  0  4.169966  0  0  0.654512  0  4.161351  0  1.53453  0  0.222471  0.594798  0  4.174896  0
C  C81  1  0.10988574  0.06272150  0.38853171  1  0  0.674078  0  3.878117  0  0  0.618855  0  4.170081  0  0  0.654384  0  4.161468  0  1.534846  0  0.222392  0.594678  0  4.175011  0
C  C82  1  0.89010613  0.56272421  0.11146922  1  0  0.674072  0  3.878045  0  0  0.61879  0  4.170096  0  0  0.654321  0  4.161486  0  1.534416  0  0.222343  0.594612  0  4.175028  0
C  C83  1  0.60987902  0.43728336  0.61146823  1  0  0.674198  0  3.878222  0  0  0.618963  0  4.170189  0  0  0.654495  0  4.161571  0  1.534726  0  0.222373  0.594786  0  4.175122  0
O  O84  1  0.20997677  0.02348534  0.89335259  1  0  -0.657109  0  2.099587  0  0  -0.584581  0  2.384977  0  0  -0.6145  0  2.369565  0  -1.167314  0  -0.310361  -0.563639  0  2.395041  0
O  O85  1  0.29003757  0.97651127  0.39335022  1  0  -0.65697  0  2.099607  0  0  -0.584477  0  2.384967  0  0  -0.614395  0  2.369559  0  -1.167511  0  -0.310365  -0.563531  0  2.395024  0
O  O86  1  0.70996253  0.47651952  0.10664205  1  0  -0.656968  0  2.099604  0  0  -0.584431  0  2.384924  0  0  -0.61435  0  2.36952  0  -1.167245  0  -0.310342  -0.563484  0  2.394977  0
O  O87  1  0.79001116  0.52349593  0.60664491  1  0  -0.656992  0  2.099635  0  0  -0.584531  0  2.385053  0  0  -0.614445  0  2.369641  0  -1.167312  0  -0.310302  -0.563574  0  2.395091  0
O  O88  1  0.44478116  0.83701635  0.93012016  1  0  -0.66839  0  2.067861  0  0  -0.600376  0  2.29026  0  0  -0.624979  0  2.276335  0  -1.217172  0  -0.315673  -0.583277  0  2.299522  0
O  O89  1  0.05523765  0.16297409  0.43012596  1  0  -0.668244  0  2.067882  0  0  -0.600317  0  2.290267  0  0  -0.624892  0  2.27634  0  -1.217305  0  -0.315628  -0.583222  0  2.299538  0
O  O90  1  0.94475065  0.66298972  0.06988314  1  0  -0.668289  0  2.067868  0  0  -0.600317  0  2.290253  0  0  -0.624907  0  2.276331  0  -1.21704  0  -0.315621  -0.583224  0  2.299525  0
O  O91  1  0.55524305  0.33702736  0.56987686  1  0  -0.668331  0  2.06792  0  0  -0.60041  0  2.290309  0  0  -0.624984  0  2.27638  0  -1.217306  0  -0.315677  -0.583321  0  2.299588  0
O  O92  1  0.15801133  0.72766859  0.53006701  1  0  -0.67757  0  2.060801  0  0  -0.608141  0  2.342393  0  0  -0.63829  0  2.324965  0  -1.193307  0  -0.324854  -0.586945  0  2.353707  0
O  O93  1  0.34198726  0.27232959  0.03007136  1  0  -0.67752  0  2.060916  0  0  -0.608127  0  2.34249  0  0  -0.638292  0  2.325059  0  -1.193713  0  -0.324802  -0.58693  0  2.3538  0
O  O94  1  0.65801180  0.77232383  0.46992187  1  0  -0.677416  0  2.061119  0  0  -0.608032  0  2.342664  0  0  -0.638186  0  2.32524  0  -1.193271  0  -0.324794  -0.586844  0  2.353993  0
O  O95  1  0.84200388  0.22767983  0.96992713  1  0  -0.677624  0  2.061018  0  0  -0.608271  0  2.34255  0  0  -0.638428  0  2.325116  0  -1.193646  0  -0.324865  -0.587081  0  2.353875  0
O  O96  1  0.26339696  0.96399980  0.55490825  1  0  -0.627444  0  2.006981  0  0  -0.548738  0  2.262229  0  0  -0.578182  0  2.246557  0  -1.163361  0  -0.309117  -0.528121  0  2.272674  0
O  O97  1  0.23659056  0.03599882  0.05491357  1  0  -0.627462  0  2.00695  0  0  -0.548836  0  2.262216  0  0  -0.578291  0  2.246533  0  -1.163185  0  -0.30918  -0.528222  0  2.272668  0
O  O98  1  0.76337754  0.53597328  0.44509168  1  0  -0.627341  0  2.007044  0  0  -0.548694  0  2.262247  0  0  -0.578137  0  2.24657  0  -1.163652  0  -0.309057  -0.528074  0  2.272692  0
O  O99  1  0.73658449  0.46401287  0.94508396  1  0  -0.627549  0  2.006955  0  0  -0.548908  0  2.262133  0  0  -0.578356  0  2.246448  0  -1.163308  0  -0.309198  -0.528292  0  2.272585  0
O  O100  1  0.80298862  0.89575703  0.00261097  1  0  -0.857769  0  1.879512  0  0  -0.782578  0  2.100603  0  0  -0.8062  0  2.062161  0  -1.27551  0  -0.579079  -0.765913  0  2.127583  0
O  O101  1  0.69700735  0.10424749  0.50261431  1  0  -0.85779  0  1.879597  0  0  -0.782672  0  2.100462  0  0  -0.80626  0  2.062098  0  -1.27558  0  -0.579121  -0.76602  0  2.127398  0
O  O102  1  0.30296610  0.60425700  0.99738272  1  0  -0.857764  0  1.879655  0  0  -0.782715  0  2.10043  0  0  -0.806318  0  2.062011  0  -1.275233  0  -0.579148  -0.766048  0  2.127407  0
O  O103  1  0.19700497  0.39574486  0.49738563  1  0  -0.857831  0  1.879557  0  0  -0.782697  0  2.100415  0  0  -0.806283  0  2.062046  0  -1.275288  0  -0.579165  -0.766027  0  2.127387  0
