# generated using pymatgen
data_AgH10C7N3O2
_symmetry_space_group_name_H-M   'P 1'
_cell_length_a   8.23213429
_cell_length_b   10.47856425
_cell_length_c   11.22523426
_cell_angle_alpha   110.94666066
_cell_angle_beta   100.19050625
_cell_angle_gamma   102.59774792
_symmetry_Int_Tables_number   1
_chemical_formula_structural   AgH10C7N3O2
_chemical_formula_sum   'Ag4 H40 C28 N12 O8'
_cell_volume   847.32209315
_cell_formula_units_Z   4
loop_
 _symmetry_equiv_pos_site_id
 _symmetry_equiv_pos_as_xyz
  1  'x, y, z'
loop_
 _atom_site_type_symbol
 _atom_site_label
 _atom_site_symmetry_multiplicity
 _atom_site_fract_x
 _atom_site_fract_y
 _atom_site_fract_z
 _atom_site_occupancy
 _atom_site_hle17_bader_spin_density
 _atom_site_hle17_ddec_charge
 _atom_site_hle17_ddec_spin_density
 _atom_site_hle17_ddec_sum_bond_order
 _atom_site_hle17_magmom
 _atom_site_hse06_10hf_bader_spin_density
 _atom_site_hse06_10hf_ddec_charge
 _atom_site_hse06_10hf_ddec_spin_density
 _atom_site_hse06_10hf_ddec_sum_bond_order
 _atom_site_hse06_10hf_magmom
 _atom_site_hse06_bader_spin_density
 _atom_site_hse06_ddec_charge
 _atom_site_hse06_ddec_spin_density
 _atom_site_hse06_ddec_sum_bond_order
 _atom_site_hse06_magmom
 _atom_site_pbe_bader_spin_density
 _atom_site_pbe_cm5_charge
 _atom_site_pbe_ddec_charge
 _atom_site_pbe_ddec_spin_density
 _atom_site_pbe_ddec_sum_bond_order
 _atom_site_pbe_magmom
Ag  Ag0  1  0.43294596  0.14708600  0.36061151  1  0  0.541679  0  1.573949  0  0  0.446245  0  2.035498  0  0  0.468909  0  1.985952  0  0  0.465013  0.429801  0  2.07023  0
Ag  Ag1  1  0.56705480  0.85291218  0.63938904  1  0  0.541672  0  1.573947  0  0  0.446228  0  2.035514  0  0  0.468891  0  1.985969  0  0  0.465007  0.429782  0  2.070248  0
Ag  Ag2  1  0.11807514  0.14474612  0.18065146  1  0  0.55541  0  1.476797  0  0  0.425762  0  1.93638  0  0  0.462836  0  1.877986  0  0  0.439841  0.400166  0  1.976487  0
Ag  Ag3  1  0.88192642  0.85525421  0.81934993  1  0  0.5554  0  1.47681  0  0  0.425769  0  1.936366  0  0  0.462845  0  1.877967  0  0  0.43984  0.400171  0  1.976474  0
H  H4  1  0.63994666  0.25937853  0.75533007  1  0  0.092552  0  0.931365  0  0  0.108867  0  0.991119  0  0  0.109638  0  0.99179  0  0  0.117394  0.108168  0  0.990764  0
H  H5  1  0.36005525  0.74062610  0.24467193  1  0  0.092564  0  0.931371  0  0  0.108874  0  0.991124  0  0  0.109625  0  0.991818  0  0  0.117388  0.108177  0  0.990768  0
H  H6  1  0.63039209  0.12096533  0.60731720  1  0  0.060854  0  0.966518  0  0  0.072272  0  1.045879  0  0  0.07331  0  1.044144  0  0  0.100515  0.071105  0  1.0477  0
H  H7  1  0.36960987  0.87903608  0.39268460  1  0  0.060855  0  0.966546  0  0  0.072262  0  1.045899  0  0  0.073301  0  1.044158  0  0  0.100526  0.071093  0  1.047722  0
H  H8  1  0.46842480  0.35983618  0.60069785  1  0  0.102377  0  0.954062  0  0  0.112964  0  1.011716  0  0  0.115098  0  1.011837  0  0  0.106341  0.111087  0  1.012278  0
H  H9  1  0.53157143  0.64016309  0.39930159  1  0  0.102412  0  0.954017  0  0  0.112954  0  1.011736  0  0  0.115086  0  1.011859  0  0  0.106339  0.111076  0  1.0123  0
H  H10  1  0.30893115  0.03779464  0.53750461  1  0  0.132641  0  0.994499  0  0  0.141295  0  1.057828  0  0  0.144688  0  1.056637  0  0  0.093423  0.138779  0  1.058923  0
H  H11  1  0.69106838  0.96220357  0.46249400  1  0  0.132616  0  0.994478  0  0  0.141273  0  1.057816  0  0  0.144666  0  1.056625  0  0  0.093408  0.138757  0  1.058911  0
H  H12  1  0.19165061  0.16141803  0.50879611  1  0  0.13723  0  0.984942  0  0  0.147264  0  1.042898  0  0  0.149633  0  1.043317  0  0  0.098225  0.145484  0  1.042769  0
H  H13  1  0.80835015  0.83858019  0.49120177  1  0  0.137228  0  0.984944  0  0  0.147264  0  1.042897  0  0  0.149633  0  1.043317  0  0  0.098214  0.145484  0  1.042768  0
H  H14  1  0.82592160  0.48821487  0.83546159  1  0  0.076155  0  0.938271  0  0  0.0913  0  1.004742  0  0  0.0922  0  1.003739  0  0  0.106717  0.090463  0  1.005652  0
H  H15  1  0.17407992  0.51178870  0.16453911  1  0  0.076101  0  0.938336  0  0  0.091284  0  1.004769  0  0  0.092184  0  1.003763  0  0  0.106716  0.090445  0  1.005681  0
H  H16  1  0.99219683  0.51837985  0.76098189  1  0  0.087127  0  0.945  0  0  0.101179  0  1.013129  0  0  0.102555  0  1.011328  0  0  0.114177  0.100196  0  1.014339  0
H  H17  1  0.00780187  0.48161943  0.23901698  1  0  0.087128  0  0.944972  0  0  0.101187  0  1.013105  0  0  0.10256  0  1.011305  0  0  0.114181  0.100203  0  1.014314  0
H  H18  1  0.09158028  0.45051005  0.95270022  1  0  0.069772  0  0.992634  0  0  0.086243  0  1.048012  0  0  0.087552  0  1.048649  0  0  0.095079  0.085256  0  1.047679  0
H  H19  1  0.90841960  0.54949244  0.04730079  1  0  0.069766  0  0.992654  0  0  0.086241  0  1.048021  0  0  0.087551  0  1.048658  0  0  0.095085  0.085254  0  1.047688  0
H  H20  1  0.94285588  0.15649414  0.71402137  1  0  0.112851  0  0.974067  0  0  0.128889  0  1.034353  0  0  0.131233  0  1.033578  0  0  0.088216  0.127176  0  1.035118  0
H  H21  1  0.05714529  0.84350513  0.28597871  1  0  0.112832  0  0.974119  0  0  0.128858  0  1.034415  0  0  0.131203  0  1.033639  0  0  0.0882  0.127146  0  1.035179  0
H  H22  1  0.10265405  0.20900402  0.87620126  1  0  0.132802  0  0.982989  0  0  0.142815  0  1.04953  0  0  0.146663  0  1.047144  0  0  0.091885  0.14004  0  1.051232  0
H  H23  1  0.89734500  0.79099952  0.12380179  1  0  0.132791  0  0.982917  0  0  0.142779  0  1.049507  0  0  0.146625  0  1.047123  0  0  0.091871  0.140004  0  1.051208  0
H  H24  1  0.39750096  0.83726219  0.89818044  1  0  0.106696  0  0.931411  0  0  0.124077  0  0.987785  0  0  0.125535  0  0.988341  0  0  0.103053  0.123017  0  0.987566  0
H  H25  1  0.60249937  0.16273816  0.10181900  1  0  0.1067  0  0.93139  0  0  0.124085  0  0.987768  0  0  0.125547  0  0.988326  0  0  0.103054  0.123024  0  0.98755  0
H  H26  1  0.18715634  0.72945565  0.86860524  1  0  0.098302  0  0.947615  0  0  0.114616  0  1.008801  0  0  0.116282  0  1.008555  0  0  0.097661  0.113472  0  1.008959  0
H  H27  1  0.81284562  0.27054577  0.13139479  1  0  0.098256  0  0.947609  0  0  0.114593  0  1.008781  0  0  0.11627  0  1.008528  0  0  0.097645  0.113447  0  1.008943  0
H  H28  1  0.30271772  0.62627210  0.02493014  1  0  0.051877  0  0.964407  0  0  0.071467  0  1.029154  0  0  0.071819  0  1.029654  0  0  0.085134  0.071236  0  1.028782  0
H  H29  1  0.69728221  0.37372718  0.97506889  1  0  0.05191  0  0.964421  0  0  0.071513  0  1.029146  0  0  0.071864  0  1.029648  0  0  0.085159  0.071283  0  1.028771  0
H  H30  1  0.51501339  0.73669797  0.05669632  1  0  0.070106  0  0.938704  0  0  0.090321  0  0.9978  0  0  0.091521  0  0.997656  0  0  0.092579  0.089455  0  0.997888  0
H  H31  1  0.48498694  0.26330238  0.94330313  1  0  0.070122  0  0.938667  0  0  0.090336  0  0.997768  0  0  0.091537  0  0.997624  0  0  0.092592  0.08947  0  0.997856  0
H  H32  1  0.45903228  0.48852808  0.88722343  1  0  0.098164  0  0.935795  0  0  0.117259  0  0.990051  0  0  0.118509  0  0.99083  0  0  0.097164  0.116322  0  0.989789  0
H  H33  1  0.54096805  0.51147225  0.11277779  1  0  0.098173  0  0.93582  0  0  0.117264  0  0.990068  0  0  0.118513  0  0.990847  0  0  0.097167  0.116327  0  0.989806  0
H  H34  1  0.28947298  0.50923780  0.78040179  1  0  0.098974  0  0.962668  0  0  0.11043  0  1.030564  0  0  0.112406  0  1.030535  0  0  0.091645  0.109017  0  1.030642  0
H  H35  1  0.71052695  0.49076148  0.21959724  1  0  0.098984  0  0.962665  0  0  0.110442  0  1.03055  0  0  0.11242  0  1.030517  0  0  0.091641  0.109028  0  1.03063  0
H  H36  1  0.62190384  0.97677349  0.20612857  1  0  0.339969  0  0.925526  0  0  0.320218  0  0.989232  0  0  0.329047  0  0.98175  0  0  0.297339  0.314026  0  0.994425  0
H  H37  1  0.37809609  0.02322579  0.79387046  1  0  0.339983  0  0.925512  0  0  0.32023  0  0.989216  0  0  0.32906  0  0.981735  0  0  0.297345  0.314038  0  0.994409  0
H  H38  1  0.79625885  0.00675293  0.13986371  1  0  0.326603  0  0.915975  0  0  0.308858  0  0.982031  0  0  0.317057  0  0.974793  0  0  0.29626  0.303003  0  0.987237  0
H  H39  1  0.20374148  0.99324741  0.86013662  1  0  0.326587  0  0.916001  0  0  0.308828  0  0.98208  0  0  0.317027  0  0.974842  0  0  0.296235  0.302973  0  0.987286  0
H  H40  1  0.30643404  0.50549581  0.55291631  1  0  0.351686  0  0.899527  0  0  0.331369  0  0.962211  0  0  0.340547  0  0.954233  0  0  0.299402  0.324865  0  0.967876  0
H  H41  1  0.69356589  0.49450345  0.44708449  1  0  0.351682  0  0.899535  0  0  0.331365  0  0.962217  0  0  0.340543  0  0.954239  0  0  0.299403  0.32486  0  0.967882  0
H  H42  1  0.29522974  0.38944398  0.39116661  1  0  0.316014  0  0.933323  0  0  0.292729  0  1.011535  0  0  0.301621  0  1.002906  0  0  0.288828  0.286447  0  1.01751  0
H  H43  1  0.70477019  0.61055529  0.60883331  1  0  0.316014  0  0.933332  0  0  0.29273  0  1.011544  0  0  0.301622  0  1.002916  0  0  0.288835  0.286448  0  1.017519  0
C  C44  1  0.83553225  0.14385754  0.33107875  1  0  0.685023  0  3.846144  0  0  0.633824  0  4.119215  0  0  0.664559  0  4.123752  0  0  0.342327  0.613089  0  4.11554  0
C  C45  1  0.16446644  0.85614171  0.66892278  1  0  0.685034  0  3.846067  0  0  0.633828  0  4.119151  0  0  0.66457  0  4.123677  0  0  0.342318  0.613093  0  4.115476  0
C  C46  1  0.07904943  0.33980617  0.45352845  1  0  0.678107  0  3.871947  0  0  0.627685  0  4.150142  0  0  0.658093  0  4.154717  0  0  0.345312  0.60718  0  4.146465  0
C  C47  1  0.92094926  0.66019308  0.54647219  1  0  0.67813  0  3.871874  0  0  0.6277  0  4.150079  0  0  0.658106  0  4.154652  0  0  0.345323  0.607194  0  4.146402  0
C  C48  1  0.85678226  0.29491520  0.54279775  1  0  0.568823  0  3.845779  0  0  0.514669  0  4.130813  0  0  0.54446  0  4.135919  0  0  0.342913  0.494823  0  4.126641  0
C  C49  1  0.14321644  0.70508407  0.45720201  1  0  0.568873  0  3.845739  0  0  0.514708  0  4.130758  0  0  0.544497  0  4.135865  0  0  0.342943  0.49486  0  4.126586  0
C  C50  1  0.63370839  0.23386524  0.65045094  1  0  -0.0009  0  3.691491  0  0  -0.064348  0  3.943489  0  0  -0.06008  0  3.955575  0  0  -0.060916  -0.066888  0  3.935252  0
C  C51  1  0.36629070  0.76613510  0.34954924  1  0  -0.000926  0  3.691551  0  0  -0.064321  0  3.943418  0  0  -0.060036  0  3.955499  0  0  -0.060895  -0.066859  0  3.935174  0
C  C52  1  0.46819068  0.25077030  0.58545686  1  0  -0.028682  0  3.6908  0  0  -0.03592  0  3.956883  0  0  -0.034073  0  3.971099  0  0  -0.12156  -0.037594  0  3.948048  0
C  C53  1  0.53180802  0.74922896  0.41454379  1  0  -0.028608  0  3.690792  0  0  -0.035844  0  3.956887  0  0  -0.033996  0  3.971096  0  0  -0.121544  -0.03752  0  3.948054  0
C  C54  1  0.31481168  0.14181773  0.53450024  1  0  -0.291815  0  3.621347  0  0  -0.324384  0  3.8752  0  0  -0.328328  0  3.88509  0  0  -0.207606  -0.321577  0  3.868911  0
C  C55  1  0.68518662  0.85818046  0.46549910  1  0  -0.291854  0  3.621378  0  0  -0.324415  0  3.875213  0  0  -0.328359  0  3.885102  0  0  -0.207601  -0.321606  0  3.868924  0
C  C56  1  0.90578431  0.43478302  0.77800377  1  0  -0.004994  0  3.708671  0  0  -0.072632  0  3.972419  0  0  -0.067019  0  3.982625  0  0  -0.058621  -0.076235  0  3.965258  0
C  C57  1  0.09421479  0.56521733  0.22199552  1  0  -0.004891  0  3.708651  0  0  -0.072593  0  3.972441  0  0  -0.066972  0  3.982635  0  0  -0.058601  -0.076195  0  3.96528  0
C  C58  1  0.01130762  0.37369975  0.85374957  1  0  -0.040843  0  3.766488  0  0  -0.047306  0  4.023152  0  0  -0.049427  0  4.046125  0  0  -0.10129  -0.045897  0  4.00753  0
C  C59  1  0.98869315  0.62629844  0.14625009  1  0  -0.040841  0  3.766422  0  0  -0.047293  0  4.023081  0  0  -0.049417  0  4.046053  0  0  -0.101295  -0.045885  0  4.00746  0
C  C60  1  0.01866499  0.23945235  0.81192540  1  0  -0.267299  0  3.639966  0  0  -0.31211  0  3.880607  0  0  -0.316117  0  3.896578  0  0  -0.188732  -0.309251  0  3.869896  0
C  C61  1  0.98133530  0.76055119  0.18807781  1  0  -0.267311  0  3.639821  0  0  -0.312102  0  3.880472  0  0  -0.316108  0  3.896445  0  0  -0.188737  -0.309243  0  3.869762  0
C  C62  1  0.28907294  0.90754577  0.05739934  1  0  0.701622  0  3.829859  0  0  0.650028  0  4.121088  0  0  0.684168  0  4.117602  0  0  0.211541  0.626772  0  4.122548  0
C  C63  1  0.71092739  0.09245457  0.94260100  1  0  0.701601  0  3.829883  0  0  0.65002  0  4.121108  0  0  0.684164  0  4.117626  0  0  0.211555  0.626764  0  4.122568  0
C  C64  1  0.31266809  0.78580969  0.94474475  1  0  -0.268945  0  3.664957  0  0  -0.29969  0  3.905733  0  0  -0.307011  0  3.916942  0  0  -0.169572  -0.294542  0  3.897734  0
C  C65  1  0.68733224  0.21419066  0.05525381  1  0  -0.268839  0  3.66491  0  0  -0.299611  0  3.905712  0  0  -0.306958  0  3.916958  0  0  -0.169519  -0.294466  0  3.897722  0
C  C66  1  0.38889777  0.68014008  0.98131878  1  0  -0.052342  0  3.685329  0  0  -0.098525  0  3.945531  0  0  -0.097621  0  3.958647  0  0  -0.162129  -0.098902  0  3.936132  0
C  C67  1  0.61110340  0.31985920  0.01868041  1  0  -0.05243  0  3.685369  0  0  -0.098641  0  3.945617  0  0  -0.097732  0  3.95874  0  0  -0.162192  -0.099017  0  3.936217  0
C  C68  1  0.41264556  0.56717995  0.85882546  1  0  -0.272487  0  3.663641  0  0  -0.307987  0  3.911778  0  0  -0.314862  0  3.922043  0  0  -0.171297  -0.303304  0  3.904853  0
C  C69  1  0.58735437  0.43281932  0.14117446  1  0  -0.272509  0  3.663694  0  0  -0.307971  0  3.911797  0  0  -0.314845  0  3.92206  0  0  -0.171297  -0.303286  0  3.904871  0
C  C70  1  0.54790679  0.63975176  0.80734940  1  0  0.685277  0  3.867751  0  0  0.640065  0  4.163164  0  0  0.672896  0  4.15827  0  0  0.194965  0.617659  0  4.165911  0
C  C71  1  0.45209438  0.36024750  0.19265068  1  0  0.685243  0  3.867697  0  0  0.639995  0  4.163152  0  0  0.672827  0  4.158255  0  0  0.194918  0.617589  0  4.165901  0
N  N72  1  0.99599786  0.21991556  0.33815393  1  0  -0.649653  0  3.207256  0  0  -0.564062  0  3.502121  0  0  -0.59668  0  3.507214  0  0  -0.389327  -0.541965  0  3.497941  0
N  N73  1  0.00400207  0.78008370  0.66184599  1  0  -0.649689  0  3.207245  0  0  -0.564097  0  3.502112  0  0  -0.596716  0  3.507201  0  0  -0.389349  -0.542  0  3.497933  0
N  N74  1  0.01592460  0.37707742  0.55898742  1  0  -0.588167  0  2.972317  0  0  -0.548688  0  3.251062  0  0  -0.572925  0  3.257723  0  0  -0.353946  -0.532422  0  3.2464  0
N  N75  1  0.98407533  0.62292184  0.44101339  1  0  -0.58821  0  2.972293  0  0  -0.548716  0  3.251024  0  0  -0.572954  0  3.257685  0  0  -0.353967  -0.53245  0  3.246362  0
N  N76  1  0.75621824  0.18115892  0.42856376  1  0  -0.629191  0  3.039963  0  0  -0.565372  0  3.321876  0  0  -0.591493  0  3.324929  0  0  -0.368963  -0.547358  0  3.319193  0
N  N77  1  0.24378168  0.81884035  0.57143616  1  0  -0.629226  0  3.04  0  0  -0.565417  0  3.321932  0  0  -0.59154  0  3.324984  0  0  -0.368955  -0.547402  0  3.319247  0
N  N78  1  0.75205781  0.02208521  0.22192147  1  0  -0.689011  0  3.077613  0  0  -0.650312  0  3.31286  0  0  -0.672504  0  3.306418  0  0  -0.57708  -0.634928  0  3.316801  0
N  N79  1  0.24794252  0.97791513  0.77807887  1  0  -0.688972  0  3.077546  0  0  -0.650262  0  3.312797  0  0  -0.672457  0  3.306353  0  0  -0.577039  -0.634879  0  3.316738  0
N  N80  1  0.23446289  0.42186746  0.46351582  1  0  -0.675937  0  3.096086  0  0  -0.63668  0  3.338677  0  0  -0.658944  0  3.331858  0  0  -0.569748  -0.621042  0  3.34303  0
N  N81  1  0.76553704  0.57813180  0.53648410  1  0  -0.675941  0  3.096132  0  0  -0.636682  0  3.33872  0  0  -0.658945  0  3.331901  0  0  -0.56976  -0.621043  0  3.343073  0
N  N82  1  0.79238891  0.32758893  0.64967730  1  0  -0.225306  0  3.38424  0  0  -0.134795  0  3.617258  0  0  -0.156289  0  3.638799  0  0  -0.276197  -0.120144  0  3.601994  0
N  N83  1  0.20760772  0.67241142  0.35032168  1  0  -0.225352  0  3.384191  0  0  -0.134804  0  3.617154  0  0  -0.156299  0  3.638683  0  0  -0.276225  -0.120153  0  3.601892  0
O  O84  1  0.38963348  0.95039193  0.17381823  1  0  -0.646112  0  2.121927  0  0  -0.566096  0  2.388907  0  0  -0.596498  0  2.377986  0  0  -0.32466  -0.544833  0  2.395728  0
O  O85  1  0.61036645  0.04960733  0.82618169  1  0  -0.646096  0  2.121897  0  0  -0.566083  0  2.38887  0  0  -0.596484  0  2.37795  0  0  -0.324666  -0.544819  0  2.395692  0
O  O86  1  0.17395324  0.96329950  0.02754872  1  0  -0.634203  0  2.124577  0  0  -0.550667  0  2.398865  0  0  -0.583232  0  2.385997  0  0  -0.325136  -0.528017  0  2.407136  0
O  O87  1  0.82604709  0.03670084  0.97245161  1  0  -0.634205  0  2.124585  0  0  -0.550691  0  2.398887  0  0  -0.583257  0  2.386019  0  0  -0.325159  -0.52804  0  2.407159  0
O  O88  1  0.70062274  0.69887641  0.88372249  1  0  -0.62028  0  1.984812  0  0  -0.554239  0  2.236297  0  0  -0.582862  0  2.225867  0  0  -0.332889  -0.534121  0  2.242813  0
O  O89  1  0.29937802  0.30112180  0.11627540  1  0  -0.620249  0  1.984742  0  0  -0.554209  0  2.236254  0  0  -0.582838  0  2.225834  0  0  -0.332868  -0.534091  0  2.24277  0
O  O90  1  0.49871699  0.63943912  0.69153153  1  0  -0.692513  0  2.011615  0  0  -0.618883  0  2.259249  0  0  -0.64685  0  2.246843  0  0  -0.343274  -0.599065  0  2.267243  0
O  O91  1  0.50128540  0.36056015  0.30846870  1  0  -0.69252  0  2.011603  0  0  -0.618874  0  2.259243  0  0  -0.646841  0  2.246835  0  0  -0.343245  -0.599057  0  2.267238  0
