# generated using pymatgen
data_LiH8C5NO4
_symmetry_space_group_name_H-M   'P 1'
_cell_length_a   5.13645836
_cell_length_b   7.99100072
_cell_length_c   15.86618156
_cell_angle_alpha   89.99974944
_cell_angle_beta   90.00000656
_cell_angle_gamma   90.00024388
_symmetry_Int_Tables_number   1
_chemical_formula_structural   LiH8C5NO4
_chemical_formula_sum   'Li4 H32 C20 N4 O16'
_cell_volume   651.23444145
_cell_formula_units_Z   4
loop_
 _symmetry_equiv_pos_site_id
 _symmetry_equiv_pos_as_xyz
  1  'x, y, z'
loop_
 _atom_site_type_symbol
 _atom_site_label
 _atom_site_symmetry_multiplicity
 _atom_site_fract_x
 _atom_site_fract_y
 _atom_site_fract_z
 _atom_site_occupancy
 _atom_site_hle17_bader_spin_density
 _atom_site_hle17_ddec_charge
 _atom_site_hle17_ddec_spin_density
 _atom_site_hle17_ddec_sum_bond_order
 _atom_site_hle17_magmom
 _atom_site_hse06_10hf_bader_spin_density
 _atom_site_hse06_10hf_ddec_charge
 _atom_site_hse06_10hf_ddec_spin_density
 _atom_site_hse06_10hf_ddec_sum_bond_order
 _atom_site_hse06_10hf_magmom
 _atom_site_hse06_bader_spin_density
 _atom_site_hse06_ddec_charge
 _atom_site_hse06_ddec_spin_density
 _atom_site_hse06_ddec_sum_bond_order
 _atom_site_hse06_magmom
 _atom_site_pbe_bader_spin_density
 _atom_site_pbe_cm5_charge
 _atom_site_pbe_ddec_charge
 _atom_site_pbe_ddec_spin_density
 _atom_site_pbe_ddec_sum_bond_order
 _atom_site_pbe_magmom
Li  Li0  1  0.46619779  0.28417873  0.65260851  1  0  0.852269  0  0.405005  0  0  0.811142  0  0.513098  0  0  0.820564  0  0.496143  0  0  0.501919  0.804322  0  0.525292  0
Li  Li1  1  0.03380195  0.71582212  0.15260745  1  0  0.852262  0  0.405003  0  0  0.811155  0  0.513072  0  0  0.820578  0  0.496115  0  0  0.501914  0.804339  0  0.525264  0
Li  Li2  1  0.53379859  0.78417793  0.84739270  1  0  0.852262  0  0.405013  0  0  0.811169  0  0.513055  0  0  0.82059  0  0.496101  0  0  0.501924  0.804354  0  0.525247  0
Li  Li3  1  0.96619571  0.21582135  0.34739275  1  0  0.852269  0  0.405009  0  0  0.811139  0  0.513105  0  0  0.820561  0  0.49615  0  0  0.501914  0.804319  0  0.525301  0
H  H4  1  0.94249259  0.77306274  0.73133770  1  0  0.078794  0  0.929507  0  0  0.087204  0  0.990441  0  0  0.089695  0  0.989101  0  0  0.124984  0.085391  0  0.991556  0
H  H5  1  0.55750362  0.22693754  0.23133834  1  0  0.078766  0  0.929553  0  0  0.087156  0  0.990445  0  0  0.089645  0  0.989106  0  0  0.124986  0.085344  0  0.991561  0
H  H6  1  0.05750762  0.27306266  0.76866291  1  0  0.078808  0  0.929495  0  0  0.08721  0  0.990442  0  0  0.089705  0  0.989099  0  0  0.125009  0.0854  0  0.991555  0
H  H7  1  0.44249412  0.72693718  0.26866183  1  0  0.078804  0  0.92951  0  0  0.087217  0  0.990433  0  0  0.089709  0  0.989093  0  0  0.124991  0.085404  0  0.991549  0
H  H8  1  0.72706761  0.69748798  0.60534464  1  0  0.087435  0  0.953185  0  0  0.101054  0  1.017594  0  0  0.102658  0  1.017425  0  0  0.099083  0.099821  0  1.017848  0
H  H9  1  0.77292659  0.30252091  0.10534450  1  0  0.087448  0  0.953229  0  0  0.101075  0  1.017641  0  0  0.102694  0  1.017454  0  0  0.09909  0.099845  0  1.017893  0
H  H10  1  0.27293015  0.19748489  0.89465676  1  0  0.087401  0  0.953204  0  0  0.101033  0  1.017616  0  0  0.102645  0  1.017435  0  0  0.099078  0.099802  0  1.017869  0
H  H11  1  0.22706775  0.80251135  0.39465551  1  0  0.087406  0  0.953193  0  0  0.101022  0  1.017616  0  0  0.10264  0  1.017434  0  0  0.099065  0.099789  0  1.017872  0
H  H12  1  0.02186171  0.65677269  0.55203632  1  0  0.076331  0  0.952969  0  0  0.094821  0  1.012141  0  0  0.095358  0  1.01331  0  0  0.097424  0.094376  0  1.011392  0
H  H13  1  0.47813020  0.34322778  0.05203546  1  0  0.076387  0  0.952836  0  0  0.094865  0  1.012047  0  0  0.0954  0  1.013215  0  0  0.097442  0.094403  0  1.011321  0
H  H14  1  0.97813384  0.15677358  0.94796517  1  0  0.076384  0  0.952874  0  0  0.094864  0  1.012074  0  0  0.095397  0  1.013241  0  0  0.097447  0.094402  0  1.011346  0
H  H15  1  0.52186246  0.84322732  0.44796257  1  0  0.076325  0  0.952977  0  0  0.094826  0  1.012141  0  0  0.095361  0  1.013314  0  0  0.097427  0.094381  0  1.011391  0
H  H16  1  0.75745334  0.99774842  0.57426437  1  0  0.120255  0  0.927431  0  0  0.132292  0  0.99056  0  0  0.135743  0  0.988563  0  0  0.116912  0.129793  0  0.992113  0
H  H17  1  0.74255058  0.00226074  0.07426551  1  0  0.120237  0  0.927482  0  0  0.132303  0  0.990603  0  0  0.135754  0  0.988605  0  0  0.11691  0.129804  0  0.992155  0
H  H18  1  0.24254835  0.49774248  0.92573637  1  0  0.12024  0  0.927491  0  0  0.132289  0  0.990604  0  0  0.135743  0  0.988609  0  0  0.116907  0.129791  0  0.992158  0
H  H19  1  0.25744957  0.50225224  0.42573579  1  0  0.12032  0  0.927417  0  0  0.132342  0  0.99058  0  0  0.135789  0  0.988584  0  0  0.116936  0.129842  0  0.992133  0
H  H20  1  0.94592148  0.92866134  0.48793681  1  0  0.110905  0  0.948297  0  0  0.124146  0  1.010183  0  0  0.12673  0  1.009147  0  0  0.109208  0.122262  0  1.011055  0
H  H21  1  0.55408846  0.07134297  0.98793833  1  0  0.110915  0  0.948284  0  0  0.124203  0  1.010157  0  0  0.12679  0  1.009113  0  0  0.109223  0.122318  0  1.011027  0
H  H22  1  0.05408148  0.42865973  0.01206166  1  0  0.11092  0  0.948302  0  0  0.124177  0  1.010179  0  0  0.126765  0  1.009142  0  0  0.109223  0.122293  0  1.01105  0
H  H23  1  0.44591625  0.57133984  0.51206272  1  0  0.110905  0  0.948303  0  0  0.124174  0  1.010179  0  0  0.126757  0  1.009137  0  0  0.10921  0.122288  0  1.011051  0
H  H24  1  0.36224319  0.96033771  0.70853868  1  0  0.30769  0  0.923696  0  0  0.286162  0  0.993525  0  0  0.296372  0  0.984293  0  0  0.318737  0.278828  0  1.000274  0
H  H25  1  0.13775657  0.03965764  0.20853659  1  0  0.307661  0  0.923769  0  0  0.286136  0  0.993582  0  0  0.296338  0  0.984356  0  0  0.318729  0.278813  0  1.000317  0
H  H26  1  0.63775825  0.46033903  0.79146215  1  0  0.307694  0  0.923702  0  0  0.286169  0  0.993527  0  0  0.29637  0  0.984303  0  0  0.318742  0.278855  0  1.000252  0
H  H27  1  0.86223993  0.53965948  0.29146211  1  0  0.307674  0  0.923734  0  0  0.286147  0  0.99356  0  0  0.296352  0  0.984334  0  0  0.318742  0.278832  0  1.000285  0
H  H28  1  0.93233451  0.39608416  0.61610749  1  0  0.434748  0  0.865918  0  0  0.405693  0  0.926999  0  0  0.415875  0  0.912089  0  0  0.297883  0.398513  0  0.9375  0
H  H29  1  0.56766553  0.60391713  0.11610668  1  0  0.434751  0  0.86592  0  0  0.405697  0  0.927002  0  0  0.41588  0  0.912091  0  0  0.297878  0.398517  0  0.937502  0
H  H30  1  0.06766845  0.89608302  0.88389348  1  0  0.434761  0  0.865911  0  0  0.40571  0  0.926985  0  0  0.415893  0  0.912074  0  0  0.297901  0.398531  0  0.937485  0
H  H31  1  0.43233139  0.10391582  0.38389377  1  0  0.434748  0  0.865918  0  0  0.405694  0  0.927  0  0  0.415877  0  0.912089  0  0  0.297899  0.398514  0  0.937501  0
H  H32  1  0.77755842  0.34469901  0.53253986  1  0  0.430695  0  0.870051  0  0  0.404452  0  0.92556  0  0  0.414115  0  0.911449  0  0  0.300006  0.397672  0  0.935446  0
H  H33  1  0.72244354  0.65530176  0.03253957  1  0  0.43064  0  0.870127  0  0  0.404401  0  0.925637  0  0  0.414064  0  0.911525  0  0  0.299972  0.397624  0  0.93552  0
H  H34  1  0.22244615  0.84469756  0.96746059  1  0  0.430634  0  0.870145  0  0  0.404397  0  0.925648  0  0  0.41406  0  0.911536  0  0  0.299978  0.397619  0  0.935531  0
H  H35  1  0.27756151  0.15530180  0.46746139  1  0  0.430755  0  0.869982  0  0  0.404519  0  0.925481  0  0  0.414183  0  0.911369  0  0  0.300049  0.397741  0  0.935365  0
C  C36  1  0.25845457  0.61174673  0.69964530  1  0  0.682724  0  3.843259  0  0  0.63303  0  4.151658  0  0  0.665122  0  4.143051  0  0  0.233686  0.611276  0  4.156837  0
C  C37  1  0.24153351  0.38824746  0.19964749  1  0  0.682872  0  3.84332  0  0  0.633131  0  4.151701  0  0  0.665223  0  4.143092  0  0  0.233732  0.611377  0  4.15688  0
C  C38  1  0.74154068  0.11174825  0.80035251  1  0  0.682746  0  3.843236  0  0  0.633058  0  4.151641  0  0  0.665149  0  4.143037  0  0  0.233679  0.611304  0  4.15682  0
C  C39  1  0.75845556  0.88825144  0.30035360  1  0  0.682785  0  3.843194  0  0  0.633109  0  4.151575  0  0  0.665202  0  4.142966  0  0  0.233715  0.611354  0  4.156755  0
C  C40  1  0.07732247  0.75906855  0.67764615  1  0  0.033507  0  3.571885  0  0  0.016835  0  3.80882  0  0  0.016144  0  3.821528  0  0  0.022912  0.017292  0  3.800114  0
C  C41  1  0.42267339  0.24093208  0.17764677  1  0  0.033348  0  3.572134  0  0  0.016891  0  3.808799  0  0  0.016192  0  3.821501  0  0  0.022879  0.017345  0  3.8001  0
C  C42  1  0.92267570  0.25906912  0.82235323  1  0  0.033507  0  3.571965  0  0  0.016832  0  3.808969  0  0  0.016127  0  3.821671  0  0  0.022903  0.017289  0  3.800266  0
C  C43  1  0.57732249  0.74093037  0.32235275  1  0  0.033457  0  3.571879  0  0  0.016795  0  3.808823  0  0  0.016097  0  3.821532  0  0  0.022904  0.01725  0  3.800121  0
C  C44  1  0.92344432  0.74536215  0.59412450  1  0  -0.125952  0  3.625651  0  0  -0.172059  0  3.87814  0  0  -0.172585  0  3.890626  0  0  -0.155999  -0.171491  0  3.8696  0
C  C45  1  0.57655572  0.25464058  0.09412508  1  0  -0.125934  0  3.625595  0  0  -0.172118  0  3.878154  0  0  -0.172654  0  3.890631  0  0  -0.156016  -0.171544  0  3.869625  0
C  C46  1  0.07655570  0.24536093  0.90587554  1  0  -0.12592  0  3.625584  0  0  -0.172054  0  3.878142  0  0  -0.172571  0  3.890617  0  0  -0.156019  -0.171477  0  3.86961  0
C  C47  1  0.42344415  0.75463772  0.40587503  1  0  -0.125877  0  3.625555  0  0  -0.171984  0  3.878076  0  0  -0.172525  0  3.890556  0  0  -0.155989  -0.171417  0  3.869535  0
C  C48  1  0.92914727  0.92257041  0.55671896  1  0  -0.261321  0  3.643557  0  0  -0.297365  0  3.892733  0  0  -0.303068  0  3.900063  0  0  -0.15233  -0.293436  0  3.887724  0
C  C49  1  0.57085275  0.07743514  0.05671993  1  0  -0.261264  0  3.64373  0  0  -0.297443  0  3.892995  0  0  -0.303148  0  3.90033  0  0  -0.152302  -0.293505  0  3.887975  0
C  C50  1  0.07085198  0.42256635  0.94328069  1  0  -0.26126  0  3.64374  0  0  -0.297343  0  3.892876  0  0  -0.303069  0  3.900234  0  0  -0.152269  -0.29341  0  3.88786  0
C  C51  1  0.42914400  0.57742947  0.44328120  1  0  -0.26138  0  3.643533  0  0  -0.297496  0  3.89282  0  0  -0.303189  0  3.900139  0  0  -0.152359  -0.293562  0  3.887808  0
C  C52  1  0.16005790  0.00336891  0.59904142  1  0  0.61681  0  3.776607  0  0  0.571151  0  4.068112  0  0  0.600102  0  4.067196  0  0  0.258767  0.551615  0  4.068139  0
C  C53  1  0.33995545  0.99663741  0.09904290  1  0  0.616807  0  3.776466  0  0  0.57128  0  4.067805  0  0  0.600221  0  4.066889  0  0  0.258804  0.551748  0  4.067833  0
C  C54  1  0.83995221  0.50336348  0.90095663  1  0  0.616803  0  3.776516  0  0  0.57128  0  4.067816  0  0  0.600226  0  4.066899  0  0  0.258755  0.55175  0  4.067844  0
C  C55  1  0.66005380  0.49663033  0.40095857  1  0  0.616874  0  3.776535  0  0  0.571255  0  4.068009  0  0  0.6002  0  4.06709  0  0  0.258834  0.551717  0  4.068037  0
N  N56  1  0.22595457  0.91343620  0.66686014  1  0  -0.434755  0  3.269163  0  0  -0.377945  0  3.508427  0  0  -0.399473  0  3.51595  0  0  -0.401346  -0.363251  0  3.503184  0
N  N57  1  0.27404713  0.08656453  0.16686047  1  0  -0.434776  0  3.269328  0  0  -0.378049  0  3.508529  0  0  -0.399548  0  3.51603  0  0  -0.401402  -0.363367  0  3.503281  0
N  N58  1  0.77405046  0.41343502  0.83313889  1  0  -0.434847  0  3.269358  0  0  -0.378087  0  3.508632  0  0  -0.399586  0  3.516133  0  0  -0.401413  -0.363412  0  3.50337  0
N  N59  1  0.72595163  0.58656313  0.33314001  1  0  -0.434763  0  3.269177  0  0  -0.377972  0  3.508473  0  0  -0.399486  0  3.515989  0  0  -0.401373  -0.363294  0  3.503207  0
O  O60  1  0.21301228  0.46916016  0.66742662  1  0  -0.706654  0  1.994093  0  0  -0.653997  0  2.230745  0  0  -0.677357  0  2.218516  0  0  -0.364556  -0.637722  0  2.238805  0
O  O61  1  0.28698163  0.53084056  0.16742282  1  0  -0.706744  0  1.993807  0  0  -0.65409  0  2.230454  0  0  -0.677454  0  2.218224  0  0  -0.364588  -0.63781  0  2.238512  0
O  O62  1  0.78698727  0.96915643  0.83257356  1  0  -0.70668  0  1.993839  0  0  -0.654044  0  2.2305  0  0  -0.677404  0  2.218268  0  0  -0.36457  -0.637766  0  2.238558  0
O  O63  1  0.71301676  0.03084048  0.33257275  1  0  -0.706683  0  1.994055  0  0  -0.654044  0  2.230712  0  0  -0.677405  0  2.21848  0  0  -0.364557  -0.637767  0  2.238774  0
O  O64  1  0.44351800  0.64175677  0.75046405  1  0  -0.70764  0  1.965586  0  0  -0.665018  0  2.21309  0  0  -0.687286  0  2.200094  0  0  -0.370065  -0.649491  0  2.221693  0
O  O65  1  0.05648179  0.35824323  0.25046189  1  0  -0.707588  0  1.965855  0  0  -0.664962  0  2.213374  0  0  -0.687229  0  2.200379  0  0  -0.370034  -0.649435  0  2.221978  0
O  O66  1  0.55648134  0.14175572  0.74953810  1  0  -0.707614  0  1.965763  0  0  -0.664971  0  2.213254  0  0  -0.687239  0  2.200259  0  0  -0.370046  -0.649439  0  2.221856  0
O  O67  1  0.94352265  0.85824566  0.24953674  1  0  -0.707638  0  1.965591  0  0  -0.665025  0  2.213096  0  0  -0.687293  0  2.2001  0  0  -0.370082  -0.649495  0  2.221699  0
O  O68  1  0.27346137  0.13581815  0.57655131  1  0  -0.658081  0  1.984459  0  0  -0.601245  0  2.205761  0  0  -0.622433  0  2.195169  0  0  -0.354187  -0.586676  0  2.212788  0
O  O69  1  0.22655391  0.86418211  0.07655055  1  0  -0.658071  0  1.984164  0  0  -0.601301  0  2.205428  0  0  -0.622493  0  2.194841  0  0  -0.354224  -0.586739  0  2.212458  0
O  O70  1  0.72654961  0.63581472  0.92344834  1  0  -0.658099  0  1.984189  0  0  -0.60133  0  2.205438  0  0  -0.62252  0  2.194848  0  0  -0.354201  -0.586769  0  2.21247  0
O  O71  1  0.77345836  0.36418264  0.42344995  1  0  -0.658157  0  1.984498  0  0  -0.60129  0  2.205733  0  0  -0.622478  0  2.195143  0  0  -0.354233  -0.586718  0  2.212759  0
O  O72  1  0.76605052  0.35000719  0.59481508  1  0  -0.937741  0  1.775195  0  0  -0.900348  0  1.953518  0  0  -0.91627  0  1.922417  0  0  -0.683019  -0.889098  0  1.975269  0
O  O73  1  0.73394952  0.64999303  0.09481480  1  0  -0.937732  0  1.775263  0  0  -0.900335  0  1.953557  0  0  -0.916257  0  1.922454  0  0  -0.68301  -0.889084  0  1.975301  0
O  O74  1  0.23395214  0.85000757  0.90518536  1  0  -0.937748  0  1.775294  0  0  -0.900356  0  1.953588  0  0  -0.916278  0  1.922485  0  0  -0.68304  -0.889105  0  1.975332  0
O  O75  1  0.26604966  0.14999233  0.40518555  1  0  -0.937821  0  1.775139  0  0  -0.900433  0  1.953456  0  0  -0.916354  0  1.922353  0  0  -0.683082  -0.889182  0  1.975207  0
