# generated using pymatgen
data_H9PbC13N3O2
_symmetry_space_group_name_H-M   'P 1'
_cell_length_a   8.49802563
_cell_length_b   11.16701136
_cell_length_c   13.64490000
_cell_angle_alpha   111.58678940
_cell_angle_beta   90.00000000
_cell_angle_gamma   90.00000000
_symmetry_Int_Tables_number   1
_chemical_formula_structural   H9PbC13N3O2
_chemical_formula_sum   'H36 Pb4 C52 N12 O8'
_cell_volume   1204.04728564
_cell_formula_units_Z   4
loop_
 _symmetry_equiv_pos_site_id
 _symmetry_equiv_pos_as_xyz
  1  'x, y, z'
loop_
 _atom_site_type_symbol
 _atom_site_label
 _atom_site_symmetry_multiplicity
 _atom_site_fract_x
 _atom_site_fract_y
 _atom_site_fract_z
 _atom_site_occupancy
 _atom_site_hle17_bader_spin_density
 _atom_site_hle17_ddec_charge
 _atom_site_hle17_ddec_spin_density
 _atom_site_hle17_ddec_sum_bond_order
 _atom_site_hle17_magmom
 _atom_site_hse06_10hf_bader_spin_density
 _atom_site_hse06_10hf_ddec_charge
 _atom_site_hse06_10hf_ddec_spin_density
 _atom_site_hse06_10hf_ddec_sum_bond_order
 _atom_site_hse06_10hf_magmom
 _atom_site_hse06_bader_spin_density
 _atom_site_hse06_ddec_charge
 _atom_site_hse06_ddec_spin_density
 _atom_site_hse06_ddec_sum_bond_order
 _atom_site_hse06_magmom
 _atom_site_pbe_bader_charge
 _atom_site_pbe_bader_spin_density
 _atom_site_pbe_cm5_charge
 _atom_site_pbe_ddec_charge
 _atom_site_pbe_ddec_spin_density
 _atom_site_pbe_ddec_sum_bond_order
 _atom_site_pbe_magmom
H  H0  1  0.11811802  0.90591067  0.32177774  1  0  0.087984  0  0.967929  0  0  0.089937  0  1.044235  0  0  0.093952  0  1.039736  0  0.14034  0  0.118842  0.086961  0  1.047656  0
H  H1  1  0.61811769  0.09408816  0.17822169  1  0  0.087961  0  0.967935  0  0  0.0899  0  1.044252  0  0  0.093922  0  1.039746  0  0.140316  0  0.118825  0.086925  0  1.047671  0
H  H2  1  0.88187896  0.09409008  0.67822154  1  0  0.08797  0  0.967948  0  0  0.089879  0  1.044296  0  0  0.093901  0  1.039789  0  0.140337  0  0.118828  0.086904  0  1.047714  0
H  H3  1  0.38187929  0.90591067  0.82177994  1  0  0.087984  0  0.96792  0  0  0.089913  0  1.04425  0  0  0.093936  0  1.039742  0  0.140337  0  0.118834  0.086938  0  1.047667  0
H  H4  1  0.36749713  0.55867751  0.29307232  1  0  0.102048  0  0.943858  0  0  0.112706  0  1.005132  0  0  0.115871  0  1.002656  0  0.102458  0  0.107761  0.110139  0  1.007279  0
H  H5  1  0.86749091  0.44132421  0.20692798  1  0  0.102058  0  0.943866  0  0  0.112708  0  1.005132  0  0  0.115874  0  1.002652  0  0.102448  0  0.10776  0.11014  0  1.00728  0
H  H6  1  0.63250927  0.44132710  0.70692884  1  0  0.102074  0  0.943892  0  0  0.112724  0  1.00517  0  0  0.115883  0  1.002699  0  0.102425  0  0.107763  0.110155  0  1.007319  0
H  H7  1  0.13250960  0.55867174  0.79307205  1  0  0.102033  0  0.943932  0  0  0.112693  0  1.005204  0  0  0.115856  0  1.002728  0  0.102421  0  0.107748  0.110124  0  1.007352  0
H  H8  1  0.22560887  0.44857687  0.11875490  1  0  0.100382  0  0.958255  0  0  0.111548  0  1.018531  0  0  0.114414  0  1.01795  0  0.082145  0  0.106601  0.109618  0  1.018719  0
H  H9  1  0.72559913  0.55142389  0.38124291  1  0  0.100411  0  0.958179  0  0  0.111576  0  1.018449  0  0  0.114444  0  1.017871  0  0.082162  0  0.106633  0.109644  0  1.018639  0
H  H10  1  0.77440105  0.55142581  0.88124495  1  0  0.100382  0  0.958205  0  0  0.111545  0  1.018478  0  0  0.114414  0  1.0179  0  0.082127  0  0.106618  0.109613  0  1.018669  0
H  H11  1  0.27440138  0.44857398  0.61875550  1  0  0.100406  0  0.958193  0  0  0.111568  0  1.018467  0  0  0.114437  0  1.017889  0  0.082132  0  0.106623  0.109637  0  1.018657  0
H  H12  1  0.05439381  0.58400068  0.05137390  1  0  0.070629  0  0.961683  0  0  0.079381  0  1.03013  0  0  0.082132  0  1.026969  0  0.087425  0  0.113161  0.077366  0  1.032542  0
H  H13  1  0.55438877  0.41599719  0.44862524  1  0  0.070604  0  0.961715  0  0  0.079388  0  1.030125  0  0  0.082137  0  1.026964  0  0.08741  0  0.113202  0.077373  0  1.032536  0
H  H14  1  0.94561023  0.41599815  0.94862553  1  0  0.07064  0  0.96171  0  0  0.079428  0  1.030106  0  0  0.082179  0  1.026946  0  0.087397  0  0.113205  0.077414  0  1.032517  0
H  H15  1  0.44560821  0.58400357  0.55137477  1  0  0.070578  0  0.961698  0  0  0.079367  0  1.030103  0  0  0.082118  0  1.026941  0  0.087469  0  0.113195  0.077353  0  1.032514  0
H  H16  1  0.21407090  0.12979772  0.60310434  1  0  0.063543  0  0.926671  0  0  0.076932  0  0.995075  0  0  0.07994  0  0.989999  0  0.086049  0  0.116398  0.074596  0  0.998858  0
H  H17  1  0.71407057  0.87020303  0.89689201  1  0  0.063553  0  0.926686  0  0  0.076915  0  0.995118  0  0  0.079921  0  0.990045  0  0.086094  0  0.1164  0.07458  0  0.998901  0
H  H18  1  0.78592844  0.87020688  0.39689390  1  0  0.063571  0  0.9267  0  0  0.076931  0  0.995128  0  0  0.079935  0  0.990057  0  0.086109  0  0.1164  0.074598  0  0.998903  0
H  H19  1  0.28592877  0.12979387  0.10310611  1  0  0.063566  0  0.926656  0  0  0.07695  0  0.995066  0  0  0.079958  0  0.989992  0  0.086105  0  0.116415  0.074615  0  0.998848  0
H  H20  1  0.59104788  0.19014670  0.95159360  1  0  0.120713  0  0.962609  0  0  0.126635  0  1.026721  0  0  0.130613  0  1.025286  0  0.059955  0  0.098397  0.123903  0  1.027698  0
H  H21  1  0.09104703  0.80984924  0.54840202  1  0  0.120746  0  0.96265  0  0  0.12667  0  1.026754  0  0  0.130649  0  1.025318  0  0.059888  0  0.098414  0.123938  0  1.02773  0
H  H22  1  0.40895146  0.80985021  0.04840305  1  0  0.120759  0  0.962656  0  0  0.126683  0  1.026753  0  0  0.130661  0  1.025319  0  0.05991  0  0.098433  0.12395  0  1.027729  0
H  H23  1  0.90895231  0.19014959  0.45159814  1  0  0.120728  0  0.962647  0  0  0.126651  0  1.026753  0  0  0.130629  0  1.025319  0  0.059898  0  0.098407  0.123918  0  1.027729  0
H  H24  1  0.46608120  0.40661139  0.02440219  1  0  0.082941  0  0.966713  0  0  0.096223  0  1.024876  0  0  0.098477  0  1.023778  0  0.07568  0  0.095228  0.094473  0  1.025957  0
H  H25  1  0.96608087  0.59338455  0.47559637  1  0  0.082923  0  0.966687  0  0  0.096209  0  1.024849  0  0  0.098462  0  1.023752  0  0.075645  0  0.095205  0.094458  0  1.025933  0
H  H26  1  0.53392049  0.59338744  0.97559724  1  0  0.082939  0  0.966704  0  0  0.096236  0  1.024853  0  0  0.09849  0  1.023756  0  0.075668  0  0.095217  0.094486  0  1.025937  0
H  H27  1  0.03391964  0.40661331  0.52440423  1  0  0.082925  0  0.966704  0  0  0.09622  0  1.024857  0  0  0.098474  0  1.02376  0  0.075649  0  0.095211  0.09447  0  1.025941  0
H  H28  1  0.27888125  0.47623156  0.91337400  1  0  0.091508  0  0.96884  0  0  0.10043  0  1.034637  0  0  0.103274  0  1.034552  0  0.024269  0  0.093534  0.098751  0  1.034012  0
H  H29  1  0.77888562  0.52376727  0.58662836  1  0  0.091536  0  0.968813  0  0  0.100432  0  1.034641  0  0  0.103276  0  1.034554  0  0.024245  0  0.093524  0.098752  0  1.034017  0
H  H30  1  0.72111809  0.52377112  0.08662879  1  0  0.091512  0  0.968804  0  0  0.100416  0  1.034622  0  0  0.10326  0  1.034537  0  0.024248  0  0.093526  0.098736  0  1.033998  0
H  H31  1  0.22111724  0.47623060  0.41337298  1  0  0.091553  0  0.968833  0  0  0.10046  0  1.034642  0  0  0.103305  0  1.034556  0  0.024226  0  0.093543  0.098781  0  1.034017  0
H  H32  1  0.21614197  0.32408454  0.73238260  1  0  0.084065  0  0.956585  0  0  0.097759  0  1.01502  0  0  0.100168  0  1.013778  0  0.048314  0  0.097717  0.095995  0  1.015886  0
H  H33  1  0.71614399  0.67591718  0.76761916  1  0  0.084076  0  0.956593  0  0  0.097763  0  1.015037  0  0  0.100178  0  1.013787  0  0.048432  0  0.097726  0.096003  0  1.015891  0
H  H34  1  0.78385737  0.67591911  0.26761974  1  0  0.084066  0  0.956576  0  0  0.09775  0  1.015023  0  0  0.100166  0  1.013772  0  0.048413  0  0.097715  0.095976  0  1.015898  0
H  H35  1  0.28385770  0.32408261  0.23238276  1  0  0.084075  0  0.956541  0  0  0.097779  0  1.014968  0  0  0.10018  0  1.013735  0  0.048316  0  0.09773  0.096007  0  1.015841  0
Pb  Pb36  1  0.60089722  0.86820376  0.60268729  1  0  1.07743  0  1.7335  0  0  0.867421  0  2.165536  0  0  0.915284  0  2.138765  0  1.300344  0  0.577147  0.833607  0  2.183782  0
Pb  Pb37  1  0.10089991  0.13179604  0.89731243  1  0  1.077443  0  1.733478  0  0  0.867448  0  2.16552  0  0  0.915313  0  2.13874  0  1.300389  0  0.577158  0.833633  0  2.183766  0
Pb  Pb38  1  0.39909858  0.13179700  0.39731272  1  0  1.077405  0  1.733482  0  0  0.867396  0  2.165534  0  0  0.91526  0  2.138756  0  1.300395  0  0.577141  0.833581  0  2.183779  0
Pb  Pb39  1  0.89910061  0.86820376  0.10268802  1  0  1.077401  0  1.733508  0  0  0.867397  0  2.165574  0  0  0.915261  0  2.138795  0  1.300418  0  0.577139  0.833581  0  2.183821  0
C  C40  1  0.14936058  0.80556467  0.27880804  1  0  0.123882  0  3.648696  0  0  0.081659  0  3.899113  0  0  0.091199  0  3.913462  0  0.48597  0  0.061657  0.074754  0  3.890087  0
C  C41  1  0.64935671  0.19443416  0.22119139  1  0  0.12393  0  3.648627  0  0  0.081736  0  3.899012  0  0  0.091271  0  3.913358  0  0.48597  0  0.061703  0.074832  0  3.889987  0
C  C42  1  0.85064229  0.19443705  0.72119079  1  0  0.123937  0  3.648636  0  0  0.081755  0  3.899026  0  0  0.09129  0  3.913371  0  0.485867  0  0.061698  0.07485  0  3.89  0
C  C43  1  0.35064262  0.80556371  0.77881141  1  0  0.1239  0  3.648648  0  0  0.08171  0  3.899063  0  0  0.091245  0  3.913407  0  0.485976  0  0.0617  0.074805  0  3.890038  0
C  C44  1  0.25514868  0.74025218  0.32038962  1  0  -0.070206  0  3.72664  0  0  -0.045282  0  3.958931  0  0  -0.05522  0  3.981639  0  0.101747  0  -0.003578  -0.03927  0  3.943789  0
C  C45  1  0.75514599  0.25974761  0.17960864  1  0  -0.070231  0  3.726677  0  0  -0.045293  0  3.958964  0  0  -0.055231  0  3.981675  0  0.102276  0  -0.003565  -0.03928  0  3.943823  0
C  C46  1  0.74485537  0.25975339  0.67960964  1  0  -0.070148  0  3.72657  0  0  -0.045155  0  3.9588  0  0  -0.055094  0  3.981512  0  0.102497  0  -0.003542  -0.039143  0  3.943659  0
C  C47  1  0.24485452  0.74025122  0.82039372  1  0  -0.070158  0  3.72663  0  0  -0.045214  0  3.958911  0  0  -0.055149  0  3.981615  0  0.102095  0  -0.003552  -0.039202  0  3.943771  0
C  C48  1  0.28464729  0.61002591  0.26178024  1  0  -0.014222  0  3.676685  0  0  -0.041945  0  3.920825  0  0  -0.036675  0  3.938135  0  -0.08317  0  -0.06133  -0.04435  0  3.908646  0
C  C49  1  0.78464226  0.38997293  0.23821699  1  0  -0.014207  0  3.67663  0  0  -0.041895  0  3.920717  0  0  -0.036626  0  3.938028  0  -0.083634  0  -0.061325  -0.0443  0  3.908538  0
C  C50  1  0.71535793  0.38997678  0.73821815  1  0  -0.014305  0  3.676617  0  0  -0.04204  0  3.920742  0  0  -0.036767  0  3.938057  0  -0.083425  0  -0.061365  -0.044444  0  3.908565  0
C  C51  1  0.21535826  0.61002302  0.76178303  1  0  -0.014224  0  3.676538  0  0  -0.041948  0  3.920661  0  0  -0.036677  0  3.937973  0  -0.083418  0  -0.061324  -0.044353  0  3.908483  0
C  C52  1  0.20899207  0.55031832  0.16545956  1  0  -0.119998  0  3.751737  0  0  -0.129438  0  4.00229  0  0  -0.137471  0  4.02406  0  -0.03791  0  -0.083659  -0.124337  0  3.987465  0
C  C53  1  0.70898351  0.44968148  0.33453869  1  0  -0.120133  0  3.751539  0  0  -0.129581  0  4.002107  0  0  -0.137622  0  4.023882  0  -0.03763  0  -0.083721  -0.124478  0  3.987282  0
C  C54  1  0.79101668  0.44968340  0.83453927  1  0  -0.120039  0  3.751567  0  0  -0.129468  0  4.002126  0  0  -0.137508  0  4.023901  0  -0.037629  0  -0.083715  -0.124367  0  3.987303  0
C  C55  1  0.29101701  0.55031735  0.66546000  1  0  -0.120053  0  3.751611  0  0  -0.12949  0  4.002164  0  0  -0.137531  0  4.023941  0  -0.03764  0  -0.083688  -0.124389  0  3.987341  0
C  C56  1  0.11083280  0.62382629  0.12839181  1  0  0.118346  0  3.719567  0  0  0.08536  0  3.969943  0  0  0.09344  0  3.987558  0  0.464296  0  0.046248  0.079281  0  3.9585  0
C  C57  1  0.61082659  0.37617158  0.37160732  1  0  0.118463  0  3.71958  0  0  0.085452  0  3.969961  0  0  0.093534  0  3.987575  0  0.464659  0  0.046208  0.079372  0  3.958519  0
C  C58  1  0.88917360  0.37617351  0.87160717  1  0  0.118408  0  3.719661  0  0  0.085399  0  3.970031  0  0  0.09348  0  3.987645  0  0.464684  0  0.046217  0.07932  0  3.958588  0
C  C59  1  0.38917040  0.62382629  0.62839401  1  0  0.118524  0  3.719667  0  0  0.085521  0  3.970035  0  0  0.093602  0  3.987649  0  0.464673  0  0.046269  0.079441  0  3.958594  0
C  C60  1  0.33694532  0.80441384  0.42310824  1  0  0.466447  0  3.913974  0  0  0.426106  0  4.200832  0  0  0.453298  0  4.206557  0  1.307208  0  0.212108  0.407901  0  4.196244  0
C  C61  1  0.83694499  0.19558499  0.07689119  1  0  0.466504  0  3.91394  0  0  0.426067  0  4.200937  0  0  0.45326  0  4.206663  0  1.306976  0  0.212088  0.407863  0  4.196349  0
C  C62  1  0.66305401  0.19559077  0.57689219  1  0  0.466234  0  3.913968  0  0  0.425765  0  4.200992  0  0  0.45296  0  4.206723  0  1.306682  0  0.211918  0.407562  0  4.196401  0
C  C63  1  0.16305317  0.80440999  0.92311001  1  0  0.466197  0  3.914126  0  0  0.425771  0  4.201102  0  0  0.452963  0  4.206834  0  1.30696  0  0.211952  0.407567  0  4.196511  0
C  C64  1  0.31527912  0.09274375  0.63359451  1  0  0.122264  0  3.686138  0  0  0.075091  0  3.950095  0  0  0.090326  0  3.958654  0  0.566007  0  0.069285  0.065481  0  3.943948  0
C  C65  1  0.81527878  0.90725700  0.86640330  1  0  0.122305  0  3.686254  0  0  0.075135  0  3.950195  0  0  0.090374  0  3.958751  0  0.566016  0  0.06931  0.065524  0  3.944048  0
C  C66  1  0.68472140  0.90726086  0.36640519  1  0  0.122211  0  3.686107  0  0  0.07505  0  3.950068  0  0  0.090288  0  3.958623  0  0.566077  0  0.069261  0.065442  0  3.943922  0
C  C67  1  0.18471820  0.09274183  0.13359540  1  0  0.122277  0  3.686075  0  0  0.075073  0  3.950072  0  0  0.090309  0  3.958628  0  0.566059  0  0.069264  0.065462  0  3.943924  0
C  C68  1  0.36986827  0.17293619  0.73685413  1  0  -0.128421  0  3.824536  0  0  -0.102663  0  4.055702  0  0  -0.115707  0  4.083294  0  -0.077676  0  -0.035916  -0.094514  0  4.037179  0
C  C69  1  0.86987146  0.82706457  0.76314368  1  0  -0.128502  0  3.824586  0  0  -0.102709  0  4.05565  0  0  -0.115753  0  4.083243  0  -0.077934  0  -0.035929  -0.094563  0  4.03713  0
C  C70  1  0.63012872  0.82706746  0.26314455  1  0  -0.128518  0  3.82457  0  0  -0.102721  0  4.055627  0  0  -0.115758  0  4.083216  0  -0.077859  0  -0.03594  -0.094572  0  4.037104  0
C  C71  1  0.13012905  0.17293426  0.23685575  1  0  -0.128541  0  3.824577  0  0  -0.102702  0  4.055617  0  0  -0.115736  0  4.083201  0  -0.077903  0  -0.035913  -0.09455  0  4.037093  0
C  C72  1  0.48257209  0.13500489  0.79924234  1  0  0.338906  0  3.879733  0  0  0.322409  0  4.133686  0  0  0.340624  0  4.148846  0  0.696299  0  0.094989  0.309945  0  4.123366  0
C  C73  1  0.98257529  0.86499298  0.70075460  1  0  0.338927  0  3.879699  0  0  0.322511  0  4.133517  0  0  0.340725  0  4.148677  0  0.696533  0  0.095007  0.310048  0  4.123195  0
C  C74  1  0.51742725  0.86499491  0.20075591  1  0  0.338926  0  3.879825  0  0  0.322508  0  4.133628  0  0  0.340719  0  4.148787  0  0.69652  0  0.095017  0.310044  0  4.123308  0
C  C75  1  0.01742522  0.13500489  0.29924527  1  0  0.338995  0  3.879735  0  0  0.322556  0  4.133568  0  0  0.340766  0  4.148728  0  0.69653  0  0.095057  0.310091  0  4.123248  0
C  C76  1  0.50994315  0.22218226  0.90435887  1  0  -0.221397  0  3.745856  0  0  -0.235296  0  3.996835  0  0  -0.244826  0  4.01771  0  -0.03113  0  -0.116431  -0.228671  0  3.982533  0
C  C77  1  0.00994584  0.77781560  0.59563881  1  0  -0.221434  0  3.74584  0  0  -0.235367  0  3.996815  0  0  -0.244897  0  4.017689  0  -0.031145  0  -0.116433  -0.228743  0  3.982512  0
C  C78  1  0.49005618  0.77781753  0.09564012  1  0  -0.221463  0  3.745927  0  0  -0.235396  0  3.996894  0  0  -0.244924  0  4.017768  0  -0.031094  0  -0.116467  -0.22877  0  3.98259  0
C  C79  1  0.99005703  0.22218323  0.40436135  1  0  -0.221428  0  3.745883  0  0  -0.235351  0  3.996857  0  0  -0.244879  0  4.017732  0  -0.031141  0  -0.116465  -0.228724  0  3.982554  0
C  C80  1  0.43907964  0.34192584  0.94424932  1  0  -0.063619  0  3.861229  0  0  -0.075325  0  4.107294  0  0  -0.072533  0  4.129425  0  -0.079916  0  -0.099051  -0.077006  0  4.091868  0
C  C81  1  0.93908048  0.65807203  0.55575128  1  0  -0.063594  0  3.861189  0  0  -0.075295  0  4.107237  0  0  -0.072502  0  4.129369  0  -0.079954  0  -0.099041  -0.076976  0  4.091811  0
C  C82  1  0.56092088  0.65807299  0.05575157  1  0  -0.063595  0  3.861235  0  0  -0.075311  0  4.107285  0  0  -0.072517  0  4.129416  0  -0.079984  0  -0.099044  -0.07699  0  4.091858  0
C  C83  1  0.06092003  0.34192777  0.44424990  1  0  -0.063628  0  3.86123  0  0  -0.075341  0  4.10728  0  0  -0.072547  0  4.129411  0  -0.079963  0  -0.099052  -0.07702  0  4.091854  0
C  C84  1  0.33366221  0.38136526  0.88222213  1  0  -0.161382  0  3.870963  0  0  -0.175064  0  4.129058  0  0  -0.184115  0  4.155885  0  -0.117288  0  -0.125269  -0.1684  0  4.109407  0
C  C85  1  0.83366658  0.61863068  0.61777716  1  0  -0.161411  0  3.870899  0  0  -0.175075  0  4.129003  0  0  -0.184125  0  4.155831  0  -0.11727  0  -0.125279  -0.168411  0  4.109353  0
C  C86  1  0.66633242  0.61863260  0.11777847  1  0  -0.161344  0  3.870855  0  0  -0.175009  0  4.128951  0  0  -0.184059  0  4.15578  0  -0.117219  0  -0.125248  -0.168345  0  4.109296  0
C  C87  1  0.16633158  0.38136815  0.38222227  1  0  -0.161409  0  3.870945  0  0  -0.175079  0  4.129055  0  0  -0.184132  0  4.155882  0  -0.117198  0  -0.125274  -0.168416  0  4.109402  0
C  C88  1  0.30035447  0.29675632  0.78089547  1  0  -0.101409  0  3.829719  0  0  -0.119402  0  4.074208  0  0  -0.117231  0  4.098021  0  0.031944  0  -0.094125  -0.119844  0  4.05718  0
C  C89  1  0.80035296  0.70324348  0.71910278  1  0  -0.101416  0  3.829618  0  0  -0.119416  0  4.074093  0  0  -0.117252  0  4.097904  0  0.03192  0  -0.09413  -0.119857  0  4.057066  0
C  C90  1  0.69964604  0.70324636  0.21910439  1  0  -0.101404  0  3.829519  0  0  -0.119406  0  4.074002  0  0  -0.117242  0  4.09781  0  0.031793  0  -0.094119  -0.11984  0  4.056974  0
C  C91  1  0.19964284  0.29675536  0.28089738  1  0  -0.101396  0  3.829584  0  0  -0.119423  0  4.074065  0  0  -0.117251  0  4.097882  0  0.032  0  -0.094136  -0.11986  0  4.057037  0
N  N92  1  0.08169309  0.74892148  0.18434886  1  0  -0.31309  0  3.240179  0  0  -0.230347  0  3.49007  0  0  -0.249549  0  3.510948  0  -1.261743  0  -0.298072  -0.217331  0  3.47642  0
N  N93  1  0.58168923  0.25107735  0.31565131  1  0  -0.31311  0  3.240231  0  0  -0.230393  0  3.490149  0  0  -0.249593  0  3.511023  0  -1.26222  0  -0.298085  -0.217378  0  3.4765  0
N  N94  1  0.91830860  0.25107831  0.81565086  1  0  -0.313152  0  3.240284  0  0  -0.230435  0  3.490192  0  0  -0.249636  0  3.511067  0  -1.262204  0  -0.298079  -0.21742  0  3.476542  0
N  N95  1  0.41830893  0.74892148  0.68434886  1  0  -0.313221  0  3.240219  0  0  -0.230516  0  3.490148  0  0  -0.249716  0  3.511024  0  -1.262144  0  -0.298186  -0.217501  0  3.476501  0
N  N96  1  0.29355760  0.92617980  0.47731826  1  0  -0.442968  0  3.060344  0  0  -0.4059  0  3.34046  0  0  -0.429508  0  3.360012  0  -0.792591  0  -0.255647  -0.389584  0  3.326424  0
N  N97  1  0.79355844  0.07381999  0.02268000  1  0  -0.442968  0  3.060348  0  0  -0.405872  0  3.340493  0  0  -0.429478  0  3.360046  0  -0.792605  0  -0.255632  -0.389556  0  3.326457  0
N  N98  1  0.70644292  0.07382385  0.52268116  1  0  -0.442936  0  3.060234  0  0  -0.405827  0  3.340393  0  0  -0.429435  0  3.359949  0  -0.792534  0  -0.255613  -0.389513  0  3.326358  0
N  N99  1  0.20644089  0.92617691  0.97732032  1  0  -0.44291  0  3.060238  0  0  -0.405814  0  3.340398  0  0  -0.42942  0  3.359952  0  -0.792525  0  -0.25562  -0.389499  0  3.326362  0
N  N100  1  0.36965527  0.98049243  0.57275033  1  0  -0.196633  0  3.284427  0  0  -0.119943  0  3.544002  0  0  -0.132821  0  3.56504  0  -0.839503  0  -0.210318  -0.111409  0  3.52927  0
N  N101  1  0.86965494  0.01950736  0.92724792  1  0  -0.196662  0  3.284517  0  0  -0.119983  0  3.544129  0  0  -0.13287  0  3.565182  0  -0.839516  0  -0.210356  -0.111448  0  3.529395  0
N  N102  1  0.63034406  0.01951218  0.42724864  1  0  -0.196532  0  3.284267  0  0  -0.119872  0  3.543887  0  0  -0.132758  0  3.564938  0  -0.839599  0  -0.210295  -0.111337  0  3.52915  0
N  N103  1  0.13034204  0.98048954  0.07275313  1  0  -0.196592  0  3.284312  0  0  -0.119935  0  3.54395  0  0  -0.132822  0  3.565001  0  -0.839616  0  -0.210327  -0.111401  0  3.529218  0
O  O104  1  0.43910317  0.73811038  0.45068595  1  0  -0.620697  0  2.00596  0  0  -0.551309  0  2.247908  0  0  -0.58045  0  2.245322  0  -1.167692  0  -0.310914  -0.531037  0  2.248943  0
O  O105  1  0.93910284  0.26188845  0.04931348  1  0  -0.620733  0  2.005931  0  0  -0.551308  0  2.247927  0  0  -0.580447  0  2.245334  0  -1.167669  0  -0.310912  -0.531037  0  2.248961  0
O  O106  1  0.56089499  0.26189423  0.54931522  1  0  -0.62059  0  2.005844  0  0  -0.551134  0  2.247843  0  0  -0.580263  0  2.245232  0  -1.167761  0  -0.310778  -0.53086  0  2.248872  0
O  O107  1  0.06089414  0.73810749  0.95068655  1  0  -0.620564  0  2.005953  0  0  -0.551115  0  2.247933  0  0  -0.580244  0  2.245324  0  -1.167804  0  -0.310795  -0.530839  0  2.248956  0
O  O108  1  0.55797784  0.02585766  0.76647722  1  0  -0.597048  0  2.076929  0  0  -0.517664  0  2.322977  0  0  -0.546892  0  2.322294  0  -1.171826  0  -0.31474  -0.496999  0  2.322744  0
O  O109  1  0.05798170  0.97414021  0.73351972  1  0  -0.597012  0  2.076829  0  0  -0.517701  0  2.322884  0  0  -0.546925  0  2.322199  0  -1.171844  0  -0.314758  -0.497036  0  2.322653  0
O  O110  1  0.44201914  0.97414118  0.23352001  1  0  -0.597026  0  2.076888  0  0  -0.517703  0  2.32293  0  0  -0.54693  0  2.322245  0  -1.171849  0  -0.314758  -0.497038  0  2.322699  0
O  O111  1  0.94201763  0.02585958  0.26648000  1  0  -0.59703  0  2.076873  0  0  -0.517733  0  2.322966  0  0  -0.546959  0  2.32228  0  -1.171867  0  -0.314771  -0.49707  0  2.322736  0
