# generated using pymatgen
data_Mn3H38C52(NO7)2
_symmetry_space_group_name_H-M   'P 1'
_cell_length_a   10.44757641
_cell_length_b   10.62931347
_cell_length_c   11.93448383
_cell_angle_alpha   109.30066434
_cell_angle_beta   114.95575804
_cell_angle_gamma   93.48457752
_symmetry_Int_Tables_number   1
_chemical_formula_structural   Mn3H38C52(NO7)2
_chemical_formula_sum   'Mn3 H38 C52 N2 O14'
_cell_volume   1102.57013105
_cell_formula_units_Z   1
loop_
 _symmetry_equiv_pos_site_id
 _symmetry_equiv_pos_as_xyz
  1  'x, y, z'
loop_
 _atom_site_type_symbol
 _atom_site_label
 _atom_site_symmetry_multiplicity
 _atom_site_fract_x
 _atom_site_fract_y
 _atom_site_fract_z
 _atom_site_occupancy
 _atom_site_hle17_ddec_charge
 _atom_site_hle17_ddec_spin_density
 _atom_site_hle17_ddec_sum_bond_order
 _atom_site_hle17_magmom
 _atom_site_hse06_10hf_ddec_charge
 _atom_site_hse06_10hf_ddec_spin_density
 _atom_site_hse06_10hf_ddec_sum_bond_order
 _atom_site_hse06_10hf_magmom
 _atom_site_hse06_ddec_charge
 _atom_site_hse06_ddec_spin_density
 _atom_site_hse06_ddec_sum_bond_order
 _atom_site_hse06_magmom
 _atom_site_pbe_cm5_charge
 _atom_site_pbe_ddec_charge
 _atom_site_pbe_ddec_spin_density
 _atom_site_pbe_ddec_sum_bond_order
 _atom_site_pbe_magmom
Mn  Mn0  1  0.49998888  0.49999842  0.49999800  1  1.273397  4.793808  1.760774  4.686  1.1271  4.712062  2.27002  4.542  1.182468  4.757463  2.191383  4.607  0.613766  1.085207  4.662113  2.328191  4.474
Mn  Mn1  1  0.22601731  0.64345827  0.54934055  1  1.148848  4.79764  1.744469  4.673  0.984328  4.725334  2.233562  4.535  1.046495  4.767861  2.161589  4.597  0.59692  0.936256  4.681684  2.286726  4.472
Mn  Mn2  1  0.77398627  0.35654039  0.45066471  1  1.148823  4.797672  1.744555  4.673  0.98433  4.725381  2.233639  4.535  1.046503  4.767906  2.161665  4.597  0.596933  0.936257  4.681733  2.286804  4.472
H  H3  1  0.03360254  0.62447564  0.64314449  1  0.432062  -0.000303  0.861034  0.001  0.403687  0.000547  0.923408  0.002  0.414002  0.000195  0.908547  0.002  0.304505  0.396216  0.000906  0.934192  0.002
H  H4  1  0.96640368  0.37552096  0.35685612  1  0.432096  -0.000304  0.86093  0.001  0.403716  0.000547  0.923357  0.002  0.41403  0.000195  0.908497  0.002  0.304515  0.396245  0.000906  0.934141  0.002
H  H5  1  0.88127394  0.36964041  0.09128079  1  0.094268  -0.000137  0.95456  0.0  0.104311  1.4e-05  1.017696  0.0  0.107251  -4.3e-05  1.015903  0.0  0.1035  0.10181  0.000105  1.019572  0.0
H  H6  1  0.11873229  0.63037674  0.90872676  1  0.094279  -0.000151  0.954593  0.0  0.104317  1.4e-05  1.017715  0.0  0.10726  -4.3e-05  1.015918  0.0  0.103522  0.101812  0.000105  1.019594  0.0
H  H7  1  0.80522450  0.25590782  0.84696133  1  0.080687  1.4e-05  0.964589  0.0  0.093027  -7e-06  1.02474  0.0  0.095303  -1.3e-05  1.02457  0.0  0.097973  0.091959  6e-06  1.023986  0.0
H  H8  1  0.19477727  0.74410424  0.15304138  1  0.080711  1e-05  0.964446  0.0  0.093027  -7e-06  1.02464  0.0  0.095302  -1.3e-05  1.024473  0.0  0.098001  0.091959  6e-06  1.023886  0.0
H  H9  1  0.99087601  0.24280308  0.76754512  1  0.085748  -0.000263  0.965169  0.0  0.094624  -0.000212  1.030894  0.0  0.097097  -0.000228  1.030493  0.0  0.097318  0.092942  -0.000172  1.031097  0.0
H  H10  1  0.00912311  0.75719874  0.23245273  1  0.085748  -0.000275  0.965139  0.0  0.094616  -0.000212  1.03087  0.0  0.097089  -0.000227  1.03047  0.0  0.097334  0.092931  -0.000172  1.031083  0.0
H  H11  1  0.32873767  0.44335975  0.17820348  1  0.110074  -0.000628  0.974768  0.0  0.115394  -0.000561  1.046509  0.0  0.118995  -0.000625  1.04418  0.0  0.106279  0.112711  -0.000463  1.048327  0.0
H  H12  1  0.67126249  0.55663793  0.82179604  1  0.110065  -0.000644  0.97476  0.0  0.115373  -0.000561  1.046515  0.0  0.118971  -0.000624  1.044193  0.0  0.106264  0.112688  -0.000463  1.048335  0.0
H  H13  1  0.17364641  0.16762782  0.21167418  1  0.093173  -0.000331  0.974841  0.0  0.101858  -0.000228  1.041738  0.0  0.105157  -0.00028  1.039077  0.0  0.101453  0.099402  -0.000185  1.043678  0.0
H  H14  1  0.82634639  0.83236174  0.78831517  1  0.093106  -0.000337  0.974845  0.0  0.101779  -0.000228  1.041761  0.0  0.105073  -0.00028  1.039111  0.0  0.101431  0.09932  -0.000185  1.043704  0.0
H  H15  1  0.02399236  0.85157948  0.81535076  1  0.084885  -0.000217  0.97396  0.0  0.095424  -3.2e-05  1.037501  0.0  0.098586  -9.5e-05  1.034936  0.0  0.09772  0.093259  5.4e-05  1.03934  0.0
H  H16  1  0.97600441  0.14842136  0.18463839  1  0.084898  -0.000188  0.973818  0.0  0.095431  -3.1e-05  1.037378  0.0  0.098591  -9.5e-05  1.034815  0.0  0.097719  0.093238  5.4e-05  1.039249  0.0
H  H17  1  0.27613759  0.86154939  0.85921546  1  0.096959  -0.000171  0.952591  0.0  0.107628  -6.4e-05  1.012288  0.0  0.110967  -0.00013  1.010369  0.0  0.102737  0.105307  1.2e-05  1.014012  0.0
H  H18  1  0.72385733  0.13844837  0.14077460  1  0.09697  -0.000167  0.952549  0.0  0.107617  -6.4e-05  1.012285  0.0  0.110958  -0.00013  1.010357  0.0  0.102737  0.105298  1.2e-05  1.014009  0.0
H  H19  1  0.47956917  0.02788109  0.08017554  1  0.094562  -0.000298  0.97507  0.0  0.104132  -0.000208  1.039486  0.0  0.106862  -0.000238  1.037879  0.0  0.102678  0.101069  -0.000165  1.043176  0.0
H  H20  1  0.52042943  0.97211046  0.91981655  1  0.094563  -0.000285  0.97496  0.0  0.104139  -0.000208  1.039374  0.0  0.106857  -0.000238  1.037804  0.0  0.102687  0.101087  -0.000165  1.043054  0.0
H  H21  1  0.15867355  0.41425656  0.76432087  1  0.109021  -0.00049  0.978463  0.0  0.113284  -0.000407  1.052006  0.0  0.117416  -0.000459  1.048659  0.0  0.100537  0.109956  -0.000344  1.054989  0.0
H  H22  1  0.84133321  0.58574620  0.23568259  1  0.108969  -0.000477  0.978452  0.0  0.11326  -0.000407  1.051972  0.0  0.117392  -0.00046  1.048624  0.0  0.100524  0.109913  -0.000344  1.054974  0.0
H  H23  1  0.43361467  0.27261996  0.06256404  1  0.095297  -0.000351  0.980086  0.0  0.104134  -0.00023  1.045854  0.0  0.106468  -0.000284  1.045422  0.0  0.099899  0.102391  -0.000163  1.046331  0.0
H  H24  1  0.56639286  0.72738176  0.93744025  1  0.095371  -0.000356  0.979998  0.0  0.104179  -0.00023  1.045809  0.0  0.106524  -0.000284  1.04534  0.0  0.099907  0.102435  -0.000164  1.046289  0.0
H  H25  1  0.61079886  0.26428297  0.97556885  1  0.083857  3.3e-05  0.965951  0.0  0.096461  -2e-05  1.023958  0.0  0.098646  -2.1e-05  1.023959  0.0  0.097614  0.095361  -8e-06  1.023185  0.0
H  H26  1  0.38921105  0.73572387  0.02443701  1  0.083885  2.1e-05  0.966006  0.0  0.096509  -2e-05  1.023997  0.0  0.098694  -2.1e-05  1.023997  0.0  0.09762  0.09541  -8e-06  1.023221  0.0
H  H27  1  0.56489513  0.33610684  0.78472844  1  0.092604  -0.0003  0.960839  0.0  0.102959  -0.000209  1.024942  0.0  0.106135  -0.000243  1.022537  0.0  0.101755  0.100318  -0.000163  1.027085  0.0
H  H28  1  0.43510899  0.66389390  0.21527262  1  0.092606  -0.000309  0.960878  0.0  0.10295  -0.000209  1.024986  0.0  0.10613  -0.000243  1.022576  0.0  0.101739  0.100306  -0.000163  1.027129  0.0
H  H29  1  0.34468233  0.75949321  0.39422276  1  0.089766  -0.000542  0.942552  0.0  0.097234  -0.000267  1.006758  0.0  0.0999  -0.000404  1.004599  0.0  0.122513  0.095192  -0.000143  1.008514  0.001
H  H30  1  0.65530675  0.24049838  0.60577922  1  0.089813  -0.000518  0.942594  0.0  0.097237  -0.000267  1.006823  0.0  0.099917  -0.000405  1.00465  0.0  0.122529  0.095196  -0.000143  1.00858  0.001
H  H31  1  0.37586237  0.97559708  0.35544610  1  0.104137  0.000196  0.947079  0.0  0.114641  0.000225  1.004116  0.0  0.117012  0.000153  1.00491  0.0  0.10855  0.112724  0.000302  1.004112  0.0
H  H32  1  0.62413566  0.02440058  0.64456184  1  0.104198  0.000184  0.947135  0.0  0.114686  0.000225  1.004167  0.0  0.117057  0.000153  1.004961  0.0  0.108563  0.112772  0.000302  1.004156  0.0
H  H33  1  0.27892152  0.16828004  0.45115866  1  0.110757  -0.000544  0.9409  0.0  0.120728  -0.00044  0.999416  0.0  0.123808  -0.000487  0.996952  0.0  0.112218  0.118264  -0.000382  1.001513  0.0
H  H34  1  0.72107887  0.83171862  0.54885296  1  0.110878  -0.000547  0.940681  0.0  0.120695  -0.00044  0.99938  0.0  0.12378  -0.000487  0.996902  0.0  0.112212  0.11824  -0.000382  1.001462  0.0
H  H35  1  0.14894025  0.13637506  0.58112431  1  0.09884  0.000198  0.965624  0.0  0.108123  0.000269  1.026669  0.0  0.110411  0.000181  1.027521  0.0  0.105152  0.106532  0.000269  1.026267  0.0
H  H36  1  0.85105619  0.86362055  0.41888578  1  0.09892  0.000195  0.965528  0.0  0.108194  0.000268  1.02658  0.0  0.110485  0.000181  1.027426  0.0  0.105175  0.106604  0.000269  1.02618  0.0
H  H37  1  0.12150519  0.91255003  0.60492362  1  0.081004  1.9e-05  0.944798  0.0  0.090094  0.000411  1.00695  0.001  0.092293  0.00027  1.005375  0.0  0.11856  0.088546  0.000548  1.008041  0.001
H  H38  1  0.87848678  0.08744051  0.39507828  1  0.080979  2.6e-05  0.944948  0.0  0.090007  0.000411  1.007167  0.001  0.092206  0.00027  1.00559  0.0  0.118522  0.088459  0.000548  1.008253  0.001
H  H39  1  0.95032608  0.63816988  0.50855616  1  0.42856  -0.000432  0.867638  0.001  0.399031  0.000476  0.930986  0.002  0.409744  0.000154  0.915604  0.002  0.301652  0.391362  0.000705  0.941939  0.002
H  H40  1  0.04968146  0.36182774  0.49144607  1  0.428513  -0.000434  0.867677  0.001  0.398973  0.000476  0.931057  0.002  0.409687  0.000154  0.915673  0.002  0.301609  0.391307  0.000705  0.942005  0.002
C  C41  1  0.15001807  0.48290488  0.29291957  1  0.657365  0.007919  3.851926  0.008  0.604088  0.015161  4.137946  0.013  0.640281  0.011377  4.130771  0.01  0.221093  0.57886  0.019626  4.141622  0.017
C  C42  1  0.84998605  0.51709585  0.70708148  1  0.657511  0.007927  3.851605  0.008  0.604299  0.015156  4.137573  0.013  0.640502  0.011378  4.130382  0.01  0.221164  0.579074  0.019623  4.14125  0.017
C  C43  1  0.10941785  0.41080278  0.14879105  1  -0.08179  -0.003057  3.788722  -0.002  -0.055687  -0.002083  4.02326  -0.001  -0.065905  -0.002437  4.047708  -0.001  -0.021869  -0.049219  -0.001667  4.007246  -0.001
C  C44  1  0.89058259  0.58920006  0.85120425  1  -0.08187  -0.003073  3.788865  -0.002  -0.055808  -0.002079  4.02345  -0.001  -0.066026  -0.00245  4.047892  -0.001  -0.021873  -0.049339  -0.001667  4.007434  -0.001
C  C45  1  0.96169506  0.35936273  0.05546263  1  -0.057612  0.002209  3.736794  0.002  -0.084475  0.002857  3.985763  0.002  -0.083168  0.00229  4.00686  0.002  -0.080792  -0.084848  0.003546  3.972305  0.003
C  C46  1  0.03830830  0.64065140  0.94453709  1  -0.057621  0.002207  3.736757  0.002  -0.084432  0.002855  3.985694  0.002  -0.083122  0.002297  4.006787  0.002  -0.080769  -0.084802  0.003547  3.972231  0.003
C  C47  1  0.91986552  0.29763154  0.91905918  1  -0.069766  -0.001668  3.784419  -0.001  -0.081653  -0.000928  4.038026  -0.001  -0.08577  -0.001171  4.060958  -0.001  -0.091688  -0.079388  -0.000838  4.023117  -0.001
C  C48  1  0.08013309  0.70238056  0.08094070  1  -0.069767  -0.001639  3.784337  -0.001  -0.081664  -0.000925  4.037947  -0.001  -0.085783  -0.001178  4.06088  -0.001  -0.091737  -0.079399  -0.000838  4.023037  -0.001
C  C49  1  0.02410088  0.29000114  0.87475539  1  -0.081017  0.002017  3.703178  0.002  -0.104901  0.00255  3.951564  0.002  -0.104808  0.001998  3.971272  0.002  -0.080077  -0.105158  0.003029  3.939095  0.002
C  C50  1  0.97589800  0.71000789  0.12524115  1  -0.080996  0.002032  3.703091  0.002  -0.104891  0.00255  3.951459  0.002  -0.104796  0.002001  3.971165  0.002  -0.080095  -0.105151  0.003029  3.938988  0.002
C  C51  1  0.17262279  0.34239458  0.96659662  1  0.047405  -0.00127  3.772449  -0.001  0.067665  -0.000743  4.000041  -0.001  0.065631  -0.000938  4.024841  -0.001  -0.00456  0.06845  -0.000672  3.983945  -0.001
C  C52  1  0.82737475  0.65760519  0.03340087  1  0.047416  -0.001305  3.772499  -0.001  0.067744  -0.000741  3.999972  -0.001  0.065707  -0.000943  4.024777  -0.001  -0.004579  0.068529  -0.000672  3.983875  -0.001
C  C53  1  0.21448157  0.40075057  0.10433544  1  -0.097344  0.001707  3.658454  0.002  -0.131104  0.002078  3.90729  0.002  -0.130907  0.001621  3.927444  0.002  -0.076961  -0.130895  0.002963  3.894207  0.003
C  C54  1  0.78551861  0.59925124  0.89566196  1  -0.097304  0.00176  3.658402  0.002  -0.131091  0.002077  3.90726  0.002  -0.130892  0.001626  3.927415  0.002  -0.076943  -0.130882  0.002963  3.894176  0.003
C  C55  1  0.45451855  0.21958802  0.27916147  1  0.664596  0.01058  3.877565  0.01  0.612509  0.018548  4.171775  0.016  0.649415  0.014062  4.163519  0.013  0.222301  0.58668  0.023382  4.176302  0.02
C  C56  1  0.54548796  0.78040964  0.72083369  1  0.664676  0.010566  3.877557  0.01  0.612643  0.018544  4.171698  0.016  0.649525  0.01406  4.163478  0.013  0.222384  0.586826  0.023377  4.176207  0.02
C  C57  1  0.33573897  0.10830161  0.15570993  1  -0.083591  -0.000624  3.794083  0.0  -0.058496  -0.000226  4.028754  0.0  -0.067321  -0.000918  4.051093  0.0  -0.024967  -0.052763  0.000303  4.013183  0.0
C  C58  1  0.66426517  0.89169915  0.84428443  1  -0.08359  -0.000518  3.794209  0.0  -0.058501  -0.000226  4.028861  0.0  -0.067318  -0.000906  4.051204  0.0  -0.024984  -0.052773  0.000303  4.013289  0.0
C  C59  1  0.19202933  0.09795450  0.13273274  1  -0.101584  0.00271  3.701839  0.002  -0.1348  0.003398  3.949581  0.003  -0.134768  0.002667  3.970435  0.002  -0.080712  -0.133513  0.004207  3.934733  0.003
C  C60  1  0.80796849  0.90204221  0.86725725  1  -0.10161  0.002624  3.701802  0.002  -0.134821  0.003397  3.949614  0.003  -0.134789  0.002658  3.970466  0.002  -0.080737  -0.133533  0.004205  3.934769  0.003
C  C61  1  0.07606274  0.00505320  0.01155359  1  0.048101  -0.001616  3.759093  -0.001  0.065696  -0.000746  3.988335  -0.001  0.064173  -0.001084  4.013412  -0.001  -0.006607  0.066529  -0.000833  3.972454  -0.001
C  C62  1  0.92393824  0.99494760  0.98843710  1  0.048133  -0.001477  3.758719  -0.001  0.065705  -0.000748  3.98799  -0.001  0.064185  -0.001075  4.013064  -0.001  -0.006593  0.066535  -0.000833  3.972105  -0.001
C  C63  1  0.10989271  0.92265152  0.91281368  1  -0.083946  0.002727  3.714472  0.002  -0.106407  0.003151  3.960798  0.002  -0.106764  0.002544  3.981064  0.002  -0.082157  -0.106861  0.004829  3.948052  0.004
C  C64  1  0.89009880  0.07735348  0.08717643  1  -0.08397  0.002569  3.714426  0.002  -0.106416  0.003152  3.960741  0.002  -0.106775  0.002537  3.981011  0.002  -0.082177  -0.106848  0.004828  3.948008  0.004
C  C65  1  0.25320827  0.92845330  0.93672832  1  -0.083585  -0.00209  3.779672  -0.001  -0.094612  -0.001118  4.033535  -0.001  -0.098431  -0.001449  4.054503  -0.001  -0.093904  -0.092376  -0.001086  4.020169  -0.001
C  C66  1  0.74679219  0.07154545  0.06326241  1  -0.083573  -0.001985  3.780074  -0.001  -0.094581  -0.00112  4.033905  -0.001  -0.098402  -0.001439  4.054889  -0.001  -0.093911  -0.092344  -0.001085  4.020527  -0.001
C  C67  1  0.36671140  0.02052365  0.05858269  1  -0.073075  0.002465  3.75361  0.002  -0.099673  0.002746  4.002793  0.002  -0.098081  0.002288  4.022081  0.002  -0.086631  -0.100513  0.004082  3.991258  0.003
C  C68  1  0.63329273  0.97947299  0.94141380  1  -0.073061  0.002358  3.753667  0.002  -0.099656  0.002747  4.002845  0.002  -0.098073  0.002279  4.02213  0.002  -0.086585  -0.100504  0.004082  3.991307  0.003
C  C69  1  0.34066079  0.43408349  0.65923630  1  0.673976  0.00845  3.865926  0.009  0.619448  0.015646  4.157406  0.014  0.655751  0.01159  4.149491  0.011  0.227464  0.593971  0.020527  4.161873  0.018
C  C70  1  0.65934226  0.56591313  0.34076732  1  0.67384  0.00847  3.865744  0.009  0.619436  0.015645  4.157115  0.014  0.655736  0.011596  4.149194  0.011  0.227458  0.593954  0.020527  4.161588  0.018
C  C71  1  0.35961102  0.37954292  0.76402281  1  -0.083959  -0.000337  3.801796  0.0  -0.059785  4.8e-05  4.038553  0.0  -0.069266  -0.000555  4.062566  0.0  -0.026124  -0.053769  0.000683  4.022176  0.001
C  C72  1  0.64039704  0.62045674  0.23598190  1  -0.083909  -0.000341  3.801882  0.0  -0.059792  5.6e-05  4.038647  0.0  -0.069269  -0.000562  4.062657  0.0  -0.026122  -0.053774  0.000685  4.022268  0.001
C  C73  1  0.25616133  0.37842596  0.80951418  1  -0.123762  0.002557  3.698707  0.002  -0.155016  0.00313  3.946865  0.003  -0.154779  0.002539  3.96518  0.002  -0.086767  -0.154552  0.003591  3.934473  0.003
C  C74  1  0.74383960  0.62157476  0.19049491  1  -0.123753  0.002522  3.698846  0.002  -0.155038  0.003127  3.946992  0.003  -0.1548  0.002541  3.965309  0.002  -0.086835  -0.154556  0.00359  3.934614  0.003
C  C75  1  0.28091570  0.33915556  0.91683172  1  0.046561  -0.001797  3.783973  -0.001  0.064789  -0.000923  4.013204  -0.001  0.063128  -0.001255  4.038115  -0.001  -0.007796  0.06572  -0.000892  3.996302  -0.001
C  C76  1  0.71908790  0.66084314  0.08316519  1  0.046576  -0.001795  3.783935  -0.001  0.064827  -0.000922  4.013083  -0.001  0.063167  -0.001258  4.037994  -0.001  -0.007697  0.06576  -0.000892  3.996173  -0.001
C  C77  1  0.41117993  0.30093721  0.97755099  1  -0.079753  0.002779  3.692969  0.002  -0.102377  0.003364  3.936973  0.003  -0.102849  0.002688  3.957716  0.002  -0.080539  -0.102207  0.004419  3.923352  0.003
C  C78  1  0.58882102  0.69906354  0.02245141  1  -0.079831  0.002793  3.692953  0.002  -0.10245  0.003361  3.936953  0.003  -0.10292  0.002689  3.957707  0.002  -0.080574  -0.10228  0.004416  3.92333  0.003
C  C79  1  0.51174341  0.29706847  0.92897752  1  -0.066498  -0.002185  3.776564  -0.002  -0.075451  -0.001251  4.024889  -0.001  -0.079054  -0.001547  4.047011  -0.001  -0.091056  -0.073359  -0.001219  4.009758  -0.001
C  C80  1  0.48825886  0.70293742  0.07102522  1  -0.066487  -0.002163  3.776543  -0.001  -0.075488  -0.001249  4.024883  -0.001  -0.079091  -0.001548  4.047006  -0.001  -0.091054  -0.073396  -0.001219  4.009748  -0.001
C  C81  1  0.48641613  0.33584015  0.82237380  1  -0.068786  0.002279  3.743795  0.002  -0.096769  0.002765  3.993674  0.002  -0.095678  0.002251  4.013972  0.002  -0.085875  -0.096806  0.003821  3.979784  0.003
C  C82  1  0.51358851  0.66416262  0.17763224  1  -0.06884  0.002305  3.743654  0.002  -0.096779  0.002762  3.993513  0.002  -0.095687  0.002254  4.013809  0.002  -0.085882  -0.096809  0.00382  3.979618  0.003
C  C83  1  0.30098903  0.84525817  0.43141353  1  0.119215  0.003298  3.693285  0.003  0.089517  0.004908  3.945911  0.004  0.095969  0.004174  3.964289  0.004  0.051345  0.085827  0.005982  3.933007  0.005
C  C84  1  0.69899927  0.15473857  0.56858885  1  0.119096  0.003107  3.693473  0.003  0.089446  0.004909  3.946079  0.004  0.095889  0.00417  3.96445  0.004  0.051257  0.085752  0.005982  3.93318  0.005
C  C85  1  0.31887431  0.96560286  0.41140286  1  -0.120257  -0.002152  3.745163  -0.001  -0.130406  -0.000993  3.994814  0.0  -0.137453  -0.001664  4.017115  -0.001  -0.080326  -0.126154  -0.000579  3.980512  0.0
C  C86  1  0.68111687  0.03439282  0.58860112  1  -0.120269  -0.001929  3.745512  -0.001  -0.130399  -0.000995  3.995115  0.0  -0.137447  -0.001661  4.01742  -0.001  -0.080294  -0.126146  -0.000579  3.980816  0.0
C  C87  1  0.26337913  0.07271642  0.46428667  1  -0.001628  0.003226  3.693001  0.003  -0.020385  0.004483  3.937497  0.004  -0.017017  0.00388  3.95604  0.003  -0.062473  -0.022926  0.005555  3.925583  0.004
C  C88  1  0.73661153  0.92728131  0.53571772  1  -0.001727  0.003103  3.692906  0.003  -0.020375  0.004484  3.937424  0.004  -0.017004  0.003876  3.955967  0.003  -0.062477  -0.022918  0.005554  3.92551  0.004
C  C89  1  0.19150384  0.05489265  0.53543312  1  -0.12095  -0.002104  3.753514  -0.001  -0.130176  -0.001093  3.998163  0.0  -0.137687  -0.001772  4.021616  -0.001  -0.082459  -0.125667  -0.000677  3.982877  0.0
C  C90  1  0.80848655  0.94509995  0.46456965  1  -0.121021  -0.001934  3.753243  -0.001  -0.130226  -0.001095  3.997855  0.0  -0.137739  -0.00177  4.021307  -0.001  -0.082501  -0.125722  -0.000677  3.982578  0.0
C  C91  1  0.17655153  0.93100514  0.54989033  1  0.115097  0.003598  3.712244  0.003  0.088768  0.005444  3.956399  0.005  0.09499  0.004658  3.975966  0.004  0.049078  0.085192  0.006581  3.942751  0.005
C  C92  1  0.82343992  0.06898746  0.45011032  1  0.115212  0.003456  3.712217  0.003  0.088907  0.005444  3.956367  0.005  0.095129  0.004656  3.97594  0.004  0.049199  0.085331  0.00658  3.942718  0.005
N  N93  1  0.22934263  0.82702181  0.49811149  1  -0.343666  0.025631  3.251266  0.013  -0.272795  0.029218  3.524365  0.012  -0.293549  0.02596  3.541704  0.01  -0.322814  -0.25781  0.0323  3.511551  0.014
N  N94  1  0.77064804  0.17297184  0.50188666  1  -0.343725  0.025762  3.251357  0.013  -0.272818  0.029217  3.524406  0.012  -0.293575  0.025964  3.541755  0.01  -0.32281  -0.257831  0.032299  3.511592  0.014
O  O95  1  0.05038573  0.49943558  0.32837920  1  -0.657473  0.024547  2.024402  0.019  -0.590974  0.034141  2.266987  0.027  -0.619316  0.029268  2.254951  0.023  -0.302551  -0.570005  0.038806  2.274814  0.031
O  O96  1  0.94962050  0.50056514  0.67162096  1  -0.657515  0.02453  2.024314  0.019  -0.591047  0.034143  2.266905  0.027  -0.619399  0.029266  2.254891  0.023  -0.302562  -0.570081  0.038805  2.274737  0.031
O  O97  1  0.28396372  0.53553676  0.38257800  1  -0.679567  0.053265  2.109218  0.03  -0.605833  0.067951  2.394781  0.039  -0.637962  0.061286  2.376429  0.034  -0.296754  -0.581348  0.074469  2.406652  0.045
O  O98  1  0.71603462  0.46446611  0.61741652  1  -0.679601  0.053271  2.108885  0.03  -0.605951  0.067948  2.394475  0.039  -0.638119  0.061289  2.376169  0.034  -0.296822  -0.581466  0.074467  2.406341  0.045
O  O99  1  0.42680151  0.28570407  0.37350774  1  -0.654946  0.031471  2.035071  0.019  -0.595385  0.040419  2.306949  0.024  -0.625195  0.035588  2.292541  0.02  -0.307371  -0.573156  0.045572  2.316244  0.029
O  O100  1  0.57319920  0.71429978  0.62649214  1  -0.654867  0.031482  2.035312  0.019  -0.595328  0.040417  2.307153  0.024  -0.625125  0.035588  2.292756  0.02  -0.307349  -0.57311  0.045568  2.316443  0.029
O  O101  1  0.57700861  0.24412078  0.28045051  1  -0.656805  0.039822  2.0411  0.027  -0.591044  0.047762  2.311691  0.03  -0.623335  0.041573  2.297197  0.024  -0.316235  -0.566602  0.053603  2.320776  0.035
O  O102  1  0.42299734  0.75587068  0.71955014  1  -0.65694  0.039826  2.040937  0.027  -0.591186  0.047766  2.311525  0.03  -0.623474  0.041573  2.297043  0.024  -0.3163  -0.566747  0.053607  2.320606  0.035
O  O103  1  0.44569906  0.44768106  0.63400641  1  -0.642242  0.032985  2.094064  0.019  -0.579209  0.041288  2.370581  0.024  -0.608453  0.03685  2.355301  0.02  -0.295769  -0.55777  0.046159  2.380839  0.029
O  O104  1  0.55429924  0.55231764  0.36600110  1  -0.642218  0.032986  2.093896  0.02  -0.579244  0.041289  2.37038  0.024  -0.608506  0.036851  2.355139  0.02  -0.295784  -0.557803  0.046161  2.380644  0.029
O  O105  1  0.22075180  0.46828944  0.60227503  1  -0.686232  0.030913  2.086137  0.019  -0.607365  0.037408  2.338839  0.023  -0.638677  0.03309  2.323965  0.019  -0.31633  -0.584116  0.041506  2.348543  0.026
O  O106  1  0.77924573  0.53170211  0.39772085  1  -0.686145  0.030896  2.086163  0.019  -0.607337  0.03741  2.338831  0.023  -0.638656  0.033088  2.32398  0.019  -0.316342  -0.584085  0.041507  2.34855  0.026
O  O107  1  0.04515892  0.67850749  0.59250698  1  -0.82431  0.031661  1.857542  0.019  -0.762321  0.041193  2.058889  0.024  -0.786874  0.03653  2.023596  0.021  -0.565527  -0.743592  0.045442  2.083585  0.028
O  O108  1  0.95484440  0.32149427  0.40749827  1  -0.824314  0.03167  1.857479  0.019  -0.762306  0.041194  2.058882  0.024  -0.786844  0.03653  2.023555  0.021  -0.56551  -0.743579  0.045443  2.083574  0.028
