# generated using pymatgen
data_CdH9C10(NO2)3
_symmetry_space_group_name_H-M   'P 1'
_cell_length_a   10.54344599
_cell_length_b   11.13087080
_cell_length_c   12.97156241
_cell_angle_alpha   67.14026545
_cell_angle_beta   66.02119900
_cell_angle_gamma   61.73111527
_symmetry_Int_Tables_number   1
_chemical_formula_structural   CdH9C10(NO2)3
_chemical_formula_sum   'Cd4 H36 C40 N12 O24'
_cell_volume   1188.14897267
_cell_formula_units_Z   4
loop_
 _symmetry_equiv_pos_site_id
 _symmetry_equiv_pos_as_xyz
  1  'x, y, z'
loop_
 _atom_site_type_symbol
 _atom_site_label
 _atom_site_symmetry_multiplicity
 _atom_site_fract_x
 _atom_site_fract_y
 _atom_site_fract_z
 _atom_site_occupancy
 _atom_site_hle17_bader_spin_density
 _atom_site_hle17_ddec_charge
 _atom_site_hle17_ddec_spin_density
 _atom_site_hle17_ddec_sum_bond_order
 _atom_site_hle17_magmom
 _atom_site_hse06_10hf_bader_spin_density
 _atom_site_hse06_10hf_ddec_charge
 _atom_site_hse06_10hf_ddec_spin_density
 _atom_site_hse06_10hf_ddec_sum_bond_order
 _atom_site_hse06_10hf_magmom
 _atom_site_hse06_bader_spin_density
 _atom_site_hse06_ddec_charge
 _atom_site_hse06_ddec_spin_density
 _atom_site_hse06_ddec_sum_bond_order
 _atom_site_hse06_magmom
 _atom_site_pbe_bader_spin_density
 _atom_site_pbe_cm5_charge
 _atom_site_pbe_ddec_charge
 _atom_site_pbe_ddec_spin_density
 _atom_site_pbe_ddec_sum_bond_order
 _atom_site_pbe_magmom
Cd  Cd0  1  0.33752934  0.91824495  0.68933524  1  0  1.204021  0  1.606379  0  0  1.025381  0  2.046599  0  0  1.082074  0  1.989279  0  0  0.783133  0.985254  0  2.085267  0
Cd  Cd1  1  0.94519573  0.58177870  0.81070571  1  0  1.20347  0  1.607373  0  0  1.024677  0  2.047857  0  0  1.081349  0  1.990511  0  0  0.783268  0.984609  0  2.086483  0
Cd  Cd2  1  0.66247082  0.08175606  0.31066486  1  0  1.203996  0  1.606384  0  0  1.025364  0  2.046603  0  0  1.082053  0  1.989289  0  0  0.783125  0.985235  0  2.085272  0
Cd  Cd3  1  0.05480486  0.41822126  0.18929459  1  0  1.203483  0  1.607415  0  0  1.024665  0  2.047932  0  0  1.081342  0  1.990588  0  0  0.783279  0.984601  0  2.086556  0
H  H4  1  0.61475988  0.22193660  0.01617049  1  0  0.120111  0  0.98876  0  0  0.128261  0  1.054129  0  0  0.132085  0  1.050763  0  0  0.111191  0.125588  0  1.056533  0
H  H5  1  0.85291669  0.27795468  0.48398880  1  0  0.120042  0  0.99025  0  0  0.128106  0  1.055829  0  0  0.131943  0  1.052472  0  0  0.111307  0.125426  0  1.058183  0
H  H6  1  0.38524378  0.77806127  0.98382901  1  0  0.120193  0  0.988761  0  0  0.128324  0  1.054133  0  0  0.132147  0  1.050768  0  0  0.111228  0.125652  0  1.056538  0
H  H7  1  0.14708578  0.72204423  0.51601127  1  0  0.120062  0  0.990246  0  0  0.128152  0  1.055792  0  0  0.131968  0  1.05246  0  0  0.11132  0.12547  0  1.058149  0
H  H8  1  0.80943894  0.01171516  0.74004858  1  0  0.106972  0  0.977133  0  0  0.112001  0  1.049117  0  0  0.11605  0  1.044797  0  0  0.113415  0.109039  0  1.05238  0
H  H9  1  0.56117521  0.48831639  0.75999234  1  0  0.107443  0  0.976789  0  0  0.112439  0  1.048851  0  0  0.116429  0  1.044631  0  0  0.113692  0.109523  0  1.052047  0
H  H10  1  0.19056022  0.98828694  0.25994874  1  0  0.107007  0  0.977124  0  0  0.112019  0  1.049126  0  0  0.116066  0  1.044806  0  0  0.113433  0.109061  0  1.052387  0
H  H11  1  0.43882391  0.51168356  0.24000839  1  0  0.107488  0  0.976824  0  0  0.112472  0  1.048879  0  0  0.11646  0  1.044662  0  0  0.113714  0.109555  0  1.052077  0
H  H12  1  0.83337402  0.24542927  0.95934270  1  0  0.146378  0  0.935669  0  0  0.157271  0  0.99323  0  0  0.160556  0  0.990513  0  0  0.138034  0.154903  0  0.995272  0
H  H13  1  0.03813086  0.25421588  0.54114135  1  0  0.147051  0  0.934685  0  0  0.157443  0  0.99286  0  0  0.160868  0  0.989948  0  0  0.138213  0.154964  0  0.995054  0
H  H14  1  0.16662517  0.75457069  0.04065692  1  0  0.14634  0  0.935698  0  0  0.157233  0  0.993259  0  0  0.160519  0  0.990546  0  0  0.138038  0.154866  0  0.9953  0
H  H15  1  0.96186883  0.74578091  0.45885966  1  0  0.147066  0  0.934773  0  0  0.157458  0  0.992946  0  0  0.160883  0  0.990032  0  0  0.138238  0.154979  0  0.995139  0
H  H16  1  0.14541611  0.14705302  0.87729329  1  0  0.130589  0  0.9363  0  0  0.141865  0  0.992119  0  0  0.145089  0  0.989887  0  0  0.131954  0.1388  0  0.995149  0
H  H17  1  0.16967890  0.35271828  0.62316727  1  0  0.129261  0  0.93702  0  0  0.139872  0  0.993796  0  0  0.14317  0  0.991497  0  0  0.130617  0.136749  0  0.99686  0
H  H18  1  0.85458344  0.85294588  0.12270765  1  0  0.130598  0  0.936272  0  0  0.141873  0  0.99209  0  0  0.145096  0  0.98986  0  0  0.131964  0.138807  0  0.995121  0
H  H19  1  0.83032219  0.64727851  0.37683441  1  0  0.129261  0  0.937047  0  0  0.139866  0  0.993824  0  0  0.143171  0  0.991517  0  0  0.130601  0.136745  0  0.996889  0
H  H20  1  0.33401096  0.15201385  0.89831787  1  0  0.106725  0  0.953954  0  0  0.113329  0  1.02223  0  0  0.117458  0  1.018413  0  0  0.106194  0.109504  0  1.026682  0
H  H21  1  0.38437782  0.34784909  0.60176362  1  0  0.106745  0  0.953648  0  0  0.114353  0  1.020964  0  0  0.118333  0  1.017251  0  0  0.106448  0.110602  0  1.025312  0
H  H22  1  0.66598802  0.84798820  0.10168280  1  0  0.106738  0  0.953964  0  0  0.113373  0  1.02222  0  0  0.117501  0  1.018404  0  0  0.106188  0.109549  0  1.026673  0
H  H23  1  0.61562241  0.65215193  0.39823536  1  0  0.106752  0  0.953642  0  0  0.114373  0  1.02094  0  0  0.11834  0  1.017247  0  0  0.106454  0.110624  0  1.025287  0
H  H24  1  0.38596450  0.15365930  0.50608392  1  0  0.427544  0  0.87319  0  0  0.396073  0  0.938619  0  0  0.406985  0  0.922456  0  0  0.289565  0.388321  0  0.950114  0
H  H25  1  0.04558637  0.34630904  0.99383219  1  0  0.426382  0  0.874175  0  0  0.395059  0  0.939433  0  0  0.405958  0  0.923297  0  0  0.289734  0.387317  0  0.950901  0
H  H26  1  0.61403469  0.84634067  0.49391570  1  0  0.427538  0  0.873199  0  0  0.396066  0  0.938629  0  0  0.406977  0  0.922466  0  0  0.289558  0.388313  0  0.950126  0
H  H27  1  0.95441519  0.65369196  0.00616858  1  0  0.42637  0  0.874193  0  0  0.395045  0  0.93945  0  0  0.405943  0  0.923318  0  0  0.289736  0.387303  0  0.950918  0
H  H28  1  0.32826286  0.08647372  0.45368622  1  0  0.42289  0  0.881842  0  0  0.387468  0  0.952878  0  0  0.399578  0  0.935223  0  0  0.283633  0.378891  0  0.965385  0
H  H29  1  0.86832594  0.41348811  0.04624533  1  0  0.421726  0  0.88301  0  0  0.38613  0  0.954303  0  0  0.398221  0  0.936666  0  0  0.283143  0.377582  0  0.966774  0
H  H30  1  0.67173849  0.91352625  0.54631331  1  0  0.422903  0  0.881828  0  0  0.387477  0  0.95287  0  0  0.399586  0  0.935215  0  0  0.28364  0.3789  0  0.965378  0
H  H31  1  0.13167534  0.58651184  0.95375532  1  0  0.421737  0  0.88299  0  0  0.386141  0  0.954282  0  0  0.398231  0  0.936645  0  0  0.283146  0.377592  0  0.966753  0
H  H32  1  0.50289679  0.68098946  0.84755160  1  0  0.440663  0  0.844495  0  0  0.41017  0  0.906305  0  0  0.421428  0  0.889672  0  0  0.298852  0.402059  0  0.918313  0
H  H33  1  0.03141463  0.81901322  0.65237149  1  0  0.440935  0  0.844432  0  0  0.409903  0  0.907016  0  0  0.421172  0  0.890368  0  0  0.298268  0.401781  0  0.919031  0
H  H34  1  0.49710471  0.31900840  0.15244799  1  0  0.440597  0  0.84459  0  0  0.410187  0  0.906305  0  0  0.421415  0  0.889702  0  0  0.29885  0.402068  0  0.918326  0
H  H35  1  0.96858449  0.18098672  0.34762925  1  0  0.44093  0  0.84444  0  0  0.409898  0  0.907022  0  0  0.421166  0  0.890378  0  0  0.298259  0.401779  0  0.919034  0
H  H36  1  0.37797158  0.63989527  0.83795968  1  0  0.435952  0  0.860863  0  0  0.40235  0  0.928086  0  0  0.41399  0  0.91114  0  0  0.291047  0.394061  0  0.94015  0
H  H37  1  0.85578127  0.86011292  0.66205125  1  0  0.433819  0  0.863985  0  0  0.400166  0  0.931267  0  0  0.411783  0  0.914375  0  0  0.289932  0.391872  0  0.943319  0
H  H38  1  0.62202755  0.36010468  0.16204105  1  0  0.435936  0  0.860887  0  0  0.402341  0  0.9281  0  0  0.41398  0  0.911156  0  0  0.291049  0.394051  0  0.940165  0
H  H39  1  0.14421785  0.13988702  0.33794949  1  0  0.433815  0  0.863983  0  0  0.400155  0  0.931282  0  0  0.411772  0  0.914389  0  0  0.289925  0.391867  0  0.943332  0
C  C40  1  0.60185552  0.18208344  0.95809611  1  0  -0.119476  0  3.661414  0  0  -0.155215  0  3.914029  0  0  -0.154435  0  3.931979  0  0  -0.074673  -0.155984  0  3.902275  0
C  C41  1  0.74208608  0.31777744  0.54207901  1  0  -0.121058  0  3.66254  0  0  -0.157239  0  3.914693  0  0  -0.156562  0  3.932664  0  0  -0.075589  -0.15792  0  3.902925  0
C  C42  1  0.39814333  0.81791546  0.04190448  1  0  -0.119558  0  3.661475  0  0  -0.155296  0  3.914095  0  0  -0.154505  0  3.932025  0  0  -0.074714  -0.156079  0  3.902355  0
C  C43  1  0.25791338  0.68222357  0.45792075  1  0  -0.12109  0  3.662533  0  0  -0.1573  0  3.914697  0  0  -0.156606  0  3.932682  0  0  -0.075613  -0.15798  0  3.902932  0
C  C44  1  0.72540411  0.11429282  0.87763637  1  0  0.152428  0  3.775979  0  0  0.135686  0  4.030449  0  0  0.136695  0  4.052979  0  0  0.096262  0.134653  0  4.015565  0
C  C45  1  0.71735982  0.38557253  0.62253311  1  0  0.154246  0  3.773767  0  0  0.13753  0  4.028442  0  0  0.138567  0  4.050967  0  0  0.096882  0.136482  0  4.013555  0
C  C46  1  0.27459696  0.88570610  0.12236302  1  0  0.152397  0  3.776022  0  0  0.135716  0  4.030455  0  0  0.136725  0  4.052977  0  0  0.09626  0.134684  0  4.015574  0
C  C47  1  0.28263957  0.61442847  0.37746776  1  0  0.154274  0  3.773721  0  0  0.137568  0  4.028363  0  0  0.138605  0  4.050882  0  0  0.096872  0.13652  0  4.013479  0
C  C48  1  0.71087349  0.06127597  0.80347962  1  0  -0.107477  0  3.700168  0  0  -0.149013  0  3.962538  0  0  -0.147604  0  3.980818  0  0  -0.070605  -0.14871  0  3.949278  0
C  C49  1  0.57560920  0.43867922  0.69661247  1  0  -0.109825  0  3.699374  0  0  -0.151348  0  3.961928  0  0  -0.149913  0  3.980177  0  0  -0.071996  -0.151084  0  3.948709  0
C  C50  1  0.28912491  0.93872611  0.19651848  1  0  -0.107516  0  3.70023  0  0  -0.149042  0  3.962571  0  0  -0.147622  0  3.980842  0  0  -0.070634  -0.148738  0  3.949309  0
C  C51  1  0.42439075  0.56132076  0.30338637  1  0  -0.109784  0  3.699301  0  0  -0.151274  0  3.961785  0  0  -0.149849  0  3.980062  0  0  -0.071937  -0.151  0  3.948542  0
C  C52  1  0.91170241  0.16913269  0.90825580  1  0  -0.025134  0  3.60698  0  0  -0.088717  0  3.875005  0  0  -0.086045  0  3.890798  0  0  0.032257  -0.090531  0  3.864638  0
C  C53  1  0.98905547  0.33062932  0.59210859  1  0  -0.024726  0  3.608366  0  0  -0.087736  0  3.876018  0  0  -0.085171  0  3.89179  0  0  0.032914  -0.089474  0  3.865698  0
C  C54  1  0.08829748  0.83086727  0.09174416  1  0  -0.025074  0  3.607013  0  0  -0.088618  0  3.875044  0  0  -0.085949  0  3.89084  0  0  0.032276  -0.090432  0  3.864669  0
C  C55  1  0.01094395  0.66936955  0.40789458  1  0  -0.024684  0  3.608201  0  0  -0.087699  0  3.87585  0  0  -0.085131  0  3.891622  0  0  0.032895  -0.089436  0  3.865532  0
C  C56  1  0.55383631  0.01243642  0.73410601  1  0  0.669694  0  3.892498  0  0  0.611102  0  4.195075  0  0  0.646267  0  4.18816  0  0  0.212798  0.587576  0  4.198523  0
C  C57  1  0.30043439  0.48759773  0.76598056  1  0  0.671287  0  3.892751  0  0  0.612139  0  4.196213  0  0  0.64734  0  4.189221  0  0  0.213421  0.588616  0  4.199686  0
C  C58  1  0.44616162  0.98756458  0.26589529  1  0  0.669603  0  3.892542  0  0  0.611051  0  4.195073  0  0  0.646217  0  4.188158  0  0  0.21278  0.587526  0  4.198518  0
C  C59  1  0.69956653  0.51240329  0.23401876  1  0  0.671297  0  3.89274  0  0  0.612123  0  4.196217  0  0  0.647323  0  4.189227  0  0  0.213414  0.588601  0  4.19969  0
C  C60  1  0.45943570  0.19733331  0.96433172  1  0  -0.053476  0  3.750094  0  0  -0.026786  0  3.986215  0  0  -0.036472  0  4.010166  0  0  -0.015627  -0.020458  0  3.970314  0
C  C61  1  0.62117574  0.30254417  0.53581719  1  0  -0.05146  0  3.748248  0  0  -0.023368  0  3.982338  0  0  -0.032849  0  4.006035  0  0  -0.013874  -0.017168  0  3.966567  0
C  C62  1  0.54056559  0.80266664  0.03566893  1  0  -0.053513  0  3.75009  0  0  -0.026804  0  3.986229  0  0  -0.036492  0  4.010178  0  0  -0.01561  -0.020462  0  3.970311  0
C  C63  1  0.37882449  0.69745685  0.46418179  1  0  -0.051456  0  3.748187  0  0  -0.023408  0  3.982333  0  0  -0.032888  0  4.006027  0  0  -0.013864  -0.017207  0  3.966564  0
C  C64  1  0.32489211  0.27286192  0.04880965  1  0  0.654797  0  3.89376  0  0  0.600094  0  4.188399  0  0  0.634664  0  4.183663  0  0  0.201229  0.57683  0  4.190519  0
C  C65  1  0.64669579  0.22716442  0.45121162  1  0  0.651535  0  3.895671  0  0  0.596426  0  4.1903  0  0  0.630922  0  4.185668  0  0  0.199533  0.573184  0  4.192411  0
C  C66  1  0.67511280  0.72713804  0.95119047  1  0  0.654768  0  3.893786  0  0  0.600051  0  4.188442  0  0  0.634622  0  4.183711  0  0  0.201207  0.576785  0  4.190561  0
C  C67  1  0.35330367  0.77283659  0.54878814  1  0  0.651482  0  3.895729  0  0  0.596398  0  4.190336  0  0  0.63089  0  4.185708  0  0  0.199505  0.573155  0  4.192446  0
C  C68  1  0.06551282  0.11966806  0.86814863  1  0  -0.00108  0  3.708742  0  0  -0.041851  0  3.99168  0  0  -0.04196  0  4.01133  0  0  0.019164  -0.041682  0  3.978838  0
C  C69  1  0.05328178  0.38015253  0.63220051  1  0  0.00055  0  3.711236  0  0  -0.039749  0  3.99385  0  0  -0.039941  0  4.013533  0  0  0.020084  -0.039491  0  3.980983  0
C  C70  1  0.93448776  0.88033189  0.13185167  1  0  -0.001131  0  3.708738  0  0  -0.041907  0  3.991677  0  0  -0.042016  0  4.011328  0  0  0.019142  -0.041738  0  3.978836  0
C  C71  1  0.94671687  0.61984321  0.36780113  1  0  0.000513  0  3.711114  0  0  -0.039791  0  3.993752  0  0  -0.039987  0  4.013431  0  0  0.020071  -0.039537  0  3.98089  0
C  C72  1  0.56980760  0.07322468  0.81166955  1  0  -0.066107  0  3.757688  0  0  -0.035791  0  3.989723  0  0  -0.045757  0  4.014275  0  0  -0.01551  -0.029429  0  3.972931  0
C  C73  1  0.45470603  0.42670487  0.68841791  1  0  -0.064933  0  3.757342  0  0  -0.034537  0  3.989748  0  0  -0.04451  0  4.014289  0  0  -0.014842  -0.028182  0  3.972975  0
C  C74  1  0.43019144  0.92677738  0.18833001  1  0  -0.06606  0  3.757577  0  0  -0.03575  0  3.989639  0  0  -0.045723  0  4.014193  0  0  -0.015463  -0.029387  0  3.972847  0
C  C75  1  0.54529377  0.57329720  0.31158087  1  0  -0.065001  0  3.75741  0  0  -0.034589  0  3.989787  0  0  -0.044563  0  4.014325  0  0  -0.01488  -0.028239  0  3.973021  0
C  C76  1  0.44431566  0.14178862  0.89211885  1  0  -0.050398  0  3.677367  0  0  -0.091834  0  3.93005  0  0  -0.08873  0  3.948822  0  0  -0.070523  -0.093973  0  3.918566  0
C  C77  1  0.47822204  0.35808259  0.60800382  1  0  -0.050851  0  3.676689  0  0  -0.09358  0  3.92927  0  0  -0.090316  0  3.947961  0  0  -0.071312  -0.09576  0  3.91782  0
C  C78  1  0.55568457  0.85821240  0.10788013  1  0  -0.050377  0  3.677393  0  0  -0.091891  0  3.930174  0  0  -0.088781  0  3.948941  0  0  -0.070527  -0.094029  0  3.91868  0
C  C79  1  0.52177852  0.64191949  0.39199418  1  0  -0.050835  0  3.676688  0  0  -0.093561  0  3.929252  0  0  -0.090294  0  3.94796  0  0  -0.071319  -0.095743  0  3.917798  0
N  N80  1  0.87096707  0.10026761  0.86757476  1  0  0.035069  0  3.599903  0  0  0.146177  0  3.783232  0  0  0.139567  0  3.80449  0  0  -0.106876  0.150303  0  3.769521  0
N  N81  1  0.83878105  0.39963970  0.63263549  1  0  0.034998  0  3.599547  0  0  0.14578  0  3.783361  0  0  0.139126  0  3.804666  0  0  -0.107051  0.14992  0  3.769638  0
N  N82  1  0.12903330  0.89973131  0.13242428  1  0  0.035121  0  3.599854  0  0  0.146139  0  3.783251  0  0  0.139523  0  3.804517  0  0  -0.106912  0.150266  0  3.769538  0
N  N83  1  0.16121968  0.60035815  0.36736488  1  0  0.034938  0  3.599486  0  0  0.145734  0  3.783268  0  0  0.13908  0  3.804574  0  0  -0.107041  0.149874  0  3.769547  0
N  N84  1  0.99157850  0.01201821  0.80604655  1  0  -0.081924  0  2.854728  0  0  -0.095269  0  3.11828  0  0  -0.092795  0  3.131064  0  0  -0.083959  -0.096476  0  3.109573  0
N  N85  1  0.80959257  0.48803661  0.69404519  1  0  -0.082367  0  2.851892  0  0  -0.095704  0  3.115521  0  0  -0.093204  0  3.128264  0  0  -0.084644  -0.096909  0  3.106849  0
N  N86  1  0.00842285  0.98798175  0.19395298  1  0  -0.081981  0  2.854598  0  0  -0.095294  0  3.118158  0  0  -0.092815  0  3.130941  0  0  -0.083969  -0.096502  0  3.109452  0
N  N87  1  0.19040886  0.51196124  0.30595552  1  0  -0.082355  0  2.851874  0  0  -0.095695  0  3.115492  0  0  -0.093195  0  3.128238  0  0  -0.084671  -0.096902  0  3.106821  0
N  N88  1  0.10873648  0.02457125  0.80701824  1  0  -0.23991  0  3.258013  0  0  -0.177671  0  3.559171  0  0  -0.191745  0  3.576708  0  0  -0.21817  -0.167197  0  3.545964  0
N  N89  1  0.94026344  0.47542238  0.69314980  1  0  -0.240289  0  3.257374  0  0  -0.177833  0  3.558067  0  0  -0.191901  0  3.575618  0  0  -0.217666  -0.167392  0  3.544869  0
N  N90  1  0.89126487  0.97542872  0.19298128  1  0  -0.239862  0  3.257895  0  0  -0.177619  0  3.55903  0  0  -0.191693  0  3.576568  0  0  -0.218143  -0.167146  0  3.545824  0
N  N91  1  0.05973766  0.52457441  0.30685188  1  0  -0.240285  0  3.257319  0  0  -0.17782  0  3.557998  0  0  -0.19189  0  3.575554  0  0  -0.217642  -0.167379  0  3.544802  0
O  O92  1  0.31316895  0.11071292  0.52576458  1  0  -0.852654  0  1.854793  0  0  -0.788736  0  2.048574  0  0  -0.811439  0  2.013474  0  0  -0.589443  -0.772543  0  2.07285  0
O  O93  1  0.94951665  0.38915910  0.97418112  1  0  -0.84992  0  1.855651  0  0  -0.786105  0  2.049585  0  0  -0.808775  0  2.01459  0  0  -0.589095  -0.769932  0  2.073764  0
O  O94  1  0.68683023  0.88928704  0.47423504  1  0  -0.852662  0  1.854791  0  0  -0.788743  0  2.048577  0  0  -0.811443  0  2.013477  0  0  -0.589446  -0.772548  0  2.072855  0
O  O95  1  0.05048429  0.61083979  0.02582050  1  0  -0.849919  0  1.85566  0  0  -0.786101  0  2.049612  0  0  -0.808774  0  2.014616  0  0  -0.589104  -0.769928  0  2.073789  0
O  O96  1  0.40091495  0.71631462  0.83969385  1  0  -0.848937  0  1.863287  0  0  -0.784823  0  2.056809  0  0  -0.807392  0  2.020005  0  0  -0.580998  -0.768691  0  2.082517  0
O  O97  1  0.95687433  0.78369353  0.66025662  1  0  -0.847438  0  1.86544  0  0  -0.782565  0  2.059099  0  0  -0.805158  0  2.022387  0  0  -0.579568  -0.766389  0  2.084743  0
O  O98  1  0.59908640  0.28368534  0.16030568  1  0  -0.84885  0  1.863394  0  0  -0.784848  0  2.056754  0  0  -0.807373  0  2.020039  0  0  -0.580997  -0.768709  0  2.082471  0
O  O99  1  0.04312437  0.21630747  0.33974391  1  0  -0.847429  0  1.865441  0  0  -0.782552  0  2.059097  0  0  -0.805142  0  2.022395  0  0  -0.579547  -0.766384  0  2.084722  0
O  O100  1  0.19619699  0.28080251  0.05506501  1  0  -0.677605  0  2.027916  0  0  -0.602965  0  2.270193  0  0  -0.634229  0  2.260191  0  0  -0.330581  -0.581049  0  2.276409  0
O  O101  1  0.53215596  0.21945203  0.44479274  1  0  -0.676322  0  2.0285  0  0  -0.601766  0  2.271123  0  0  -0.633047  0  2.261176  0  0  -0.328703  -0.579804  0  2.277271  0
O  O102  1  0.80380122  0.71919953  0.94493643  1  0  -0.677522  0  2.028  0  0  -0.602914  0  2.270348  0  0  -0.63415  0  2.260281  0  0  -0.330564  -0.580999  0  2.276564  0
O  O103  1  0.46784575  0.78054686  0.55520810  1  0  -0.676294  0  2.028502  0  0  -0.60173  0  2.271092  0  0  -0.633009  0  2.261149  0  0  -0.328682  -0.579765  0  2.277243  0
O  O104  1  0.67039446  0.95297153  0.66095368  1  0  -0.642933  0  2.007685  0  0  -0.572714  0  2.225874  0  0  -0.59996  0  2.215659  0  0  -0.306267  -0.554048  0  2.232515  0
O  O105  1  0.28443584  0.54702680  0.83912986  1  0  -0.643792  0  2.009823  0  0  -0.573309  0  2.228286  0  0  -0.600576  0  2.217961  0  0  -0.306472  -0.554646  0  2.234987  0
O  O106  1  0.32960492  0.04703160  0.33904489  1  0  -0.642883  0  2.007745  0  0  -0.57267  0  2.225913  0  0  -0.599916  0  2.215695  0  0  -0.306253  -0.554011  0  2.23256  0
O  O107  1  0.71556216  0.45297421  0.16087034  1  0  -0.643778  0  2.00979  0  0  -0.573287  0  2.228255  0  0  -0.600554  0  2.217933  0  0  -0.306472  -0.554625  0  2.234955  0
O  O108  1  0.42118360  0.02623407  0.74845448  1  0  -0.648088  0  2.018423  0  0  -0.578626  0  2.279051  0  0  -0.608978  0  2.26851  0  0  -0.328333  -0.557198  0  2.285432  0
O  O109  1  0.19586843  0.47388229  0.75164759  1  0  -0.649272  0  2.017895  0  0  -0.579593  0  2.278893  0  0  -0.609938  0  2.268222  0  0  -0.328756  -0.558193  0  2.285339  0
O  O110  1  0.57881775  0.97376590  0.25154505  1  0  -0.648069  0  2.01837  0  0  -0.578624  0  2.278994  0  0  -0.608977  0  2.268453  0  0  -0.328345  -0.557194  0  2.285373  0
O  O111  1  0.80413110  0.52611873  0.24835105  1  0  -0.649295  0  2.017912  0  0  -0.579602  0  2.278912  0  0  -0.609947  0  2.268239  0  0  -0.328758  -0.558204  0  2.285359  0
O  O112  1  0.33920829  0.32588417  0.11230372  1  0  -0.6385  0  1.935367  0  0  -0.577003  0  2.163264  0  0  -0.604712  0  2.153085  0  0  -0.31729  -0.557656  0  2.169751  0
O  O113  1  0.77754599  0.17405063  0.38776113  1  0  -0.637392  0  1.934311  0  0  -0.57581  0  2.162394  0  0  -0.603567  0  2.152386  0  0  -0.317763  -0.556443  0  2.168785  0
O  O114  1  0.66079427  0.67411262  0.88769754  1  0  -0.638536  0  1.935255  0  0  -0.577015  0  2.163147  0  0  -0.60473  0  2.15298  0  0  -0.317292  -0.557671  0  2.169634  0
O  O115  1  0.22245460  0.82594933  0.61223918  1  0  -0.637388  0  1.934344  0  0  -0.575815  0  2.162407  0  0  -0.60357  0  2.152394  0  0  -0.317766  -0.556448  0  2.168798  0
