# generated using pymatgen
data_ZnH9C13NO5
_symmetry_space_group_name_H-M   'P 1'
_cell_length_a   7.11972571
_cell_length_b   9.65265895
_cell_length_c   18.87543085
_cell_angle_alpha   89.99928071
_cell_angle_beta   91.64116935
_cell_angle_gamma   89.99980057
_symmetry_Int_Tables_number   1
_chemical_formula_structural   ZnH9C13NO5
_chemical_formula_sum   'Zn4 H36 C52 N4 O20'
_cell_volume   1296.66835335
_cell_formula_units_Z   4
loop_
 _symmetry_equiv_pos_site_id
 _symmetry_equiv_pos_as_xyz
  1  'x, y, z'
loop_
 _atom_site_type_symbol
 _atom_site_label
 _atom_site_symmetry_multiplicity
 _atom_site_fract_x
 _atom_site_fract_y
 _atom_site_fract_z
 _atom_site_occupancy
 _atom_site_hle17_bader_spin_density
 _atom_site_hle17_ddec_charge
 _atom_site_hle17_ddec_spin_density
 _atom_site_hle17_ddec_sum_bond_order
 _atom_site_hle17_magmom
 _atom_site_hse06_10hf_bader_spin_density
 _atom_site_hse06_10hf_ddec_charge
 _atom_site_hse06_10hf_ddec_spin_density
 _atom_site_hse06_10hf_ddec_sum_bond_order
 _atom_site_hse06_10hf_magmom
 _atom_site_hse06_bader_spin_density
 _atom_site_hse06_ddec_charge
 _atom_site_hse06_ddec_spin_density
 _atom_site_hse06_ddec_sum_bond_order
 _atom_site_hse06_magmom
 _atom_site_pbe_bader_spin_density
 _atom_site_pbe_cm5_charge
 _atom_site_pbe_ddec_charge
 _atom_site_pbe_ddec_spin_density
 _atom_site_pbe_ddec_sum_bond_order
 _atom_site_pbe_magmom
Zn  Zn0  1  0.23065454  0.93158480  0.22525696  1  0  1.073675  0  1.778146  0  0  0.891206  0  2.251626  0  0  0.938641  0  2.193813  0  0  0.699677  0.856909  0  2.291925  0
Zn  Zn1  1  0.76935575  0.43158347  0.27474409  1  0  1.073634  0  1.778239  0  0  0.891157  0  2.251742  0  0  0.93859  0  2.193929  0  0  0.699673  0.856869  0  2.292036  0
Zn  Zn2  1  0.76933588  0.06842347  0.77474702  1  0  1.073525  0  1.778316  0  0  0.891081  0  2.251794  0  0  0.938514  0  2.193985  0  0  0.699628  0.856782  0  2.292094  0
Zn  Zn3  1  0.23065782  0.56842066  0.72525247  1  0  1.073522  0  1.778357  0  0  0.891084  0  2.251845  0  0  0.938518  0  2.194033  0  0  0.699606  0.856788  0  2.292124  0
H  H4  1  0.42369167  0.25978581  0.00922667  1  0  0.103651  0  0.94538  0  0  0.116279  0  1.002657  0  0  0.119582  0  1.000096  0  0  0.108101  0.113842  0  1.004602  0
H  H5  1  0.57630740  0.75978490  0.49076937  1  0  0.103633  0  0.945564  0  0  0.116267  0  1.002822  0  0  0.119568  0  1.000264  0  0  0.108134  0.113834  0  1.00477  0
H  H6  1  0.57628665  0.74022349  0.99077067  1  0  0.10361  0  0.945388  0  0  0.116268  0  1.002647  0  0  0.119572  0  1.000084  0  0  0.108099  0.113835  0  1.004593  0
H  H7  1  0.42370350  0.24021818  0.50922553  1  0  0.103554  0  0.945581  0  0  0.11621  0  1.00283  0  0  0.119511  0  1.00027  0  0  0.108095  0.113782  0  1.004782  0
H  H8  1  0.45658143  0.68678538  0.07910988  1  0  0.107071  0  0.956271  0  0  0.11783  0  1.015601  0  0  0.121622  0  1.012148  0  0  0.106734  0.114841  0  1.018579  0
H  H9  1  0.54341350  0.18678722  0.42089024  1  0  0.106954  0  0.956151  0  0  0.117722  0  1.015507  0  0  0.121517  0  1.012051  0  0  0.106661  0.114739  0  1.018486  0
H  H10  1  0.54339916  0.31322081  0.92089388  1  0  0.106828  0  0.956374  0  0  0.117669  0  1.015634  0  0  0.121467  0  1.012176  0  0  0.106624  0.114682  0  1.018614  0
H  H11  1  0.45659731  0.81321691  0.57910572  1  0  0.106876  0  0.956374  0  0  0.117681  0  1.015663  0  0  0.121474  0  1.012215  0  0  0.10665  0.114706  0  1.018631  0
H  H12  1  0.28440346  0.36918638  0.22130954  1  0  0.10984  0  0.943162  0  0  0.119788  0  1.005963  0  0  0.123266  0  1.003399  0  0  0.109033  0.117134  0  1.007973  0
H  H13  1  0.71560880  0.86919140  0.27868930  1  0  0.109819  0  0.943135  0  0  0.119765  0  1.005934  0  0  0.12324  0  1.003374  0  0  0.109069  0.117137  0  1.007915  0
H  H14  1  0.71559014  0.63081464  0.77869027  1  0  0.109807  0  0.943059  0  0  0.119788  0  1.005802  0  0  0.123265  0  1.00324  0  0  0.109041  0.1171  0  1.007853  0
H  H15  1  0.28440201  0.13081272  0.72130667  1  0  0.109819  0  0.943048  0  0  0.119761  0  1.00584  0  0  0.123238  0  1.003278  0  0  0.109041  0.117071  0  1.007883  0
H  H16  1  0.04008375  0.21174451  0.43577452  1  0  0.120373  0  0.936997  0  0  0.133044  0  0.990338  0  0  0.136446  0  0.9889  0  0  0.117544  0.13045  0  0.991856  0
H  H17  1  0.95991245  0.71174283  0.06422547  1  0  0.120341  0  0.937055  0  0  0.133012  0  0.990399  0  0  0.136411  0  0.988969  0  0  0.11755  0.130416  0  0.991912  0
H  H18  1  0.95991469  0.78824821  0.56423441  1  0  0.1203  0  0.937228  0  0  0.133033  0  0.990482  0  0  0.136432  0  0.989051  0  0  0.11757  0.130442  0  0.99199  0
H  H19  1  0.04008884  0.28824782  0.93576657  1  0  0.120364  0  0.93714  0  0  0.133084  0  0.99041  0  0  0.136483  0  0.988983  0  0  0.117579  0.130491  0  0.991916  0
H  H20  1  0.15667112  0.17168434  0.31650958  1  0  0.095438  0  0.930269  0  0  0.10401  0  0.992682  0  0  0.106677  0  0.990233  0  0  0.123668  0.101896  0  0.994755  0
H  H21  1  0.84333210  0.67168311  0.18349348  1  0  0.09541  0  0.930146  0  0  0.103965  0  0.992562  0  0  0.106633  0  0.990111  0  0  0.123655  0.101854  0  0.994633  0
H  H22  1  0.84332443  0.82831460  0.68350035  1  0  0.095487  0  0.930084  0  0  0.103984  0  0.992565  0  0  0.106652  0  0.990115  0  0  0.123666  0.101875  0  0.994635  0
H  H23  1  0.15667341  0.32831272  0.81649865  1  0  0.095384  0  0.930062  0  0  0.103904  0  0.992526  0  0  0.106572  0  0.990077  0  0  0.123624  0.101793  0  0.994594  0
H  H24  1  0.06433302  0.76655390  0.46871817  1  0  0.120032  0  0.940897  0  0  0.131277  0  0.995408  0  0  0.134851  0  0.993633  0  0  0.116128  0.128511  0  0.997248  0
H  H25  1  0.93567689  0.26655091  0.03128232  1  0  0.120086  0  0.940775  0  0  0.131351  0  0.99527  0  0  0.134922  0  0.993497  0  0  0.116116  0.128583  0  0.997103  0
H  H26  1  0.93567154  0.23343883  0.53128508  1  0  0.119991  0  0.940954  0  0  0.131251  0  0.99544  0  0  0.134822  0  0.993662  0  0  0.116137  0.128494  0  0.99728  0
H  H27  1  0.06430855  0.73344182  0.96871412  1  0  0.119959  0  0.940828  0  0  0.131226  0  0.995317  0  0  0.134799  0  0.993539  0  0  0.116082  0.128476  0  0.99715  0
H  H28  1  0.18230184  0.74702281  0.34689703  1  0  0.094874  0  0.978513  0  0  0.10252  0  1.038855  0  0  0.10602  0  1.035761  0  0  0.119466  0.099727  0  1.041531  0
H  H29  1  0.81770269  0.24702125  0.15310187  1  0  0.09499  0  0.978464  0  0  0.10257  0  1.038866  0  0  0.10607  0  1.035774  0  0  0.119484  0.099778  0  1.041541  0
H  H30  1  0.81769724  0.25297717  0.65310449  1  0  0.094859  0  0.978496  0  0  0.102512  0  1.038856  0  0  0.106013  0  1.035763  0  0  0.119464  0.099723  0  1.041526  0
H  H31  1  0.18229815  0.75297562  0.84689546  1  0  0.094983  0  0.978368  0  0  0.102564  0  1.038807  0  0  0.106064  0  1.035715  0  0  0.11949  0.099776  0  1.041479  0
H  H32  1  0.02969353  0.98972050  0.12763799  1  0  0.421306  0  0.875037  0  0  0.393235  0  0.935402  0  0  0.40473  0  0.918818  0  0  0.291353  0.385004  0  0.947266  0
H  H33  1  0.97029779  0.48972039  0.37236702  1  0  0.421329  0  0.874949  0  0  0.393265  0  0.935328  0  0  0.404762  0  0.918741  0  0  0.29137  0.385035  0  0.947194  0
H  H34  1  0.97030002  0.01027637  0.87236235  1  0  0.421399  0  0.874915  0  0  0.393306  0  0.935302  0  0  0.404801  0  0.918717  0  0  0.291379  0.385075  0  0.94717  0
H  H35  1  0.02969427  0.51027337  0.62763434  1  0  0.421372  0  0.874842  0  0  0.393275  0  0.935312  0  0  0.40477  0  0.918728  0  0  0.291371  0.385048  0  0.947172  0
H  H36  1  0.89036715  0.99726368  0.19365610  1  0  0.432342  0  0.865843  0  0  0.40082  0  0.929833  0  0  0.412303  0  0.913178  0  0  0.291612  0.392602  0  0.941761  0
H  H37  1  0.10964347  0.49725285  0.30635302  1  0  0.432472  0  0.865688  0  0  0.400924  0  0.929709  0  0  0.412404  0  0.913058  0  0  0.291685  0.392716  0  0.941617  0
H  H38  1  0.10963061  0.00273837  0.80634434  1  0  0.432405  0  0.865763  0  0  0.400884  0  0.929753  0  0  0.412366  0  0.913099  0  0  0.29163  0.392671  0  0.941669  0
H  H39  1  0.89036643  0.50273988  0.69365353  1  0  0.432472  0  0.865669  0  0  0.400876  0  0.929762  0  0  0.412357  0  0.913108  0  0  0.291669  0.392663  0  0.941679  0
C  C40  1  0.36523582  0.53933711  0.15420043  1  0  -0.07467  0  3.788013  0  0  -0.049273  0  4.027297  0  0  -0.058471  0  4.051156  0  0  -0.022385  -0.043598  0  4.011628  0
C  C41  1  0.63477137  0.03934161  0.34579825  1  0  -0.074666  0  3.787863  0  0  -0.049376  0  4.027218  0  0  -0.058579  0  4.05108  0  0  -0.022293  -0.043688  0  4.011533  0
C  C42  1  0.63475474  0.46066597  0.84580196  1  0  -0.0747  0  3.788149  0  0  -0.049404  0  4.027474  0  0  -0.058608  0  4.05134  0  0  -0.022408  -0.043724  0  4.011786  0
C  C43  1  0.36524375  0.96066251  0.65419675  1  0  -0.075  0  3.788207  0  0  -0.049706  0  4.02753  0  0  -0.058908  0  4.051389  0  0  -0.022555  -0.044026  0  4.01185  0
C  C44  1  0.28805951  0.15575614  0.13101307  1  0  0.654364  0  3.902604  0  0  0.606298  0  4.190934  0  0  0.640628  0  4.183867  0  0  0.210272  0.583612  0  4.193432  0
C  C45  1  0.71195752  0.65575066  0.36899411  1  0  0.654158  0  3.902533  0  0  0.606212  0  4.190758  0  0  0.640526  0  4.183703  0  0  0.210198  0.583533  0  4.193247  0
C  C46  1  0.71193658  0.84425109  0.86899051  1  0  0.654357  0  3.902374  0  0  0.606396  0  4.190635  0  0  0.640726  0  4.183561  0  0  0.210292  0.583722  0  4.193124  0
C  C47  1  0.28804803  0.34425450  0.63099749  1  0  0.654183  0  3.902766  0  0  0.60624  0  4.190963  0  0  0.640564  0  4.183897  0  0  0.210209  0.583559  0  4.193458  0
C  C48  1  0.03785417  0.99165362  0.46424257  1  0  0.097059  0  3.738878  0  0  0.108403  0  3.970128  0  0  0.112883  0  3.991311  0  0  0.02016  0.105621  0  3.955511  0
C  C49  1  0.96214610  0.49164217  0.03575628  1  0  0.097048  0  3.739267  0  0  0.108473  0  3.970406  0  0  0.112997  0  3.991487  0  0  0.020203  0.105694  0  3.955787  0
C  C50  1  0.96215157  0.00834014  0.53576335  1  0  0.097091  0  3.738681  0  0  0.108387  0  3.969995  0  0  0.112906  0  3.99114  0  0  0.020111  0.105578  0  3.955392  0
C  C51  1  0.03785211  0.50834538  0.96423887  1  0  0.097093  0  3.738935  0  0  0.108394  0  3.970191  0  0  0.112883  0  3.991386  0  0  0.020107  0.105587  0  3.955588  0
C  C52  1  0.41514948  0.34000778  0.04959482  1  0  -0.10085  0  3.67322  0  0  -0.135814  0  3.924253  0  0  -0.13521  0  3.943285  0  0  -0.075992  -0.135962  0  3.91101  0
C  C53  1  0.58484595  0.84000163  0.45040541  1  0  -0.100899  0  3.673142  0  0  -0.135844  0  3.924222  0  0  -0.135234  0  3.943249  0  0  -0.076034  -0.135997  0  3.910989  0
C  C54  1  0.58483121  0.66000256  0.95040788  1  0  -0.100998  0  3.673118  0  0  -0.135986  0  3.924234  0  0  -0.135386  0  3.94326  0  0  -0.076072  -0.136138  0  3.910997  0
C  C55  1  0.41516219  0.16000145  0.54958891  1  0  -0.100862  0  3.673072  0  0  -0.13588  0  3.924141  0  0  -0.135276  0  3.943161  0  0  -0.07604  -0.136039  0  3.910924  0
C  C56  1  0.43287639  0.57699276  0.08805167  1  0  -0.100349  0  3.689905  0  0  -0.135213  0  3.939419  0  0  -0.134542  0  3.958846  0  0  -0.081256  -0.135476  0  3.926683  0
C  C57  1  0.56711623  0.07698750  0.41195016  1  0  -0.100273  0  3.689712  0  0  -0.135105  0  3.939258  0  0  -0.134434  0  3.958692  0  0  -0.08127  -0.135375  0  3.926531  0
C  C58  1  0.56710420  0.42301551  0.91195209  1  0  -0.100368  0  3.689945  0  0  -0.135267  0  3.939416  0  0  -0.134606  0  3.958839  0  0  -0.081315  -0.135532  0  3.926689  0
C  C59  1  0.43289326  0.92301455  0.58804472  1  0  -0.100164  0  3.690041  0  0  -0.135054  0  3.939484  0  0  -0.134391  0  3.958909  0  0  -0.081213  -0.135327  0  3.926756  0
C  C60  1  0.31226980  0.65002315  0.20548744  1  0  0.670105  0  3.892938  0  0  0.615414  0  4.19165  0  0  0.650471  0  4.183644  0  0  0.21465  0.591766  0  4.196112  0
C  C61  1  0.68773594  0.15003499  0.29452058  1  0  0.670032  0  3.892842  0  0  0.615448  0  4.191431  0  0  0.650512  0  4.183426  0  0  0.214709  0.591801  0  4.195886  0
C  C62  1  0.68772004  0.34997165  0.79452342  1  0  0.670248  0  3.893086  0  0  0.615727  0  4.191589  0  0  0.650791  0  4.183575  0  0  0.21487  0.592077  0  4.196048  0
C  C63  1  0.31227759  0.84997120  0.70547650  1  0  0.670164  0  3.893125  0  0  0.615698  0  4.191539  0  0  0.650765  0  4.183524  0  0  0.214822  0.592044  0  4.196005  0
C  C64  1  0.33261871  0.40012869  0.16942615  1  0  -0.076091  0  3.699979  0  0  -0.114992  0  3.953923  0  0  -0.112536  0  3.972553  0  0  -0.078333  -0.116128  0  3.941471  0
C  C65  1  0.66738614  0.90013048  0.33057498  1  0  -0.076062  0  3.700217  0  0  -0.114897  0  3.954234  0  0  -0.112439  0  3.972868  0  0  -0.078306  -0.116051  0  3.941763  0
C  C66  1  0.66736764  0.59987232  0.83057615  1  0  -0.076057  0  3.699859  0  0  -0.114891  0  3.953837  0  0  -0.112435  0  3.97247  0  0  -0.078288  -0.115996  0  3.941392  0
C  C67  1  0.33262757  0.09987260  0.66942000  1  0  -0.075942  0  3.700148  0  0  -0.114772  0  3.954099  0  0  -0.112313  0  3.97273  0  0  -0.078256  -0.115867  0  3.941641  0
C  C68  1  0.35282490  0.30079607  0.11620830  1  0  -0.053153  0  3.757695  0  0  -0.027834  0  3.995236  0  0  -0.036014  0  4.01823  0  0  -0.016507  -0.02233  0  3.978739  0
C  C69  1  0.64718102  0.80080282  0.38378711  1  0  -0.052918  0  3.757448  0  0  -0.027723  0  3.995073  0  0  -0.035899  0  4.01807  0  0  -0.016513  -0.02222  0  3.978575  0
C  C70  1  0.64716141  0.69920391  0.88379452  1  0  -0.052887  0  3.757251  0  0  -0.027733  0  3.994983  0  0  -0.035913  0  4.017981  0  0  -0.016418  -0.022234  0  3.978474  0
C  C71  1  0.35282847  0.19920027  0.61620776  1  0  -0.052913  0  3.757592  0  0  -0.027695  0  3.99521  0  0  -0.035872  0  4.018205  0  0  -0.016361  -0.022195  0  3.978705  0
C  C72  1  0.06772377  0.10572104  0.41956681  1  0  -0.139359  0  3.664867  0  0  -0.160692  0  3.917877  0  0  -0.168862  0  3.939359  0  0  -0.071264  -0.155513  0  3.903758  0
C  C73  1  0.93227287  0.60572421  0.08043545  1  0  -0.139217  0  3.664702  0  0  -0.160619  0  3.917692  0  0  -0.168791  0  3.939181  0  0  -0.071257  -0.15544  0  3.903567  0
C  C74  1  0.93227735  0.89427376  0.58044377  1  0  -0.139283  0  3.665142  0  0  -0.160639  0  3.918108  0  0  -0.168818  0  3.939584  0  0  -0.071193  -0.15545  0  3.903987  0
C  C75  1  0.06772847  0.39426748  0.91955606  1  0  -0.139409  0  3.664729  0  0  -0.160789  0  3.917743  0  0  -0.168964  0  3.939227  0  0  -0.07126  -0.155601  0  3.903618  0
C  C76  1  0.13370680  0.08492441  0.35209805  1  0  0.143831  0  3.688996  0  0  0.108161  0  3.946764  0  0  0.115682  0  3.965269  0  0  0.052883  0.103386  0  3.934204  0
C  C77  1  0.86629447  0.58491572  0.14790074  1  0  0.143794  0  3.689185  0  0  0.108185  0  3.946891  0  0  0.115702  0  3.965406  0  0  0.052867  0.103405  0  3.934336  0
C  C78  1  0.86629626  0.91507556  0.64790622  1  0  0.143873  0  3.689044  0  0  0.108279  0  3.946778  0  0  0.115802  0  3.965282  0  0  0.052892  0.103497  0  3.934219  0
C  C79  1  0.13370786  0.41508115  0.85209556  1  0  0.144009  0  3.689286  0  0  0.108408  0  3.946998  0  0  0.115929  0  3.965506  0  0  0.052926  0.103625  0  3.934433  0
C  C80  1  0.08328644  0.86049935  0.43804053  1  0  -0.136083  0  3.687843  0  0  -0.157815  0  3.940786  0  0  -0.165679  0  3.962143  0  0  -0.071756  -0.152915  0  3.926881  0
C  C81  1  0.91671726  0.36050601  0.06196028  1  0  -0.136203  0  3.688394  0  0  -0.157996  0  3.941314  0  0  -0.165862  0  3.96268  0  0  -0.071784  -0.153098  0  3.927401  0
C  C82  1  0.91671508  0.13949338  0.56196529  1  0  -0.136251  0  3.688189  0  0  -0.157947  0  3.941136  0  0  -0.16583  0  3.962514  0  0  -0.071916  -0.153054  0  3.927256  0
C  C83  1  0.08327688  0.63948568  0.93803318  1  0  -0.13624  0  3.688608  0  0  -0.157943  0  3.941531  0  0  -0.165819  0  3.962911  0  0  -0.071788  -0.153062  0  3.927651  0
C  C84  1  0.14848233  0.84709241  0.36995050  1  0  0.134467  0  3.692158  0  0  0.101961  0  3.944864  0  0  0.108963  0  3.963029  0  0  0.049805  0.097433  0  3.932764  0
C  C85  1  0.85152167  0.34708512  0.13004776  1  0  0.134351  0  3.692004  0  0  0.101888  0  3.944702  0  0  0.108886  0  3.962876  0  0  0.049743  0.097359  0  3.932612  0
C  C86  1  0.85151956  0.15290550  0.63005109  1  0  0.134534  0  3.692484  0  0  0.101944  0  3.945279  0  0  0.108946  0  3.963444  0  0  0.049808  0.097414  0  3.933179  0
C  C87  1  0.14847781  0.65290968  0.86994901  1  0  0.134691  0  3.692024  0  0  0.102133  0  3.944821  0  0  0.109138  0  3.962984  0  0  0.049887  0.097594  0  3.932737  0
C  C88  1  0.46339696  0.47867021  0.03486652  1  0  0.036795  0  3.777327  0  0  0.055133  0  4.012966  0  0  0.053383  0  4.03828  0  0  -0.009941  0.056248  0  3.995667  0
C  C89  1  0.53659927  0.97867004  0.46513125  1  0  0.036753  0  3.777577  0  0  0.055066  0  4.013222  0  0  0.053327  0  4.038492  0  0  -0.009933  0.056176  0  3.995931  0
C  C90  1  0.53658803  0.52134531  0.96513521  1  0  0.037119  0  3.777315  0  0  0.055524  0  4.012906  0  0  0.053823  0  4.038104  0  0  -0.009773  0.056636  0  3.995616  0
C  C91  1  0.46340597  0.02133201  0.53486405  1  0  0.037017  0  3.777627  0  0  0.055462  0  4.013177  0  0  0.053747  0  4.038421  0  0  -0.009819  0.056574  0  3.995892  0
N  N92  1  0.17033473  0.95701392  0.32706510  1  0  -0.354554  0  3.346596  0  0  -0.267097  0  3.634969  0  0  -0.288123  0  3.650337  0  0  -0.338343  -0.252938  0  3.624243  0
N  N93  1  0.82966551  0.45701702  0.17293662  1  0  -0.354506  0  3.346578  0  0  -0.267013  0  3.63481  0  0  -0.288038  0  3.65018  0  0  -0.33832  -0.252864  0  3.624103  0
N  N94  1  0.82966250  0.04298606  0.67294169  1  0  -0.354472  0  3.346584  0  0  -0.266985  0  3.634904  0  0  -0.288014  0  3.650274  0  0  -0.338255  -0.252813  0  3.624167  0
N  N95  1  0.17033560  0.54297778  0.82705754  1  0  -0.35469  0  3.34643  0  0  -0.267196  0  3.634771  0  0  -0.288223  0  3.650134  0  0  -0.338399  -0.25303  0  3.624044  0
O  O96  1  0.97691046  0.93451020  0.16763378  1  0  -0.823488  0  1.859644  0  0  -0.754423  0  2.05161  0  0  -0.777445  0  2.014972  0  0  -0.569619  -0.737892  0  2.077542  0
O  O97  1  0.02309103  0.43450412  0.33237129  1  0  -0.823647  0  1.85947  0  0  -0.754546  0  2.051555  0  0  -0.777566  0  2.014922  0  0  -0.569664  -0.738021  0  2.077474  0
O  O98  1  0.02308585  0.06548977  0.83236715  1  0  -0.823606  0  1.85945  0  0  -0.754534  0  2.051478  0  0  -0.777545  0  2.014826  0  0  -0.569652  -0.738004  0  2.077406  0
O  O99  1  0.97690782  0.56548861  0.66763289  1  0  -0.823646  0  1.859286  0  0  -0.754514  0  2.051492  0  0  -0.777524  0  2.014845  0  0  -0.569668  -0.737987  0  2.077414  0
O  O100  1  0.36105156  0.77403473  0.18775908  1  0  -0.642544  0  2.046321  0  0  -0.566521  0  2.321781  0  0  -0.595229  0  2.303654  0  0  -0.329289  -0.546597  0  2.333882  0
O  O101  1  0.63894399  0.27404004  0.31224421  1  0  -0.642469  0  2.046482  0  0  -0.566503  0  2.32192  0  0  -0.595212  0  2.303791  0  0  -0.329331  -0.546595  0  2.334042  0
O  O102  1  0.63893012  0.22596836  0.81224841  1  0  -0.642419  0  2.04646  0  0  -0.56653  0  2.321925  0  0  -0.595236  0  2.303792  0  0  -0.329321  -0.546619  0  2.334047  0
O  O103  1  0.36106967  0.72596408  0.68775129  1  0  -0.642327  0  2.046341  0  0  -0.56648  0  2.321795  0  0  -0.595188  0  2.303665  0  0  -0.329274  -0.546571  0  2.333919  0
O  O104  1  0.32927626  0.11126498  0.19416376  1  0  -0.650284  0  2.04766  0  0  -0.576486  0  2.316866  0  0  -0.606223  0  2.302275  0  0  -0.330087  -0.555532  0  2.325821  0
O  O105  1  0.67074218  0.61126841  0.30582995  1  0  -0.650447  0  2.046919  0  0  -0.576682  0  2.316065  0  0  -0.606417  0  2.30148  0  0  -0.330207  -0.555721  0  2.32501  0
O  O106  1  0.67071026  0.88874536  0.80583642  1  0  -0.65046  0  2.047354  0  0  -0.576661  0  2.316482  0  0  -0.606399  0  2.30189  0  0  -0.330192  -0.555706  0  2.325428  0
O  O107  1  0.32928304  0.38874297  0.69416211  1  0  -0.650606  0  2.04706  0  0  -0.576834  0  2.316186  0  0  -0.606577  0  2.301596  0  0  -0.330263  -0.555864  0  2.325118  0
O  O108  1  0.19213319  0.09163979  0.08439532  1  0  -0.624843  0  1.8911  0  0  -0.575294  0  2.088954  0  0  -0.598574  0  2.078359  0  0  -0.326433  -0.558126  0  2.095167  0
O  O109  1  0.80784852  0.59164224  0.41560139  1  0  -0.624517  0  1.891982  0  0  -0.575017  0  2.089806  0  0  -0.598282  0  2.079213  0  0  -0.326231  -0.557861  0  2.096024  0
O  O110  1  0.80786186  0.90835812  0.91560400  1  0  -0.624715  0  1.89148  0  0  -0.575184  0  2.089296  0  0  -0.598461  0  2.078698  0  0  -0.326343  -0.558025  0  2.095515  0
O  O111  1  0.19214095  0.40835049  0.58439727  1  0  -0.624362  0  1.892117  0  0  -0.574842  0  2.089934  0  0  -0.598108  0  2.079336  0  0  -0.326191  -0.55769  0  2.096156  0
O  O112  1  0.21780923  0.62132067  0.25886861  1  0  -0.639027  0  2.000741  0  0  -0.584019  0  2.228448  0  0  -0.609378  0  2.218106  0  0  -0.309939  -0.566067  0  2.235117  0
O  O113  1  0.78222914  0.12133774  0.24113822  1  0  -0.639027  0  2.0003  0  0  -0.584013  0  2.22793  0  0  -0.609348  0  2.217522  0  0  -0.309942  -0.566051  0  2.234599  0
O  O114  1  0.78221296  0.37866999  0.74114246  1  0  -0.639206  0  2.000684  0  0  -0.584198  0  2.228309  0  0  -0.609557  0  2.217944  0  0  -0.310055  -0.566241  0  2.234973  0
O  O115  1  0.21778307  0.87866741  0.75885778  1  0  -0.639193  0  2.000709  0  0  -0.584209  0  2.228302  0  0  -0.609564  0  2.217927  0  0  -0.310051  -0.566244  0  2.234964  0
