# generated using pymatgen
data_NiH34C20(N3O2)2
_symmetry_space_group_name_H-M   'P 1'
_cell_length_a   7.49734552
_cell_length_b   8.15198825
_cell_length_c   9.91063494
_cell_angle_alpha   105.37303667
_cell_angle_beta   98.58958043
_cell_angle_gamma   105.11608068
_symmetry_Int_Tables_number   1
_chemical_formula_structural   NiH34C20(N3O2)2
_chemical_formula_sum   'Ni1 H34 C20 N6 O4'
_cell_volume   548.08846348
_cell_formula_units_Z   1
loop_
 _symmetry_equiv_pos_site_id
 _symmetry_equiv_pos_as_xyz
  1  'x, y, z'
loop_
 _atom_site_type_symbol
 _atom_site_label
 _atom_site_symmetry_multiplicity
 _atom_site_fract_x
 _atom_site_fract_y
 _atom_site_fract_z
 _atom_site_occupancy
 _atom_site_hle17_bader_spin_density
 _atom_site_hle17_ddec_charge
 _atom_site_hle17_ddec_spin_density
 _atom_site_hle17_ddec_sum_bond_order
 _atom_site_hle17_magmom
 _atom_site_hse06_10hf_bader_spin_density
 _atom_site_hse06_10hf_ddec_charge
 _atom_site_hse06_10hf_ddec_spin_density
 _atom_site_hse06_10hf_ddec_sum_bond_order
 _atom_site_hse06_10hf_magmom
 _atom_site_hse06_bader_spin_density
 _atom_site_hse06_ddec_charge
 _atom_site_hse06_ddec_spin_density
 _atom_site_hse06_ddec_sum_bond_order
 _atom_site_hse06_magmom
 _atom_site_pbe_bader_spin_density
 _atom_site_pbe_cm5_charge
 _atom_site_pbe_ddec_charge
 _atom_site_pbe_ddec_spin_density
 _atom_site_pbe_ddec_sum_bond_order
 _atom_site_pbe_magmom
Ni  Ni0  1  0.49999833  0.49999951  0.49999969  1  0  0.4405  0  2.220423  0  0  0.382315  0  2.659102  0  0  0.45276  0  2.594709  0  0  0.598917  0.342041  0  2.701049  0
H  H1  1  0.20782100  0.49758759  0.55342050  1  0  0.284993  0  0.904105  0  0  0.273191  0  0.961048  0  0  0.280589  0  0.956312  0  0  0.29903  0.267843  0  0.964873  0
H  H2  1  0.79217427  0.50240741  0.44657581  1  0  0.285002  0  0.904114  0  0  0.273198  0  0.961069  0  0  0.280595  0  0.956334  0  0  0.299013  0.267848  0  0.964893  0
H  H3  1  0.52580883  0.21305760  0.49001133  1  0  0.270395  0  0.927923  0  0  0.259068  0  0.98475  0  0  0.267315  0  0.979199  0  0  0.289684  0.253149  0  0.989074  0
H  H4  1  0.47419503  0.78694271  0.50999010  1  0  0.270465  0  0.927881  0  0  0.259027  0  0.984853  0  0  0.267274  0  0.979302  0  0  0.289666  0.253109  0  0.989176  0
H  H5  1  0.50929029  0.43114894  0.17703887  1  0  0.057133  0  0.908428  0  0  0.072288  0  0.972059  0  0  0.071796  0  0.971273  0  0  0.116227  0.072571  0  0.972354  0
H  H6  1  0.49069652  0.56884876  0.82296220  1  0  0.057119  0  0.908392  0  0  0.072226  0  0.972096  0  0  0.071733  0  0.971311  0  0  0.116207  0.072506  0  0.972397  0
H  H7  1  0.75158104  0.43903881  0.18411890  1  0  0.062545  0  0.949638  0  0  0.075672  0  1.01565  0  0  0.073736  0  1.018241  0  0  0.115013  0.077049  0  1.013547  0
H  H8  1  0.24841066  0.56096158  0.81587824  1  0  0.062492  0  0.949679  0  0  0.0756  0  1.015739  0  0  0.073663  0  1.01833  0  0  0.11499  0.076978  0  1.013636  0
H  H9  1  0.38230498  0.01005317  0.25129572  1  0  0.073752  0  0.947876  0  0  0.08505  0  1.016653  0  0  0.085203  0  1.015836  0  0  0.117715  0.084917  0  1.017157  0
H  H10  1  0.61769981  0.98994172  0.74871065  1  0  0.073699  0  0.947873  0  0  0.085028  0  1.016653  0  0  0.085182  0  1.015834  0  0  0.117737  0.084896  0  1.017159  0
H  H11  1  0.29429432  0.17859204  0.20627831  1  0  0.045481  0  0.934484  0  0  0.058985  0  1.007338  0  0  0.058636  0  1.006213  0  0  0.110867  0.059042  0  1.008404  0
H  H12  1  0.70570277  0.82139620  0.79372273  1  0  0.045418  0  0.934419  0  0  0.058901  0  1.007347  0  0  0.058608  0  1.006161  0  0  0.110846  0.058961  0  1.008411  0
H  H13  1  0.20997923  0.02476117  0.44701791  1  0  0.082084  0  0.950893  0  0  0.095804  0  1.014306  0  0  0.09657  0  1.013951  0  0  0.105049  0.095148  0  1.014686  0
H  H14  1  0.79002782  0.97523639  0.55298931  1  0  0.082135  0  0.950866  0  0  0.095883  0  1.01424  0  0  0.09665  0  1.013885  0  0  0.105096  0.095227  0  1.01462  0
H  H15  1  0.12419521  0.18187835  0.38116769  1  0  0.070476  0  0.933123  0  0  0.088265  0  0.995461  0  0  0.088097  0  0.996178  0  0  0.10857  0.088167  0  0.995163  0
H  H16  1  0.87580419  0.81811254  0.61883822  1  0  0.070409  0  0.933183  0  0  0.08825  0  0.995478  0  0  0.088075  0  0.996212  0  0  0.108549  0.088152  0  0.995179  0
H  H17  1  0.35119420  0.25725242  0.68680096  1  0  0.074257  0  0.927553  0  0  0.091677  0  0.988982  0  0  0.09175  0  0.989621  0  0  0.111069  0.091411  0  0.988747  0
H  H18  1  0.64881103  0.74275190  0.31320253  1  0  0.074231  0  0.927598  0  0  0.091671  0  0.989028  0  0  0.091745  0  0.989666  0  0  0.111052  0.091406  0  0.98879  0
H  H19  1  0.10855523  0.24814329  0.63756291  1  0  0.069669  0  0.93402  0  0  0.087525  0  0.994498  0  0  0.086591  0  0.995977  0  0  0.106704  0.088045  0  0.993586  0
H  H20  1  0.89144732  0.75185700  0.36244242  1  0  0.069654  0  0.934029  0  0  0.087541  0  0.994487  0  0  0.086608  0  0.995965  0  0  0.106673  0.08806  0  0.993575  0
H  H21  1  0.73813893  0.12555389  0.36760937  1  0  0.054757  0  0.933017  0  0  0.071161  0  0.995723  0  0  0.072172  0  0.995012  0  0  0.095929  0.070272  0  0.996464  0
H  H22  1  0.26187347  0.87445578  0.63239204  1  0  0.054745  0  0.933064  0  0  0.071183  0  0.995722  0  0  0.072195  0  0.99501  0  0  0.095942  0.070295  0  0.996464  0
H  H23  1  0.87389179  0.26079712  0.28414293  1  0  0.065726  0  0.973322  0  0  0.07894  0  1.043862  0  0  0.08026  0  1.042493  0  0  0.100869  0.077972  0  1.044768  0
H  H24  1  0.12610839  0.73920460  0.71584935  1  0  0.065768  0  0.973336  0  0  0.078975  0  1.043882  0  0  0.080295  0  1.042515  0  0  0.100865  0.078014  0  1.044777  0
H  H25  1  0.59657966  0.87863785  0.12322295  1  0  0.100635  0  0.948227  0  0  0.121611  0  1.01014  0  0  0.123522  0  1.009316  0  0  0.087071  0.12021  0  1.0107  0
H  H26  1  0.40342154  0.12135840  0.87678335  1  0  0.100684  0  0.948239  0  0  0.12165  0  1.010159  0  0  0.123557  0  1.009346  0  0  0.087096  0.120258  0  1.010702  0
H  H27  1  0.84761193  0.93411335  0.17696105  1  0  0.082791  0  0.981113  0  0  0.102169  0  1.051076  0  0  0.102379  0  1.052582  0  0  0.078899  0.102045  0  1.049931  0
H  H28  1  0.15239018  0.06588964  0.82304382  1  0  0.082755  0  0.981125  0  0  0.102162  0  1.051064  0  0  0.102373  0  1.052567  0  0  0.078866  0.102037  0  1.049922  0
H  H29  1  0.74344339  0.01644752  0.04569741  1  0  0.095523  0  0.965243  0  0  0.116922  0  1.028979  0  0  0.11756  0  1.030131  0  0  0.084025  0.116374  0  1.028284  0
H  H30  1  0.25655282  0.98354610  0.95430373  1  0  0.095455  0  0.965247  0  0  0.116882  0  1.028967  0  0  0.117522  0  1.030114  0  0  0.083996  0.116337  0  1.02827  0
H  H31  1  0.93092720  0.70976692  0.87406557  1  0  0.086899  0  0.9691  0  0  0.098212  0  1.032086  0  0  0.101273  0  1.030435  0  0  0.099641  0.095849  0  1.033575  0
H  H32  1  0.06907662  0.29024553  0.12592950  1  0  0.086915  0  0.969107  0  0  0.098218  0  1.032089  0  0  0.101283  0  1.030425  0  0  0.099651  0.095859  0  1.033564  0
H  H33  1  0.90454767  0.17488638  0.86511839  1  0  0.082709  0  0.977867  0  0  0.093019  0  1.044505  0  0  0.096283  0  1.042566  0  0  0.098056  0.090612  0  1.046111  0
H  H34  1  0.09544802  0.82512210  0.13487190  1  0  0.082906  0  0.977889  0  0  0.093091  0  1.044631  0  0  0.096364  0  1.042652  0  0  0.098087  0.090682  0  1.046243  0
C  C35  1  0.36828091  0.59415887  0.76549831  1  0  0.126238  0  3.67116  0  0  0.052833  0  3.936832  0  0  0.064661  0  3.946739  0  0  0.029594  0.045109  0  3.929743  0
C  C36  1  0.63171033  0.40583615  0.23449859  1  0  0.12606  0  3.67125  0  0  0.052658  0  3.936861  0  0  0.064487  0  3.946765  0  0  0.029569  0.044933  0  3.929775  0
C  C37  1  0.58647875  0.84508675  0.73066754  1  0  0.1158  0  3.665182  0  0  0.039506  0  3.935294  0  0  0.050735  0  3.94508  0  0  0.025503  0.032038  0  3.928734  0
C  C38  1  0.41352154  0.15491087  0.26933595  1  0  0.115527  0  3.66547  0  0  0.039299  0  3.93549  0  0  0.050555  0  3.945283  0  0  0.025442  0.031835  0  3.928923  0
C  C39  1  0.23634361  0.16751556  0.45814993  1  0  -0.001976  0  3.61652  0  0  -0.05826  0  3.876946  0  0  -0.053889  0  3.889058  0  0  -0.072394  -0.061077  0  3.868967  0
C  C40  1  0.76366294  0.83248069  0.54185290  1  0  -0.001993  0  3.616445  0  0  -0.058338  0  3.876921  0  0  -0.053962  0  3.889015  0  0  -0.072413  -0.06116  0  3.868952  0
C  C41  1  0.24688822  0.27940683  0.60882863  1  0  0.009817  0  3.624196  0  0  -0.048631  0  3.886807  0  0  -0.043824  0  3.899946  0  0  -0.069337  -0.051686  0  3.878159  0
C  C42  1  0.75311428  0.72058945  0.39117277  1  0  0.009949  0  3.624141  0  0  -0.048565  0  3.886827  0  0  -0.043756  0  3.899965  0  0  -0.069258  -0.051619  0  3.878174  0
C  C43  1  0.73993692  0.15302340  0.26445863  1  0  0.036143  0  3.660914  0  0  -0.016826  0  3.926748  0  0  -0.012572  0  3.938434  0  0  -0.07497  -0.019577  0  3.91848  0
C  C44  1  0.26006468  0.84697827  0.73554085  1  0  0.036068  0  3.660981  0  0  -0.016904  0  3.926797  0  0  -0.012653  0  3.938483  0  0  -0.074994  -0.019659  0  3.918541  0
C  C45  1  0.73174655  0.98596584  0.14602974  1  0  -0.307027  0  3.724855  0  0  -0.385659  0  3.974808  0  0  -0.388169  0  3.985979  0  0  -0.250159  -0.383605  0  3.967011  0
C  C46  1  0.26825467  0.01403446  0.85397645  1  0  -0.306964  0  3.724789  0  0  -0.38565  0  3.974773  0  0  -0.388159  0  3.985938  0  0  -0.250116  -0.383598  0  3.966977  0
C  C47  1  0.81800719  0.36930117  0.69311001  1  0  0.613977  0  3.985111  0  0  0.561833  0  4.302161  0  0  0.594992  0  4.291868  0  0  0.186932  0.539016  0  4.309148  0
C  C48  1  0.18198043  0.63069120  0.30688389  1  0  0.613812  0  3.98502  0  0  0.561697  0  4.302061  0  0  0.594855  0  4.291771  0  0  0.186859  0.53888  0  4.309053  0
C  C49  1  0.90665644  0.43509367  0.85274703  1  0  -0.063386  0  3.773852  0  0  -0.04269  0  4.008034  0  0  -0.047344  0  4.02845  0  0  -0.02337  -0.039542  0  3.9943  0
C  C50  1  0.09335186  0.56491202  0.14724902  1  0  -0.06321  0  3.773452  0  0  -0.042592  0  4.007667  0  0  -0.047249  0  4.02808  0  0  -0.023362  -0.039454  0  3.993948  0
C  C51  1  0.96088054  0.61823896  0.93026648  1  0  -0.088197  0  3.770298  0  0  -0.107643  0  4.014362  0  0  -0.108674  0  4.034146  0  0  -0.092633  -0.106808  0  4.001108  0
C  C52  1  0.03912229  0.38177086  0.06971982  1  0  -0.08833  0  3.770675  0  0  -0.107736  0  4.01478  0  0  -0.108761  0  4.034554  0  0  -0.092672  -0.106896  0  4.001534  0
C  C53  1  0.94650517  0.31746795  0.92459429  1  0  -0.090053  0  3.7694  0  0  -0.111342  0  4.014824  0  0  -0.111817  0  4.033944  0  0  -0.093869  -0.111357  0  4.002244  0
C  C54  1  0.05350729  0.68255785  0.07540871  1  0  -0.090308  0  3.768739  0  0  -0.111444  0  4.014172  0  0  -0.111904  0  4.033282  0  0  -0.093901  -0.111456  0  4.001591  0
N  N55  1  0.31454112  0.46923591  0.61450396  1  0  -0.359848  0  3.26568  0  0  -0.302397  0  3.539322  0  0  -0.331336  0  3.550178  0  0  -0.494018  -0.28475  0  3.532859  0
N  N56  1  0.68545329  0.53076042  0.38549558  1  0  -0.359809  0  3.265735  0  0  -0.302383  0  3.539409  0  0  -0.331327  0  3.550279  0  0  -0.493994  -0.284732  0  3.532937  0
N  N57  1  0.41681147  0.77835330  0.77437138  1  0  -0.244414  0  3.33656  0  0  -0.166225  0  3.598298  0  0  -0.184158  0  3.619254  0  0  -0.342724  -0.153487  0  3.583325  0
N  N58  1  0.58318659  0.22164567  0.22563317  1  0  -0.244313  0  3.336628  0  0  -0.16617  0  3.598307  0  0  -0.184096  0  3.619245  0  0  -0.342728  -0.153432  0  3.583333  0
N  N59  1  0.57870680  0.75848748  0.57520986  1  0  -0.354537  0  3.23767  0  0  -0.295453  0  3.507875  0  0  -0.324196  0  3.517965  0  0  -0.490061  -0.277615  0  3.501791  0
N  N60  1  0.42129305  0.24151283  0.42479417  1  0  -0.354427  0  3.237803  0  0  -0.295449  0  3.507972  0  0  -0.324186  0  3.518044  0  0  -0.490052  -0.277609  0  3.501885  0
O  O61  1  0.87863419  0.47419207  0.62378882  1  0  -0.632834  0  1.957192  0  0  -0.588181  0  2.201958  0  0  -0.610273  0  2.189089  0  0  -0.326766  -0.572846  0  2.210933  0
O  O62  1  0.12136278  0.52580028  0.37619900  1  0  -0.632705  0  1.957377  0  0  -0.588044  0  2.202068  0  0  -0.610138  0  2.189205  0  0  -0.326693  -0.572711  0  2.211043  0
O  O63  1  0.69305815  0.21467765  0.64067369  1  0  -0.639557  0  1.942443  0  0  -0.59128  0  2.172581  0  0  -0.614002  0  2.162191  0  0  -0.335528  -0.575215  0  2.179497  0
O  O64  1  0.30693949  0.78533209  0.35933121  1  0  -0.63968  0  1.942148  0  0  -0.591325  0  2.172208  0  0  -0.614054  0  2.161825  0  0  -0.335552  -0.575257  0  2.179121  0
