# generated using pymatgen
data_Zn3H32C52(NO2)6
_symmetry_space_group_name_H-M   'P 1'
_cell_length_a   14.01080712
_cell_length_b   14.01080816
_cell_length_c   24.75599006
_cell_angle_alpha   90.00019988
_cell_angle_beta   89.99997877
_cell_angle_gamma   120.00009300
_symmetry_Int_Tables_number   1
_chemical_formula_structural   Zn3H32C52(NO2)6
_chemical_formula_sum   'Zn9 H96 C156 N18 O36'
_cell_volume   4208.59239003
_cell_formula_units_Z   3
loop_
 _symmetry_equiv_pos_site_id
 _symmetry_equiv_pos_as_xyz
  1  'x, y, z'
loop_
 _atom_site_type_symbol
 _atom_site_label
 _atom_site_symmetry_multiplicity
 _atom_site_fract_x
 _atom_site_fract_y
 _atom_site_fract_z
 _atom_site_occupancy
 _atom_site_pbe_bader_charge
 _atom_site_pbe_bader_spin_density
 _atom_site_pbe_cm5_charge
 _atom_site_pbe_ddec_charge
 _atom_site_pbe_ddec_spin_density
 _atom_site_pbe_ddec_sum_bond_order
 _atom_site_pbe_magmom
Zn  Zn0  1  0.85050315  0.54018910  0.95333537  1  1.313954  0  0.681614  0.842815  0  2.277656  0
Zn  Zn1  1  0.68968661  0.14949593  0.62000517  1  1.312657  0  0.68162  0.842815  0  2.277598  0
Zn  Zn2  1  0.45981278  0.31031681  0.28666744  1  1.313747  0  0.681626  0.84284  0  2.277591  0
Zn  Zn3  1  0.31031589  0.45981092  0.04666387  1  1.313798  0  0.681588  0.84276  0  2.277725  0
Zn  Zn4  1  0.54019205  0.85050412  0.37999608  1  1.313719  0  0.681653  0.842841  0  2.277612  0
Zn  Zn5  1  0.14949610  0.68968402  0.71333267  1  1.312529  0  0.681622  0.842825  0  2.277583  0
Zn  Zn6  1  0.99999862  0.69739092  0.83333304  1  1.329718  0  0.700247  0.977162  0  2.242665  0
Zn  Zn7  1  0.69739157  0.99999893  0.49999869  1  1.329853  0  0.70027  0.977152  0  2.24273  0
Zn  Zn8  1  0.30261119  0.30260908  0.16666660  1  1.330064  0  0.700276  0.977225  0  2.242588  0
H  H9  1  0.36794460  0.72770997  0.82953244  1  0.126114  0  0.104475  0.122739  0  1.037448  0
H  H10  1  0.16844892  0.62755237  0.84771584  1  0.101652  0  0.10429  0.10728  0  1.007905  0
H  H11  1  0.22452528  0.78489829  0.00332883  1  0.073647  0  0.108899  0.113263  0  0.987956  0
H  H12  1  0.42644962  0.88937330  0.98441551  1  0.081094  0  0.102922  0.112337  0  1.022926  0
H  H13  1  0.45038320  0.01255494  0.87254636  1  0.10382  0  0.103546  0.115499  0  1.01733  0
H  H14  1  0.54595652  0.21300791  0.89260392  1  0.091276  0  0.105731  0.108093  0  1.009555  0
H  H15  1  0.81836717  0.19516150  0.96116789  1  0.098779  0  0.106334  0.111309  0  1.001504  0
H  H16  1  0.72341955  0.99374103  0.94160412  1  0.083909  0  0.106544  0.120079  0  0.993983  0
H  H17  1  0.69507195  0.94560123  0.82738283  1  0.06847  0  0.10223  0.110351  0  1.014438  0
H  H18  1  0.81496097  0.86259945  0.81644963  1  0.090489  0  0.107668  0.1137  0  0.987905  0
H  H19  1  0.60401283  0.59995597  0.92385047  1  0.073344  0  0.10734  0.109101  0  1.008294  0
H  H20  1  0.48430198  0.68104093  0.93526315  1  0.097906  0  0.103813  0.117196  0  1.025969  0
H  H21  1  0.66334890  0.56070907  0.98808983  1  0.124288  0  0.123068  0.096805  0  1.013384  0
H  H22  1  0.59604875  0.61284011  0.07054912  1  0.185395  0  0.114057  0.137977  0  1.054092  0
H  H23  1  0.85399334  0.59820569  0.16020617  1  0.122154  0  0.110219  0.120432  0  1.042013  0
H  H24  1  0.91650019  0.55584426  0.07165462  1  0.107192  0  0.12731  0.106146  0  0.97366  0
H  H25  1  0.35976487  0.63204931  0.49619928  1  0.136742  0  0.104475  0.122729  0  1.037461  0
H  H26  1  0.45910062  0.83154481  0.51438133  1  0.086082  0  0.104277  0.107248  0  1.007988  0
H  H27  1  0.56037543  0.77547747  0.66999330  1  0.072594  0  0.108895  0.113254  0  0.987953  0
H  H28  1  0.46293028  0.57355321  0.65108173  1  0.06984  0  0.102929  0.112359  0  1.022975  0
H  H29  1  0.56217338  0.54961290  0.53921422  1  0.085829  0  0.10353  0.115518  0  1.017294  0
H  H30  1  0.66705048  0.45403876  0.55927229  1  0.094274  0  0.105753  0.108142  0  1.009597  0
H  H31  1  0.37679491  0.18163113  0.62783486  1  0.094805  0  0.106334  0.111324  0  1.001432  0
H  H32  1  0.27032346  0.27657848  0.60827081  1  0.099537  0  0.106553  0.12013  0  0.993968  0
H  H33  1  0.25052732  0.30492312  0.49405242  1  0.052565  0  0.102211  0.110381  0  1.014416  0
H  H34  1  0.04763526  0.18503526  0.48311961  1  0.114587  0  0.10767  0.113701  0  0.987942  0
H  H35  1  0.99594584  0.39598775  0.59051999  1  0.06895  0  0.107352  0.109117  0  1.008275  0
H  H36  1  0.19674076  0.51569785  0.60193198  1  0.094054  0  0.103801  0.11718  0  1.025937  0
H  H37  1  0.89736274  0.33665575  0.65476015  1  0.104552  0  0.123055  0.096848  0  1.013359  0
H  H38  1  0.01679099  0.40395171  0.73722116  1  0.205823  0  0.114024  0.137946  0  1.054206  0
H  H39  1  0.74420384  0.14600339  0.82687388  1  0.132076  0  0.11024  0.120434  0  1.041939  0
H  H40  1  0.63934193  0.08350092  0.73832112  1  0.114977  0  0.127321  0.106158  0  0.973705  0
H  H41  1  0.27228676  0.64023524  0.16286421  1  0.1249  0  0.104451  0.122674  0  1.037379  0
H  H42  1  0.37244851  0.54090011  0.18104637  1  0.093493  0  0.104329  0.107361  0  1.007891  0
H  H43  1  0.21510556  0.43962606  0.33665832  1  0.07842  0  0.108897  0.113277  0  0.98799  0
H  H44  1  0.11062508  0.53707041  0.31774866  1  0.069559  0  0.102955  0.112402  0  1.022952  0
H  H45  1  0.98744364  0.43782784  0.20587696  1  0.085314  0  0.103544  0.115476  0  1.017351  0
H  H46  1  0.78698954  0.33294876  0.22593263  1  0.088511  0  0.105748  0.108096  0  1.009604  0
H  H47  1  0.80483746  0.62320379  0.29449935  1  0.090646  0  0.106337  0.111324  0  1.001518  0
H  H48  1  0.00625715  0.72967723  0.27493620  1  0.055437  0  0.106525  0.120079  0  0.99407  0
H  H49  1  0.05440034  0.74947106  0.16071537  1  0.075468  0  0.102237  0.110369  0  1.014501  0
H  H50  1  0.13739616  0.95235917  0.14978285  1  0.093721  0  0.107661  0.11369  0  0.987954  0
H  H51  1  0.40004065  0.00405799  0.25718257  1  0.071825  0  0.10736  0.109146  0  1.008244  0
H  H52  1  0.31895767  0.80326475  0.26859595  1  0.096592  0  0.103836  0.117195  0  1.026002  0
H  H53  1  0.43928686  0.10263735  0.32142287  1  0.126914  0  0.123057  0.096797  0  1.013386  0
H  H54  1  0.38715969  0.98320939  0.40388217  1  0.175318  0  0.114058  0.137995  0  1.054076  0
H  H55  1  0.40179848  0.25579326  0.49353935  1  0.121792  0  0.110261  0.120461  0  1.0419  0
H  H56  1  0.44415577  0.36065632  0.40498714  1  0.108998  0  0.127299  0.106135  0  0.973652  0
H  H57  1  0.64023370  0.27228840  0.17046884  1  0.125272  0  0.104473  0.122712  0  1.03745  0
H  H58  1  0.54089785  0.37244779  0.15228467  1  0.093347  0  0.104289  0.107271  0  1.007885  0
H  H59  1  0.43962981  0.21510407  0.99667127  1  0.078345  0  0.10891  0.113273  0  0.987932  0
H  H60  1  0.53707783  0.11062747  0.01558456  1  0.069816  0  0.102898  0.112304  0  1.022981  0
H  H61  1  0.43782743  0.98744639  0.12745493  1  0.08552  0  0.103537  0.115482  0  1.017328  0
H  H62  1  0.33294854  0.78699332  0.10739737  1  0.088666  0  0.105748  0.108095  0  1.009571  0
H  H63  1  0.62320456  0.80483810  0.03883335  1  0.090654  0  0.106318  0.111313  0  1.001446  0
H  H64  1  0.72967876  0.00626024  0.05839670  1  0.055425  0  0.106535  0.120079  0  0.994016  0
H  H65  1  0.74947273  0.05440026  0.17261759  1  0.075774  0  0.102268  0.110445  0  1.014422  0
H  H66  1  0.95236468  0.13740237  0.18354955  1  0.089943  0  0.107676  0.113707  0  0.987865  0
H  H67  1  0.00405819  0.40004653  0.07614964  1  0.071731  0  0.107359  0.109126  0  1.008256  0
H  H68  1  0.80326253  0.31896026  0.06473648  1  0.096585  0  0.10382  0.117231  0  1.02594  0
H  H69  1  0.10264039  0.43929063  0.01191067  1  0.126928  0  0.123066  0.096828  0  1.013349  0
H  H70  1  0.98321136  0.38716216  0.92945088  1  0.175378  0  0.11404  0.137947  0  1.054187  0
H  H71  1  0.25579037  0.40179612  0.83979348  1  0.12178  0  0.110248  0.12046  0  1.04192  0
H  H72  1  0.36065750  0.44415747  0.92834582  1  0.108991  0  0.127303  0.106157  0  0.973634  0
H  H73  1  0.72771455  0.36794970  0.50380118  1  0.126156  0  0.10447  0.122727  0  1.037448  0
H  H74  1  0.62755501  0.16845291  0.48561873  1  0.101725  0  0.104287  0.107294  0  1.007921  0
H  H75  1  0.78489809  0.22452167  0.33000633  1  0.073608  0  0.108898  0.11324  0  0.987972  0
H  H76  1  0.88937676  0.42644699  0.34891830  1  0.08192  0  0.102924  0.112355  0  1.023  0
H  H77  1  0.01255860  0.45038576  0.46078549  1  0.103107  0  0.103511  0.115477  0  1.017286  0
H  H78  1  0.21301095  0.54596091  0.44072698  1  0.091559  0  0.105756  0.108136  0  1.009526  0
H  H79  1  0.19516212  0.81836748  0.37216364  1  0.098778  0  0.106324  0.111305  0  1.001492  0
H  H80  1  0.99374338  0.72341990  0.39172762  1  0.084079  0  0.106554  0.120143  0  0.993985  0
H  H81  1  0.94560102  0.69507469  0.50594722  1  0.068552  0  0.102232  0.11037  0  1.014463  0
H  H82  1  0.86259857  0.81496305  0.51688006  1  0.090625  0  0.107682  0.113703  0  0.987929  0
H  H83  1  0.59995767  0.60401257  0.40947880  1  0.073283  0  0.107331  0.109059  0  1.008283  0
H  H84  1  0.68104175  0.48430249  0.39806730  1  0.09828  0  0.103797  0.117183  0  1.025927  0
H  H85  1  0.56070725  0.66334429  0.34523946  1  0.124401  0  0.123054  0.096825  0  1.013391  0
H  H86  1  0.61283916  0.59604933  0.26277854  1  0.18539  0  0.114043  0.137957  0  1.05417  0
H  H87  1  0.59819869  0.85399609  0.17312655  1  0.121853  0  0.110239  0.1204  0  1.041944  0
H  H88  1  0.55584074  0.91649900  0.26167973  1  0.106972  0  0.127299  0.106142  0  0.973686  0
H  H89  1  0.63205114  0.35976640  0.83713546  1  0.136327  0  0.104474  0.122696  0  1.037462  0
H  H90  1  0.83154667  0.45910051  0.81895246  1  0.083652  0  0.104285  0.107296  0  1.007984  0
H  H91  1  0.77547519  0.56037200  0.66334013  1  0.074675  0  0.108911  0.113288  0  0.987963  0
H  H92  1  0.57355112  0.46292542  0.68225265  1  0.069706  0  0.102903  0.112332  0  1.022983  0
H  H93  1  0.54961428  0.56217198  0.79412305  1  0.085745  0  0.103529  0.115449  0  1.017371  0
H  H94  1  0.45403990  0.66705049  0.77406579  1  0.09426  0  0.105742  0.108128  0  1.009577  0
H  H95  1  0.18163189  0.37679455  0.70550072  1  0.094849  0  0.106329  0.111346  0  1.001508  0
H  H96  1  0.27657947  0.27032169  0.72506354  1  0.099521  0  0.106533  0.120081  0  0.994026  0
H  H97  1  0.30492730  0.25052791  0.83928355  1  0.052515  0  0.102261  0.110401  0  1.014468  0
H  H98  1  0.18503620  0.04763923  0.85021809  1  0.113597  0  0.107663  0.113725  0  0.987922  0
H  H99  1  0.39598698  0.99594309  0.74281833  1  0.069073  0  0.107353  0.109128  0  1.008233  0
H  H100  1  0.51569298  0.19673641  0.73140332  1  0.093746  0  0.103837  0.117199  0  1.025985  0
H  H101  1  0.33664794  0.89736203  0.67857803  1  0.108376  0  0.123077  0.096766  0  1.013434  0
H  H102  1  0.40394954  0.01679101  0.59611873  1  0.20587  0  0.114036  0.137975  0  1.054155  0
H  H103  1  0.14600648  0.74420745  0.50646117  1  0.130796  0  0.110275  0.120489  0  1.04188  0
H  H104  1  0.08350123  0.63934360  0.59501298  1  0.115  0  0.127306  0.106151  0  0.973658  0
C  C105  1  0.40993993  0.81468426  0.90607480  1  0.345978  0  0.099139  0.192213  0  4.01433  0
C  C106  1  0.33750857  0.73928504  0.86802819  1  -0.061034  0  -0.091291  -0.163537  0  3.946871  0
C  C107  1  0.22485734  0.68382158  0.87808268  1  -0.025305  0  -0.084143  -0.07524  0  3.978685  0
C  C108  1  0.18345319  0.70076484  0.92658450  1  -0.026353  0  -0.027472  -0.06863  0  4.025349  0
C  C109  1  0.25689725  0.77387521  0.96526409  1  0.016549  0  -0.076535  -0.060618  0  3.957804  0
C  C110  1  0.36923305  0.83163828  0.95479798  1  -0.032529  0  -0.091102  -0.168024  0  3.971697  0
C  C111  1  0.58098827  0.98998189  0.90548883  1  0.307153  0  0.098179  0.188381  0  4.03677  0
C  C112  1  0.53100687  0.05250275  0.89195544  1  -0.042818  0  -0.098251  -0.184321  0  3.982786  0
C  C113  1  0.58459408  0.16459223  0.90307325  1  -0.049386  0  -0.081702  -0.078147  0  3.988798  0
C  C114  1  0.68881133  0.21691449  0.92775136  1  0.028186  0  -0.029019  -0.061293  0  4.020852  0
C  C115  1  0.73815699  0.15428629  0.94138517  1  -0.136825  0  -0.082663  -0.081463  0  4.003662  0
C  C116  1  0.68522125  0.04214775  0.93044266  1  0.033074  0  -0.099743  -0.190679  0  4.006394  0
C  C117  1  0.58395978  0.82128797  0.88354045  1  0.307857  0  0.09949  0.192163  0  4.028748  0
C  C118  1  0.67544204  0.86976767  0.84858854  1  -0.044746  0  -0.098632  -0.182464  0  3.997878  0
C  C119  1  0.74254545  0.82361809  0.84247320  1  0.026719  0  -0.083727  -0.077947  0  3.990051  0
C  C120  1  0.72005793  0.72816951  0.87116960  1  -0.047421  0  -0.028099  -0.063703  0  3.991688  0
C  C121  1  0.62387653  0.67576700  0.90265002  1  -0.041015  0  -0.081975  -0.074958  0  3.98839  0
C  C122  1  0.55563406  0.72052616  0.90860822  1  -0.009499  0  -0.095243  -0.176612  0  3.975662  0
C  C123  1  0.06361516  0.64391907  0.93703122  1  1.477036  0  0.209528  0.57686  0  4.161203  0
C  C124  1  0.74683328  0.33683833  0.93863773  1  1.527586  0  0.1897  0.546363  0  4.225816  0
C  C125  1  0.80213971  0.68981833  0.87327369  1  1.547141  0  0.221096  0.60953  0  4.173062  0
C  C126  1  0.70391317  0.57202950  0.02688368  1  0.484852  0  0.057272  0.118034  0  3.909583  0
C  C127  1  0.66712630  0.60074284  0.07258134  1  -0.006359  0  -0.071795  -0.183162  0  3.889813  0
C  C128  1  0.72439121  0.61352851  0.12087794  1  0.275796  0  0.108118  0.200249  0  4.030733  0
C  C129  1  0.81218601  0.59262789  0.12225131  1  0.024321  0  -0.070358  -0.182759  0  3.908199  0
C  C130  1  0.84547100  0.56774759  0.07393773  1  0.480771  0  0.056311  0.104947  0  3.922638  0
C  C131  1  0.40474633  0.59005598  0.57274152  1  0.354711  0  0.099181  0.192334  0  4.014323  0
C  C132  1  0.40177664  0.66248764  0.53469423  1  -0.112012  0  -0.091291  -0.163603  0  3.94701  0
C  C133  1  0.45896299  0.77513762  0.54474806  1  0.042697  0  -0.084117  -0.075189  0  3.978612  0
C  C134  1  0.51731209  0.81654478  0.59324949  1  -0.057075  0  -0.027468  -0.068576  0  4.025058  0
C  C135  1  0.51698073  0.74310321  0.63192976  1  -0.051208  0  -0.076528  -0.060568  0  3.957685  0
C  C136  1  0.46241071  0.63076606  0.62146350  1  0.02197  0  -0.091134  -0.168153  0  3.971817  0
C  C137  1  0.40899593  0.41901063  0.57215523  1  0.300524  0  0.098226  0.188566  0  4.036724  0
C  C138  1  0.52149781  0.46898920  0.55862197  1  -0.02018  0  -0.09835  -0.184535  0  3.98272  0
C  C139  1  0.57999873  0.41540170  0.56974003  1  -0.033595  0  -0.08163  -0.078104  0  3.988761  0
C  C140  1  0.52810276  0.31118382  0.59441922  1  0.058175  0  -0.029008  -0.061211  0  4.020836  0
C  C141  1  0.41613002  0.26184236  0.60805144  1  -0.103424  0  -0.08268  -0.081559  0  4.003739  0
C  C142  1  0.35692887  0.31477827  0.59710990  1  -0.087083  0  -0.099783  -0.190801  0  4.00652  0
C  C143  1  0.23732958  0.41603856  0.55020864  1  0.31111  0  0.099405  0.192087  0  4.028685  0
C  C144  1  0.19432540  0.32455619  0.51525661  1  -0.021726  0  -0.098587  -0.182492  0  3.997865  0
C  C145  1  0.08107278  0.25745346  0.50914086  1  -0.007168  0  -0.083732  -0.077973  0  3.990032  0
C  C146  1  0.00811017  0.27994226  0.53783657  1  -0.038127  0  -0.028116  -0.063609  0  3.991562  0
C  C147  1  0.05189177  0.37612583  0.56931712  1  -0.050417  0  -0.082039  -0.075129  0  3.988272  0
C  C148  1  0.16489459  0.44436910  0.57527493  1  -0.011043  0  -0.095143  -0.176441  0  3.975403  0
C  C149  1  0.58030298  0.93638305  0.60369596  1  1.520305  0  0.209588  0.576888  0  4.161175  0
C  C150  1  0.59000585  0.25316495  0.60530621  1  1.522722  0  0.189677  0.546311  0  4.225981  0
C  C151  1  0.88767899  0.19785471  0.53994134  1  1.554751  0  0.221064  0.60935  0  4.173133  0
C  C152  1  0.86811331  0.29608919  0.69355275  1  0.507154  0  0.057384  0.118143  0  3.90952  0
C  C153  1  0.93361416  0.33287264  0.73925202  1  0.021007  0  -0.071832  -0.183245  0  3.88973  0
C  C154  1  0.88913381  0.27560737  0.78754775  1  0.256635  0  0.108106  0.200162  0  4.0307  0
C  C155  1  0.78043776  0.18781341  0.78891907  1  0.022583  0  -0.070309  -0.182633  0  3.90812  0
C  C156  1  0.72227279  0.15452858  0.74060507  1  0.460718  0  0.056243  0.104805  0  3.922733  0
C  C157  1  0.18531342  0.59525497  0.23940646  1  0.332223  0  0.099213  0.192386  0  4.014218  0
C  C158  1  0.26071613  0.59822309  0.20136152  1  -0.041513  0  -0.091279  -0.163514  0  3.946842  0
C  C159  1  0.31617963  0.54103527  0.21141357  1  -0.012735  0  -0.0842  -0.07537  0  3.978707  0
C  C160  1  0.29923602  0.48269145  0.25991612  1  -0.010556  0  -0.027486  -0.068642  0  4.025098  0
C  C161  1  0.22612516  0.48302146  0.29859606  1  -0.01161  0  -0.076534  -0.060561  0  3.957781  0
C  C162  1  0.16835811  0.53759091  0.28812835  1  -0.021156  0  -0.091171  -0.168275  0  3.971831  0
C  C163  1  0.01001782  0.59100747  0.23881955  1  0.340582  0  0.098238  0.188401  0  4.0369  0
C  C164  1  0.94749676  0.47850426  0.22528686  1  -0.001916  0  -0.098258  -0.184286  0  3.982892  0
C  C165  1  0.83540685  0.42000140  0.23640170  1  -0.105328  0  -0.081756  -0.078186  0  3.988996  0
C  C166  1  0.78308273  0.47189598  0.26108103  1  0.008609  0  -0.028997  -0.061257  0  4.021082  0
C  C167  1  0.84571220  0.58387061  0.27471622  1  -0.05886  0  -0.082674  -0.081558  0  4.003752  0
C  C168  1  0.95785170  0.64307331  0.26377386  1  -0.014701  0  -0.099759  -0.1907  0  4.006537  0
C  C169  1  0.17871153  0.76267137  0.21687390  1  0.333461  0  0.099419  0.192009  0  4.028808  0
C  C170  1  0.13022889  0.80567089  0.18192079  1  -0.120094  0  -0.098608  -0.182507  0  3.997888  0
C  C171  1  0.17637714  0.91892549  0.17580561  1  0.038827  0  -0.083764  -0.077957  0  3.989961  0
C  C172  1  0.27182648  0.99188797  0.20450216  1  0.013555  0  -0.028076  -0.063538  0  3.991351  0
C  C173  1  0.32422898  0.94810900  0.23598217  1  0.023466  0  -0.082034  -0.075113  0  3.988311  0
C  C174  1  0.27947601  0.83511071  0.24194022  1  -0.078508  0  -0.095238  -0.176535  0  3.975718  0
C  C175  1  0.35608639  0.41969731  0.27036201  1  1.469348  0  0.20971  0.577069  0  4.160946  0
C  C176  1  0.66315935  0.40999523  0.27196562  1  1.525591  0  0.189698  0.546297  0  4.226139  0
C  C177  1  0.31017702  0.11232144  0.20660624  1  1.55064  0  0.221122  0.609477  0  4.173049  0
C  C178  1  0.42797209  0.13188566  0.36021593  1  0.488071  0  0.05727  0.118033  0  3.909669  0
C  C179  1  0.39925744  0.06638602  0.40591512  1  -0.012295  0  -0.071775  -0.183201  0  3.889745  0
C  C180  1  0.38647465  0.11086608  0.45421135  1  0.266362  0  0.10819  0.200353  0  4.030571  0
C  C181  1  0.40737549  0.21956109  0.45558405  1  0.012482  0  -0.070351  -0.182748  0  3.908067  0
C  C182  1  0.43225453  0.27772494  0.40726934  1  0.488171  0  0.056254  0.104859  0  3.922806  0
C  C183  1  0.59525566  0.18531483  0.09392648  1  0.33208  0  0.099165  0.192179  0  4.014375  0
C  C184  1  0.59822350  0.26071396  0.13197310  1  -0.041887  0  -0.091315  -0.163558  0  3.946902  0
C  C185  1  0.54103490  0.31617668  0.12191822  1  -0.012571  0  -0.084133  -0.075194  0  3.978597  0
C  C186  1  0.48268803  0.29923415  0.07341601  1  -0.010468  0  -0.027477  -0.068681  0  4.025245  0
C  C187  1  0.48302316  0.22612346  0.03473601  1  -0.011415  0  -0.076499  -0.060553  0  3.957697  0
C  C188  1  0.53759512  0.16835975  0.04520331  1  -0.021465  0  -0.091106  -0.168006  0  3.971772  0
C  C189  1  0.59100675  0.01001783  0.09451283  1  0.34059  0  0.098245  0.188443  0  4.036904  0
C  C190  1  0.47850356  0.94749675  0.10804625  1  -0.00219  0  -0.098265  -0.184345  0  3.982895  0
C  C191  1  0.42000113  0.83541057  0.09692924  1  -0.105546  0  -0.081739  -0.078162  0  3.988953  0
C  C192  1  0.47189671  0.78308662  0.07225071  1  0.008601  0  -0.028951  -0.061194  0  4.021039  0
C  C193  1  0.58386841  0.84571316  0.05861689  1  -0.058777  0  -0.082718  -0.081595  0  4.003753  0
C  C194  1  0.64307260  0.95785414  0.06955859  1  -0.014692  0  -0.099731  -0.190653  0  4.006513  0
C  C195  1  0.76267149  0.17871237  0.11645959  1  0.333379  0  0.099429  0.192087  0  4.028896  0
C  C196  1  0.80567418  0.13023125  0.15141067  1  -0.121401  0  -0.098657  -0.18262  0  3.997972  0
C  C197  1  0.91892819  0.17638301  0.15752680  1  0.042384  0  -0.083764  -0.07792  0  3.990016  0
C  C198  1  0.99188980  0.27183147  0.12883040  1  0.014987  0  -0.028144  -0.0638  0  3.991686  0
C  C199  1  0.94811136  0.32423451  0.09735080  1  0.022378  0  -0.081994  -0.074952  0  3.9884  0
C  C200  1  0.83510998  0.27947599  0.09139221  1  -0.077415  0  -0.095234  -0.176632  0  3.975641  0
C  C201  1  0.41969600  0.35608085  0.06297012  1  1.469309  0  0.209526  0.576871  0  4.161221  0
C  C202  1  0.40999395  0.66316372  0.06136434  1  1.525594  0  0.189581  0.546177  0  4.226037  0
C  C203  1  0.11232399  0.31018113  0.12672518  1  1.549415  0  0.221143  0.609621  0  4.173141  0
C  C204  1  0.13188605  0.42797220  0.97311641  1  0.485886  0  0.057241  0.117984  0  3.909593  0
C  C205  1  0.06638604  0.39925883  0.92741876  1  -0.010203  0  -0.071808  -0.183182  0  3.889881  0
C  C206  1  0.11086666  0.38647495  0.87912215  1  0.268472  0  0.108189  0.20029  0  4.030604  0
C  C207  1  0.21956167  0.40737579  0.87774915  1  0.011658  0  -0.070323  -0.18267  0  3.908057  0
C  C208  1  0.27772568  0.43225663  0.92606314  1  0.488981  0  0.056264  0.104841  0  3.922735  0
C  C209  1  0.81468935  0.40994224  0.42725893  1  0.345848  0  0.09924  0.192389  0  4.014278  0
C  C210  1  0.73929035  0.33751108  0.46530582  1  -0.060842  0  -0.091345  -0.163674  0  3.947061  0
C  C211  1  0.68382529  0.22485992  0.45525199  1  -0.025402  0  -0.084089  -0.075142  0  3.978628  0
C  C212  1  0.70076911  0.18345468  0.40675096  1  -0.018  0  -0.027497  -0.068701  0  4.025148  0
C  C213  1  0.77387938  0.25689699  0.36807028  1  0.008152  0  -0.076527  -0.060494  0  3.957703  0
C  C214  1  0.83164476  0.36923344  0.37853654  1  -0.033196  0  -0.091156  -0.168204  0  3.971888  0
C  C215  1  0.98998445  0.58098884  0.42784359  1  0.307292  0  0.098185  0.188482  0  4.036636  0
C  C216  1  0.05250702  0.53101003  0.44137693  1  -0.042188  0  -0.098332  -0.184475  0  3.982697  0
C  C217  1  0.16459562  0.58459800  0.43025885  1  -0.04869  0  -0.081638  -0.078098  0  3.988692  0
C  C218  1  0.21691703  0.68881439  0.40557967  1  0.027186  0  -0.029045  -0.061285  0  4.020872  0
C  C219  1  0.15428661  0.73815783  0.39194666  1  -0.136844  0  -0.082656  -0.081445  0  4.003682  0
C  C220  1  0.04214823  0.68522061  0.40288942  1  0.032916  0  -0.099747  -0.190827  0  4.006485  0
C  C221  1  0.82129003  0.58395822  0.44979102  1  0.309092  0  0.09943  0.192036  0  4.028745  0
C  C222  1  0.86976643  0.67544129  0.48474305  1  -0.04591  0  -0.098654  -0.182528  0  3.997867  0
C  C223  1  0.82361647  0.74254514  0.49085881  1  0.026478  0  -0.083757  -0.07794  0  3.990079  0
C  C224  1  0.72816731  0.72005787  0.46216191  1  -0.046983  0  -0.028102  -0.063662  0  3.991654  0
C  C225  1  0.67576455  0.62387210  0.43068136  1  -0.041059  0  -0.082034  -0.075052  0  3.988331  0
C  C226  1  0.72052511  0.55563104  0.42472434  1  -0.010098  0  -0.095134  -0.176437  0  3.975473  0
C  C227  1  0.64392298  0.06361548  0.39630125  1  1.475944  0  0.20954  0.576778  0  4.161384  0
C  C228  1  0.33684052  0.74683516  0.39469467  1  1.527442  0  0.189688  0.546323  0  4.225749  0
C  C229  1  0.68982081  0.80214350  0.46005705  1  1.547696  0  0.221109  0.609401  0  4.173252  0
C  C230  1  0.57202410  0.70391011  0.30644727  1  0.484885  0  0.057375  0.118136  0  3.909477  0
C  C231  1  0.60073851  0.66712596  0.26074759  1  -0.005715  0  -0.071802  -0.183197  0  3.889717  0
C  C232  1  0.61352083  0.72439082  0.21245266  1  0.274715  0  0.108131  0.200239  0  4.030533  0
C  C233  1  0.59262102  0.81218478  0.21108056  1  0.024897  0  -0.070357  -0.182634  0  3.908087  0
C  C234  1  0.56774252  0.84546992  0.25939456  1  0.479539  0  0.056258  0.10479  0  3.922697  0
C  C235  1  0.59005719  0.40474476  0.76059403  1  0.354372  0  0.099179  0.19224  0  4.014161  0
C  C236  1  0.66249286  0.40177578  0.79863976  1  -0.11037  0  -0.091276  -0.16351  0  3.946843  0
C  C237  1  0.77514328  0.45896586  0.78858568  1  0.044375  0  -0.084125  -0.07524  0  3.978719  0
C  C238  1  0.81654282  0.51731062  0.74008353  1  -0.056044  0  -0.027471  -0.068615  0  4.025012  0
C  C239  1  0.74310143  0.51697863  0.70140360  1  -0.053801  0  -0.076561  -0.060654  0  3.957812  0
C  C240  1  0.63076497  0.46240519  0.71187052  1  0.021527  0  -0.091139  -0.168102  0  3.971787  0
C  C241  1  0.41901152  0.40899323  0.76117977  1  0.303724  0  0.098217  0.188307  0  4.036867  0
C  C242  1  0.46899129  0.52149547  0.77471317  1  -0.020136  0  -0.098257  -0.184227  0  3.982873  0
C  C243  1  0.41540361  0.57999787  0.76359673  1  -0.033829  0  -0.081752  -0.078262  0  3.988984  0
C  C244  1  0.31118620  0.52810401  0.73891781  1  0.058455  0  -0.02896  -0.061186  0  4.021031  0
C  C245  1  0.26183997  0.41612733  0.72528303  1  -0.103375  0  -0.08268  -0.08162  0  4.003779  0
C  C246  1  0.31477748  0.35692614  0.73622617  1  -0.089957  0  -0.099758  -0.190639  0  4.006433  0
C  C247  1  0.41604091  0.23732998  0.78312621  1  0.311765  0  0.099395  0.191964  0  4.028837  0
C  C248  1  0.32455737  0.19432876  0.81807933  1  -0.022177  0  -0.098616  -0.182486  0  3.997817  0
C  C249  1  0.25745324  0.08107476  0.82419492  1  -0.006315  0  -0.083755  -0.078024  0  3.989932  0
C  C250  1  0.27994261  0.00811271  0.79549876  1  -0.038093  0  -0.02812  -0.063587  0  3.991447  0
C  C251  1  0.37612274  0.05189170  0.76401914  1  -0.050497  0  -0.081999  -0.075018  0  3.988328  0
C  C252  1  0.44436620  0.16489140  0.75805988  1  -0.010654  0  -0.095207  -0.176532  0  3.975644  0
C  C253  1  0.93638911  0.58030624  0.72963762  1  1.519318  0  0.209639  0.576963  0  4.160971  0
C  C254  1  0.25316500  0.59000643  0.72803203  1  1.522858  0  0.18964  0.546258  0  4.226105  0
C  C255  1  0.19785450  0.88767765  0.79339550  1  1.554798  0  0.221013  0.609398  0  4.172934  0
C  C256  1  0.29608627  0.86811585  0.63978457  1  0.505959  0  0.057259  0.11806  0  3.909563  0
C  C257  1  0.33287225  0.93361509  0.59408579  1  0.01544  0  -0.071796  -0.183183  0  3.889807  0
C  C258  1  0.27560866  0.88913395  0.54578916  1  0.259464  0  0.108204  0.200306  0  4.030702  0
C  C259  1  0.18781499  0.78043902  0.54441606  1  0.024015  0  -0.070374  -0.182758  0  3.908126  0
C  C260  1  0.15453042  0.72227432  0.59273078  1  0.460197  0  0.05625  0.104823  0  3.922798  0
N  N261  1  0.52476497  0.87584641  0.89504802  1  -1.24454  0  -0.252708  -0.157697  0  3.67183  0
N  N262  1  0.79308587  0.55911233  0.02705291  1  -1.236224  0  -0.319863  -0.223712  0  3.541633  0
N  N263  1  0.69668115  0.64505019  0.16999578  1  -0.471171  0  -0.12193  -0.093847  0  3.20777  0
N  N264  1  0.35108415  0.47523364  0.56171499  1  -1.213039  0  -0.252723  -0.157702  0  3.671931  0
N  N265  1  0.76602611  0.20691806  0.69372152  1  -1.260014  0  -0.319855  -0.223615  0  3.541683  0
N  N266  1  0.94836398  0.30331477  0.83666559  1  -0.4715  0  -0.12205  -0.093973  0  3.207799  0
N  N267  1  0.12415521  0.64891888  0.22838050  1  -1.245605  0  -0.252687  -0.157534  0  3.671847  0
N  N268  1  0.44088814  0.23397385  0.36038569  1  -1.226787  0  -0.319807  -0.223561  0  3.541793  0
N  N269  1  0.35495459  0.05163492  0.50333032  1  -0.396084  0  -0.12209  -0.094089  0  3.207707  0
N  N270  1  0.64891976  0.12415515  0.10495243  1  -1.245588  0  -0.252671  -0.157543  0  3.671907  0
N  N271  1  0.23397526  0.44089008  0.97294716  1  -1.226806  0  -0.319817  -0.223599  0  3.541705  0
N  N272  1  0.05163320  0.35495093  0.83000431  1  -0.398087  0  -0.121992  -0.093986  0  3.207727  0
N  N273  1  0.87584789  0.52476529  0.43828465  1  -1.24474  0  -0.2527  -0.157593  0  3.67179  0
N  N274  1  0.55910662  0.79308168  0.30627892  1  -1.234624  0  -0.319829  -0.223576  0  3.541585  0
N  N275  1  0.64504509  0.69668334  0.16333402  1  -0.406421  0  -0.122086  -0.09413  0  3.207705  0
N  N276  1  0.47523502  0.35108111  0.77161920  1  -1.213327  0  -0.252654  -0.157449  0  3.671981  0
N  N277  1  0.20691310  0.76602497  0.63961522  1  -1.25964  0  -0.319797  -0.223542  0  3.541642  0
N  N278  1  0.30331762  0.94836487  0.49666979  1  -0.471307  0  -0.122043  -0.094004  0  3.207701  0
O  O279  1  0.99501563  0.60540755  0.89593153  1  -1.185636  0  -0.332526  -0.597772  0  2.409793  0
O  O280  1  0.02459778  0.63017022  0.98398873  1  -1.148255  0  -0.300577  -0.511159  0  2.166945  0
O  O281  1  0.70442116  0.39468561  0.92342692  1  -1.1731  0  -0.323752  -0.542491  0  2.196069  0
O  O282  1  0.84086636  0.38289030  0.96261580  1  -1.182376  0  -0.325976  -0.554634  0  2.225167  0
O  O283  1  0.87196751  0.71861576  0.83432071  1  -1.165981  0  -0.325718  -0.568657  0  2.319286  0
O  O284  1  0.79911122  0.63544130  0.91473673  1  -1.192603  0  -0.314182  -0.558839  0  2.398825  0
O  O285  1  0.61038432  0.00497609  0.56259509  1  -1.188546  0  -0.332568  -0.5978  0  2.409727  0
O  O286  1  0.60557571  0.97540105  0.65065352  1  -1.151739  0  -0.300643  -0.511226  0  2.16696  0
O  O287  1  0.69026431  0.29557219  0.59009457  1  -1.169981  0  -0.323744  -0.542473  0  2.196261  0
O  O288  1  0.54202100  0.15913080  0.62928376  1  -1.178253  0  -0.325936  -0.554603  0  2.225186  0
O  O289  1  0.84664786  0.12803677  0.50098505  1  -1.169649  0  -0.32561  -0.568477  0  2.319242  0
O  O290  1  0.83633517  0.20087600  0.58140889  1  -1.194326  0  -0.314244  -0.558867  0  2.398801  0
O  O291  1  0.39459821  0.38961591  0.22926324  1  -1.182422  0  -0.332575  -0.597816  0  2.40979  0
O  O292  1  0.36983555  0.39443300  0.31731991  1  -1.144164  0  -0.300682  -0.511302  0  2.166871  0
O  O293  1  0.60531020  0.30973614  0.25675547  1  -1.169398  0  -0.323756  -0.542483  0  2.196206  0
O  O294  1  0.61711012  0.45797739  0.29594613  1  -1.18221  0  -0.32595  -0.554554  0  2.225155  0
O  O295  1  0.28138739  0.15335284  0.16765288  1  -1.164326  0  -0.325637  -0.568537  0  2.319378  0
O  O296  1  0.36455339  0.16366668  0.24807059  1  -1.197539  0  -0.314278  -0.558994  0  2.398757  0
O  O297  1  0.38961174  0.39459312  0.10406890  1  -1.182455  0  -0.332544  -0.597793  0  2.40984  0
O  O298  1  0.39442365  0.36982610  0.01601180  1  -1.144094  0  -0.300585  -0.511161  0  2.166942  0
O  O299  1  0.30973279  0.60531251  0.07657274  1  -1.169338  0  -0.323667  -0.542398  0  2.196275  0
O  O300  1  0.45797732  0.61711158  0.03738626  1  -1.182187  0  -0.325947  -0.55453  0  2.225045  0
O  O301  1  0.15335583  0.28138865  0.16567774  1  -1.164374  0  -0.325667  -0.568631  0  2.319352  0
O  O302  1  0.16366870  0.36455615  0.08526011  1  -1.196398  0  -0.314227  -0.558923  0  2.399036  0
O  O303  1  0.60540722  0.99501908  0.43740253  1  -1.184485  0  -0.332531  -0.597737  0  2.40981  0
O  O304  1  0.63017612  0.02459845  0.34934490  1  -1.148278  0  -0.300587  -0.511115  0  2.167128  0
O  O305  1  0.39469094  0.70442865  0.40990831  1  -1.173045  0  -0.323722  -0.54244  0  2.196104  0
O  O306  1  0.38288969  0.84086791  0.37071470  1  -1.182337  0  -0.32597  -0.554657  0  2.225107  0
O  O307  1  0.71861089  0.87196478  0.49901415  1  -1.165946  0  -0.325654  -0.568527  0  2.31928  0
O  O308  1  0.63545803  0.79912597  0.41858992  1  -1.193212  0  -0.314222  -0.558813  0  2.399004  0
O  O309  1  0.00498258  0.61038888  0.77073608  1  -1.187327  0  -0.33256  -0.597774  0  2.40987  0
O  O310  1  0.97540361  0.60557052  0.68267971  1  -1.15175  0  -0.300651  -0.511254  0  2.166827  0
O  O311  1  0.29557725  0.69026575  0.74324299  1  -1.170083  0  -0.323735  -0.542476  0  2.196187  0
O  O312  1  0.15913294  0.54202778  0.70405194  1  -1.178253  0  -0.325933  -0.554561  0  2.225157  0
O  O313  1  0.12803287  0.84664777  0.83234887  1  -1.16985  0  -0.325551  -0.568468  0  2.319257  0
O  O314  1  0.20088100  0.83633244  0.75193074  1  -1.194192  0  -0.31425  -0.558962  0  2.3987  0
