# generated using pymatgen
data_FeH16C14(NO3)2
_symmetry_space_group_name_H-M   'P 1'
_cell_length_a   8.45768564
_cell_length_b   9.02903030
_cell_length_c   9.39051987
_cell_angle_alpha   105.69767904
_cell_angle_beta   89.99952957
_cell_angle_gamma   90.00089337
_symmetry_Int_Tables_number   1
_chemical_formula_structural   FeH16C14(NO3)2
_chemical_formula_sum   'Fe2 H32 C28 N4 O12'
_cell_volume   690.35818484
_cell_formula_units_Z   2
loop_
 _symmetry_equiv_pos_site_id
 _symmetry_equiv_pos_as_xyz
  1  'x, y, z'
loop_
 _atom_site_type_symbol
 _atom_site_label
 _atom_site_symmetry_multiplicity
 _atom_site_fract_x
 _atom_site_fract_y
 _atom_site_fract_z
 _atom_site_occupancy
 _atom_site_pbe_bader_spin_density
 _atom_site_pbe_cm5_charge
 _atom_site_pbe_ddec_charge
 _atom_site_pbe_ddec_spin_density
 _atom_site_pbe_ddec_sum_bond_order
 _atom_site_pbe_magmom
Fe  Fe0  1  0.50000047  0.50000030  0.99999916  1  0  0.613212  0.605779  0  3.082107  0
Fe  Fe1  1  0.99999944  0.00000031  0.50000012  1  0  0.613098  0.605639  0  3.082179  0
H  H2  1  0.18614400  0.72766840  0.35372006  1  0  0.116897  0.082355  0  1.073851  0
H  H3  1  0.68615088  0.77233524  0.14628821  1  0  0.116835  0.082269  0  1.073674  0
H  H4  1  0.81384845  0.27232672  0.64627672  1  0  0.11689  0.082361  0  1.073791  0
H  H5  1  0.31384984  0.22766447  0.85371297  1  0  0.116838  0.082256  0  1.073655  0
H  H6  1  0.27652110  0.48747538  0.40726081  1  0  0.104363  0.111803  0  1.014915  0
H  H7  1  0.77651944  0.01254665  0.09274138  1  0  0.104339  0.111762  0  1.014925  0
H  H8  1  0.72347253  0.51252204  0.59273657  1  0  0.104417  0.111842  0  1.014837  0
H  H9  1  0.22348247  0.98745307  0.90725874  1  0  0.104346  0.111775  0  1.014945  0
H  H10  1  0.96750611  0.87969258  0.76125511  1  0  0.116458  0.095644  0  1.03362  0
H  H11  1  0.46751149  0.62030425  0.73874618  1  0  0.116463  0.09564  0  1.033528  0
H  H12  1  0.03249699  0.12030829  0.23874318  1  0  0.11645  0.095616  0  1.033584  0
H  H13  1  0.53249161  0.37969892  0.26125483  1  0  0.116442  0.095637  0  1.033503  0
H  H14  1  0.96634291  0.53583539  0.86214814  1  0  0.108584  0.138195  0  0.983189  0
H  H15  1  0.46634071  0.96416373  0.63785057  1  0  0.108566  0.13816  0  0.983229  0
H  H16  1  0.03365782  0.46416548  0.13785015  1  0  0.108604  0.138212  0  0.98323  0
H  H17  1  0.53365647  0.03584059  0.36214969  1  0  0.108544  0.13811  0  0.983358  0
H  H18  1  0.96338481  0.73781319  0.93682684  1  0  0.100079  0.119439  0  1.017484  0
H  H19  1  0.46337403  0.76218588  0.56318146  1  0  0.100105  0.119468  0  1.017399  0
H  H20  1  0.03661356  0.26218998  0.06317418  1  0  0.100089  0.119459  0  1.017498  0
H  H21  1  0.53662316  0.23781613  0.43682138  1  0  0.10008  0.119412  0  1.017422  0
H  H22  1  0.20843125  0.44185087  0.65296456  1  0  0.10462  0.116328  0  1.041506  0
H  H23  1  0.70842213  0.05816189  0.84703901  1  0  0.10463  0.116295  0  1.041536  0
H  H24  1  0.79156593  0.55814770  0.34703631  1  0  0.104626  0.116338  0  1.041492  0
H  H25  1  0.29157859  0.94183783  0.15296110  1  0  0.104627  0.116292  0  1.041544  0
H  H26  1  0.52215442  0.69371182  0.27897937  1  0  0.296492  0.381342  0  0.954418  0
H  H27  1  0.02215358  0.80628386  0.22102059  1  0  0.296477  0.381291  0  0.954472  0
H  H28  1  0.47784513  0.30628675  0.72102044  1  0  0.29649  0.381351  0  0.954395  0
H  H29  1  0.97784597  0.19371701  0.77897983  1  0  0.296467  0.381295  0  0.954474  0
H  H30  1  0.34822295  0.68175738  0.19535287  1  0  0.293445  0.366134  0  0.983782  0
H  H31  1  0.84822562  0.81823697  0.30464749  1  0  0.293413  0.366097  0  0.983838  0
H  H32  1  0.65177659  0.31824464  0.80464784  1  0  0.293426  0.366091  0  0.983846  0
H  H33  1  0.15177393  0.18176045  0.69535095  1  0  0.293401  0.366089  0  0.983845  0
C  C34  1  0.17704448  0.62691542  0.97706319  1  0  0.221559  0.623259  0  4.101467  0
C  C35  1  0.67703760  0.87308322  0.52293649  1  0  0.221531  0.623329  0  4.101343  0
C  C36  1  0.82295625  0.37308544  0.02293829  1  0  0.221598  0.623439  0  4.101283  0
C  C37  1  0.32296313  0.12691880  0.47706210  1  0  0.221492  0.623311  0  4.101397  0
C  C38  1  0.08352738  0.65886077  0.72803567  1  0  -0.00639  0.098785  0  3.974645  0
C  C39  1  0.58352599  0.84114235  0.77197014  1  0  -0.006432  0.09873  0  3.974947  0
C  C40  1  0.91647217  0.34114125  0.27196611  1  0  -0.006394  0.098723  0  3.97476  0
C  C41  1  0.41647592  0.15885967  0.22802951  1  0  -0.006363  0.098816  0  3.974799  0
C  C42  1  0.15780698  0.70451823  0.45809794  1  0  0.033339  0.056194  0  3.945575  0
C  C43  1  0.65779982  0.79549311  0.04189764  1  0  0.033406  0.056349  0  3.945637  0
C  C44  1  0.84219020  0.29547689  0.54189990  1  0  0.033346  0.056211  0  3.945546  0
C  C45  1  0.34220091  0.20450661  0.95810354  1  0  0.033382  0.056378  0  3.945652  0
C  C46  1  0.20803341  0.57056350  0.48998758  1  0  -0.090312  -0.122017  0  4.013937  0
C  C47  1  0.70802521  0.92944504  0.01001968  1  0  -0.090257  -0.122019  0  4.013986  0
C  C48  1  0.79196140  0.42943276  0.51001376  1  0  -0.090336  -0.122071  0  4.013882  0
C  C49  1  0.29197670  0.07055468  0.98997831  1  0  -0.09023  -0.122004  0  4.013866  0
C  C50  1  0.03658318  0.78956314  0.68692627  1  0  0.034533  0.006106  0  3.882701  0
C  C51  1  0.53658872  0.71044625  0.81307621  1  0  0.034427  0.006006  0  3.882582  0
C  C52  1  0.96341755  0.21043657  0.31307810  1  0  0.034545  0.006173  0  3.882641  0
C  C53  1  0.46341201  0.28955347  0.18692071  1  0  0.034416  0.005938  0  3.882646  0
C  C54  1  0.03758964  0.64128949  0.87771387  1  0  -0.158717  -0.34336  0  3.91926  0
C  C55  1  0.53758871  0.85871647  0.62229090  1  0  -0.15873  -0.343357  0  3.919163  0
C  C56  1  0.96241345  0.35871254  0.12228578  1  0  -0.158759  -0.34343  0  3.919319  0
C  C57  1  0.46241202  0.14128439  0.37771271  1  0  -0.158662  -0.343166  0  3.919195  0
C  C58  1  0.17020665  0.54599520  0.62596090  1  0  -0.081023  -0.109457  0  3.948391  0
C  C59  1  0.67019675  0.95400795  0.87404107  1  0  -0.081014  -0.109374  0  3.948506  0
C  C60  1  0.82979172  0.45400337  0.37403891  1  0  -0.081026  -0.10942  0  3.948495  0
C  C61  1  0.32980635  0.04599061  0.12595874  1  0  -0.08107  -0.109477  0  3.948386  0
N  N62  1  0.07179101  0.81347072  0.55380127  1  0  -0.349346  -0.178169  0  3.628903  0
N  N63  1  0.57179376  0.68653224  0.94621204  1  0  -0.3493  -0.178139  0  3.628771  0
N  N64  1  0.92820735  0.18653131  0.44619838  1  0  -0.349356  -0.178191  0  3.628932  0
N  N65  1  0.42820696  0.31346749  0.05378595  1  0  -0.349264  -0.17812  0  3.62876  0
O  O66  1  0.28389350  0.53010991  0.91861382  1  0  -0.291861  -0.485044  0  2.404085  0
O  O67  1  0.78389006  0.96989250  0.58138497  1  0  -0.291807  -0.485014  0  2.403967  0
O  O68  1  0.71610486  0.46988982  0.08138416  1  0  -0.291874  -0.485103  0  2.404025  0
O  O69  1  0.21611067  0.03010722  0.41861514  1  0  -0.2918  -0.48505  0  2.403962  0
O  O70  1  0.17703489  0.70941818  0.11111081  1  0  -0.305191  -0.561275  0  2.240243  0
O  O71  1  0.67702924  0.79057499  0.38888946  1  0  -0.305174  -0.56132  0  2.240248  0
O  O72  1  0.82296821  0.29058153  0.88889037  1  0  -0.30519  -0.561352  0  2.240192  0
O  O73  1  0.32297031  0.20942473  0.61111171  1  0  -0.305171  -0.561327  0  2.240185  0
O  O74  1  0.44208139  0.62412232  0.21711509  1  0  -0.554109  -0.699125  0  2.251894  0
O  O75  1  0.94207811  0.87586756  0.28287702  1  0  -0.554066  -0.699009  0  2.251899  0
O  O76  1  0.55791934  0.37587740  0.78288609  1  0  -0.554114  -0.699109  0  2.251914  0
O  O77  1  0.05791907  0.12413101  0.71712173  1  0  -0.554044  -0.699022  0  2.251941  0
