# generated using pymatgen
data_VMoH8C10N2O5
_symmetry_space_group_name_H-M   'P 1'
_cell_length_a   6.79763323
_cell_length_b   9.59041642
_cell_length_c   9.59032153
_cell_angle_alpha   71.04278636
_cell_angle_beta   80.17530657
_cell_angle_gamma   80.17540241
_symmetry_Int_Tables_number   1
_chemical_formula_structural   VMoH8C10N2O5
_chemical_formula_sum   'V2 Mo2 H16 C20 N4 O10'
_cell_volume   578.16209212
_cell_formula_units_Z   2
loop_
 _symmetry_equiv_pos_site_id
 _symmetry_equiv_pos_as_xyz
  1  'x, y, z'
loop_
 _atom_site_type_symbol
 _atom_site_label
 _atom_site_symmetry_multiplicity
 _atom_site_fract_x
 _atom_site_fract_y
 _atom_site_fract_z
 _atom_site_occupancy
 _atom_site_hle17_ddec_charge
 _atom_site_hle17_ddec_spin_density
 _atom_site_hle17_ddec_sum_bond_order
 _atom_site_hle17_magmom
 _atom_site_hse06_10hf_ddec_charge
 _atom_site_hse06_10hf_ddec_spin_density
 _atom_site_hse06_10hf_ddec_sum_bond_order
 _atom_site_hse06_10hf_magmom
 _atom_site_hse06_ddec_charge
 _atom_site_hse06_ddec_spin_density
 _atom_site_hse06_ddec_sum_bond_order
 _atom_site_hse06_magmom
 _atom_site_pbe_cm5_charge
 _atom_site_pbe_ddec_charge
 _atom_site_pbe_ddec_spin_density
 _atom_site_pbe_ddec_sum_bond_order
 _atom_site_pbe_magmom
V  V0  1  0.33567753  0.75267002  0.42217870  1  1.764154  1.238495  2.696322  1.186  1.789851  0.982627  3.099433  0.943  1.876692  1.075474  3.04614  1.035  1.35562  1.735664  0.887453  3.135647  0.849
V  V1  1  0.83567924  0.42217573  0.75267335  1  1.764153  -1.238471  2.696297  -1.186  1.789873  -0.982612  3.099387  -0.943  1.8767  -1.075514  3.046127  -1.035  1.355646  1.735711  -0.88743  3.135562  -0.849
Mo  Mo2  1  0.37681009  0.38722605  0.63749363  1  2.200991  -0.031032  4.157941  -0.027  2.192203  -0.031414  4.753932  -0.028  2.304111  -0.019438  4.708528  -0.019  1.525424  2.113047  -0.046418  4.786294  -0.04
Mo  Mo3  1  0.87680678  0.63749308  0.38722743  1  2.200976  0.031024  4.157983  0.027  2.192153  0.0314  4.753994  0.028  2.304064  0.019458  4.708592  0.019  1.525379  2.112998  0.046411  4.78636  0.04
H  H4  1  0.40213854  0.55717452  0.19531719  1  0.078592  -0.000222  0.951649  0.0  0.08744  -0.000234  1.018035  0.0  0.089408  -0.000197  1.016601  0.0  0.115164  0.085727  -0.000265  1.018743  0.0
H  H5  1  0.90213924  0.19532070  0.55717147  1  0.078632  0.000222  0.951694  0.0  0.08748  0.000234  1.018067  0.0  0.089449  0.000197  1.016636  0.0  0.115186  0.085767  0.000265  1.018774  0.0
H  H6  1  0.43052083  0.59821769  0.91830213  1  0.120027  -2.2e-05  0.940948  0.0  0.131293  0.000125  0.996343  0.0  0.135431  0.000109  0.994233  0.0  0.114645  0.127311  0.00014  0.999366  0.0
H  H7  1  0.93051160  0.91830753  0.59821790  1  0.119939  2.3e-05  0.940992  0.0  0.131201  -0.000125  0.996401  0.0  0.135339  -0.00011  0.99429  0.0  0.114604  0.12722  -0.00014  0.999424  0.0
H  H8  1  0.40157270  0.85777611  0.74952331  1  0.117339  -0.000611  0.950278  0.0  0.132827  -0.000589  1.000527  0.0  0.137385  -0.00061  0.996987  0.0  0.112725  0.129652  -0.000584  1.003045  0.0
H  H9  1  0.90155978  0.74953254  0.85777733  1  0.117262  0.000611  0.950404  0.0  0.13286  0.000589  1.000526  0.0  0.137421  0.000609  0.996986  0.0  0.112723  0.129684  0.000584  1.003044  0.0
H  H10  1  0.34193570  0.06783683  0.85630654  1  0.10653  -0.000207  0.971036  0.0  0.112688  -0.00011  1.039678  0.0  0.116098  -7.3e-05  1.038208  0.0  0.104661  0.109552  -0.000174  1.041294  0.0
H  H11  1  0.84193174  0.85631481  0.06783798  1  0.106616  0.000207  0.971  0.0  0.11275  0.00011  1.039662  0.0  0.116133  7.4e-05  1.038221  0.0  0.1047  0.109613  0.000174  1.041284  0.0
H  H12  1  0.26807903  0.22744541  0.96638129  1  0.112768  0.000164  0.975095  0.0  0.119746  -0.000289  1.041306  0.0  0.123654  -0.000159  1.039299  0.0  0.106415  0.116698  -0.000451  1.042724  0.0
H  H13  1  0.76808466  0.96638449  0.22745116  1  0.112762  -0.000164  0.975191  0.0  0.11975  0.000289  1.041375  0.0  0.12366  0.00016  1.039361  0.0  0.106442  0.116705  0.000451  1.042791  0.0
H  H14  1  0.20283333  0.40773354  0.11057765  1  0.107805  -0.000648  0.933975  -0.001  0.121779  5.6e-05  0.98764  0.0  0.124817  -1.2e-05  0.984911  0.0  0.114315  0.119243  9.9e-05  0.989738  0.0
H  H15  1  0.70283663  0.11057921  0.40774076  1  0.107785  0.000648  0.933986  0.001  0.121771  -5.6e-05  0.987629  0.0  0.12481  1.1e-05  0.984896  0.0  0.114308  0.119222  -9.9e-05  0.989748  0.0
H  H16  1  0.20998971  0.31053110  0.38695659  1  0.106778  0.000195  0.958806  0.0  0.110656  -0.000166  1.029249  0.0  0.114194  -0.000139  1.027807  0.0  0.107762  0.106883  -0.000221  1.032642  0.0
H  H17  1  0.70998570  0.38695375  0.31053644  1  0.106745  -0.000195  0.9588  0.0  0.110622  0.000166  1.029266  0.0  0.114162  0.000139  1.02782  0.0  0.107737  0.10685  0.000221  1.032663  0.0
H  H18  1  0.27609952  0.03689506  0.50645509  1  0.092256  -0.001275  0.951516  -0.001  0.100328  -0.000605  1.015706  0.0  0.103897  -0.000586  1.012265  0.0  0.122134  0.097718  -0.000591  1.017653  0.0
H  H19  1  0.77609726  0.50645493  0.03689784  1  0.092248  0.001275  0.95154  0.001  0.100314  0.000605  1.01573  0.0  0.103883  0.000586  1.012289  0.0  0.122128  0.097704  0.000591  1.017677  0.0
C  C20  1  0.38947667  0.66820097  0.11561186  1  0.146735  -0.000589  3.697881  -0.001  0.118083  0.000601  3.960196  0.0  0.125734  0.00015  3.976777  0.0  0.052853  0.11347  0.000804  3.948588  0.0
C  C21  1  0.88947410  0.11561448  0.66820046  1  0.146569  0.000589  3.698117  0.001  0.117935  -0.000603  3.960395  0.0  0.125581  -0.000151  3.976982  0.0  0.052823  0.113322  -0.000804  3.948784  0.0
C  C22  1  0.40457351  0.69148309  0.96321556  1  -0.098794  0.00434  3.671334  0.003  -0.109553  0.003366  3.916661  0.002  -0.113745  0.002474  3.932429  0.001  -0.071681  -0.108119  0.005301  3.908672  0.003
C  C23  1  0.90456702  0.96322427  0.69147933  1  -0.098552  -0.004343  3.671179  -0.003  -0.109306  -0.003365  3.916532  -0.002  -0.113498  -0.002471  3.932308  -0.001  -0.071589  -0.107872  -0.005302  3.908542  -0.003
C  C24  1  0.38898045  0.83722080  0.86895552  1  0.016013  -0.002048  3.680174  -0.002  -0.000718  -8e-06  3.920524  0.0  0.004004  -0.00086  3.934522  -0.001  -0.058058  -0.004389  0.000846  3.912262  0.0
C  C25  1  0.88897115  0.86896081  0.83722091  1  0.016061  0.002049  3.679917  0.002  -0.000767  7e-06  3.920303  0.0  0.00395  0.000863  3.934297  0.001  -0.058045  -0.004437  -0.000846  3.912041  0.0
C  C26  1  0.35464738  0.95400041  0.92960205  1  -0.133835  0.004752  3.695162  0.003  -0.153174  0.003103  3.943981  0.002  -0.159896  0.00268  3.965452  0.002  -0.078406  -0.149074  0.00429  3.930654  0.003
C  C27  1  0.85464231  0.92960868  0.95400183  1  -0.13397  -0.004757  3.695056  -0.003  -0.153304  -0.003104  3.943926  -0.002  -0.160009  -0.002684  3.965417  -0.002  -0.078511  -0.149206  -0.00429  3.930604  -0.003
C  C28  1  0.33944601  0.92197868  0.08378300  1  0.170062  -0.003683  3.777103  -0.003  0.169575  -0.00077  4.023518  -0.001  0.175199  -0.001731  4.043919  -0.002  0.115697  0.165831  0.000479  4.010532  -0.001
C  C29  1  0.83944834  0.08378634  0.92198112  1  0.170141  0.003685  3.777118  0.003  0.169682  0.000771  4.023489  0.001  0.175298  0.001737  4.043879  0.002  0.115741  0.165935  -0.000479  4.010504  0.001
C  C30  1  0.30306017  0.03579898  0.16037030  1  0.183224  0.018962  3.750851  0.016  0.179509  0.016463  4.000007  0.013  0.189288  0.012289  4.017839  0.01  0.117782  0.171889  0.021502  3.988809  0.016
C  C31  1  0.80306383  0.16037303  0.03580219  1  0.183173  -0.018972  3.750821  -0.016  0.179432  -0.016468  4.000012  -0.013  0.189251  -0.01229  4.017788  -0.01  0.117803  0.171815  -0.021506  3.988813  -0.016
C  C32  1  0.27031171  0.18801032  0.08597276  1  -0.125109  -0.015477  3.671853  -0.012  -0.144136  -0.007006  3.921945  -0.006  -0.151262  -0.007434  3.940085  -0.006  -0.076811  -0.138594  -0.007117  3.909702  -0.007
C  C33  1  0.77031472  0.08597281  0.18801814  1  -0.125176  0.015484  3.671962  0.012  -0.144187  0.007009  3.922064  0.006  -0.151322  0.007429  3.940183  0.006  -0.076921  -0.13865  0.007117  3.909823  0.007
C  C34  1  0.23418398  0.28914987  0.16607097  1  0.008206  0.023608  3.694321  0.017  -0.01358  0.019555  3.942633  0.013  -0.00657  0.014793  3.957556  0.01  -0.064128  -0.018841  0.026298  3.933132  0.018
C  C35  1  0.73418230  0.16607155  0.28915634  1  0.008234  -0.023614  3.69426  -0.017  -0.013561  -0.019556  3.942601  -0.013  -0.006548  -0.014793  3.957522  -0.01  -0.064091  -0.018813  -0.026299  3.933103  -0.018
C  C36  1  0.23570539  0.23570184  0.31961294  1  -0.107492  -0.016753  3.715251  -0.013  -0.117584  -0.007558  3.967712  -0.006  -0.125278  -0.00857  3.987598  -0.006  -0.078706  -0.11385  -0.006158  3.95731  -0.006
C  C37  1  0.73570132  0.31961168  0.23570765  1  -0.107401  0.016759  3.715215  0.013  -0.117533  0.007561  3.967705  0.006  -0.125228  0.008572  3.987594  0.006  -0.078685  -0.1138  0.006158  3.957302  0.006
C  C38  1  0.27099558  0.08354972  0.38732002  1  0.138393  0.02087  3.686553  0.017  0.10948  0.015699  3.943826  0.012  0.119793  0.012991  3.957543  0.01  0.04981  0.102094  0.019408  3.936279  0.014
C  C39  1  0.77099057  0.38732091  0.08355370  1  0.138363  -0.020877  3.686606  -0.017  0.109479  -0.015701  3.943856  -0.012  0.119787  -0.01299  3.95758  -0.01  0.049804  0.102093  -0.019408  3.936308  -0.014
N  N40  1  0.35914001  0.78034858  0.17446015  1  -0.388937  -0.001264  3.253705  -0.003  -0.35246  -0.000302  3.524568  -0.001  -0.371958  -0.000726  3.545544  -0.001  -0.35715  -0.339704  0.000998  3.510441  0.0
N  N41  1  0.85914087  0.17446296  0.78034689  1  -0.388952  0.001258  3.253623  0.003  -0.352493  0.000302  3.524495  0.001  -0.371977  0.000722  3.545445  0.001  -0.357194  -0.339739  -0.000999  3.510367  0.0
N  N42  1  0.30130050  0.98443493  0.31062150  1  -0.397166  -0.021349  3.282034  -0.035  -0.358426  -0.004877  3.556387  -0.021  -0.379212  -0.008183  3.573598  -0.023  -0.378841  -0.346092  -0.000197  3.546313  -0.017
N  N43  1  0.80130078  0.31062382  0.98443879  1  -0.397104  0.02135  3.28195  0.035  -0.35836  0.004875  3.556288  0.021  -0.379156  0.008185  3.573488  0.023  -0.378795  -0.346029  0.000195  3.546213  0.017
O  O44  1  0.30977956  0.77724059  0.58331048  1  -0.681427  -0.2523  1.316745  -0.244  -0.704239  -0.104512  1.575677  -0.102  -0.750074  -0.135832  1.568388  -0.135  -0.567934  -0.670202  -0.084075  1.579343  -0.082
O  O45  1  0.80978540  0.58330657  0.77724071  1  -0.681424  0.252305  1.316732  0.244  -0.704265  0.104509  1.575668  0.102  -0.750108  0.135859  1.568381  0.135  -0.56797  -0.670241  0.084071  1.579328  0.082
O  O46  1  0.37120925  0.53460725  0.46215072  1  -0.946413  -0.002175  1.71785  -0.016  -0.950591  0.004055  2.045771  -0.01  -0.994996  0.006404  2.033557  -0.008  -0.616571  -0.919911  0.003531  2.055442  -0.009
O  O47  1  0.87120585  0.46215166  0.53460814  1  -0.946373  0.002172  1.717859  0.016  -0.950558  -0.004055  2.045796  0.01  -0.99496  -0.006403  2.033584  0.008  -0.61654  -0.919879  -0.003532  2.055467  0.009
O  O48  1  0.13238618  0.37848478  0.74398001  1  -0.92753  -0.004209  1.731858  0.012  -0.925899  -0.015213  2.041526  0.003  -0.968167  -0.014652  2.027314  0.003  -0.617968  -0.895451  -0.017013  2.050572  0.001
O  O49  1  0.63238486  0.74397760  0.37848875  1  -0.927521  0.004206  1.731867  -0.012  -0.925883  0.015212  2.041538  -0.003  -0.968176  0.01465  2.027364  -0.003  -0.618011  -0.895432  0.017012  2.05059  -0.001
O  O50  1  0.45194568  0.22104560  0.59895156  1  -0.745906  -0.002898  1.408855  -0.003  -0.726978  -0.003867  1.656646  -0.004  -0.758102  -0.002708  1.646362  -0.003  -0.535089  -0.702782  -0.004141  1.662501  -0.004
O  O51  1  0.95193499  0.59895611  0.22104096  1  -0.745949  0.002901  1.408865  0.003  -0.726964  0.003872  1.656621  0.004  -0.758071  0.002698  1.646303  0.003  -0.535045  -0.70277  0.004141  1.662488  0.004
O  O52  1  0.54778857  0.41129483  0.74896518  1  -0.917243  -0.002891  1.713261  0.014  -0.918108  -0.014205  2.024211  0.004  -0.960427  -0.013861  2.011181  0.003  -0.613648  -0.887761  -0.016181  2.032367  0.002
O  O53  1  0.04778503  0.74896378  0.41129355  1  -0.917259  0.00289  1.713221  -0.014  -0.918134  0.014208  2.0242  -0.004  -0.960452  0.013862  2.011159  -0.003  -0.613647  -0.887782  0.016183  2.03236  -0.002
