# generated using pymatgen
data_ZnH14C23N3O5
_symmetry_space_group_name_H-M   'P 1'
_cell_length_a   16.24696759
_cell_length_b   17.21848118
_cell_length_c   19.17064552
_cell_angle_alpha   89.21487154
_cell_angle_beta   87.52684558
_cell_angle_gamma   87.78581427
_symmetry_Int_Tables_number   1
_chemical_formula_structural   ZnH14C23N3O5
_chemical_formula_sum   'Zn2 H28 C46 N6 O10'
_cell_volume   5353.56700929
_cell_formula_units_Z   2
loop_
 _symmetry_equiv_pos_site_id
 _symmetry_equiv_pos_as_xyz
  1  'x, y, z'
loop_
 _atom_site_type_symbol
 _atom_site_label
 _atom_site_symmetry_multiplicity
 _atom_site_fract_x
 _atom_site_fract_y
 _atom_site_fract_z
 _atom_site_occupancy
 _atom_site_pbe_bader_charge
 _atom_site_pbe_bader_spin_density
 _atom_site_pbe_cm5_charge
 _atom_site_pbe_ddec_charge
 _atom_site_pbe_ddec_spin_density
 _atom_site_pbe_ddec_sum_bond_order
 _atom_site_pbe_magmom
Zn  Zn0  1  0.58403259  0.50543665  0.50182610  1  1.278445  0  0.665452  0.814053  0  2.449429  0
Zn  Zn1  1  0.41435636  0.50140436  0.50713588  1  1.279852  0  0.661436  0.810846  0  2.42949  0
H  H2  1  0.63045757  0.47937694  0.72048650  1  0.102676  0  0.105519  0.110186  0  0.998773  0
H  H3  1  0.37028142  0.48279371  0.28766299  1  0.086303  0  0.101458  0.10358  0  1.00828  0
H  H4  1  0.28446766  0.56336983  0.41999096  1  0.144776  0  0.130845  0.10314  0  0.996115  0
H  H5  1  0.72015759  0.44096499  0.58763117  1  0.155541  0  0.136778  0.11669  0  0.972685  0
H  H6  1  0.70899446  0.58859942  0.41573980  1  0.129158  0  0.135606  0.110946  0  0.960937  0
H  H7  1  0.28362943  0.41096132  0.58776047  1  0.149615  0  0.138624  0.112946  0  0.951897  0
H  H8  1  0.99196001  0.58516863  0.46851519  1  0.102968  0  0.116068  0.124163  0  1.000881  0
H  H9  1  0.00597906  0.41785362  0.52619669  1  0.064277  0  0.11216  0.113358  0  0.988672  0
H  H10  1  0.13111818  0.39651855  0.58365234  1  0.094979  0  0.120221  0.129881  0  0.97468  0
H  H11  1  0.86278494  0.60255609  0.41080680  1  0.098901  0  0.124064  0.137045  0  0.966829  0
H  H12  1  0.63405085  0.45371677  0.84921361  1  0.093219  0  0.107157  0.106002  0  1.010731  0
H  H13  1  0.37149257  0.45090819  0.16018860  1  0.098423  0  0.105116  0.103807  0  1.014568  0
H  H14  1  0.36911948  0.44838479  0.86126527  1  0.080651  0  0.105287  0.10418  0  1.013143  0
H  H15  1  0.63624708  0.45942070  0.14956392  1  0.064974  0  0.106162  0.104619  0  1.012523  0
H  H16  1  0.36642473  0.47387503  0.73228290  1  0.089884  0  0.103615  0.106874  0  1.001593  0
H  H17  1  0.63386012  0.49027199  0.27728567  1  0.126222  0  0.105171  0.109467  0  0.998677  0
H  H18  1  0.39408493  0.27069117  0.43141571  1  0.103154  0  0.101876  0.105895  0  1.003398  0
H  H19  1  0.61125043  0.74786660  0.47449980  1  0.074585  0  0.100608  0.103111  0  1.008533  0
H  H20  1  0.34816229  0.74610927  0.46455378  1  0.09098  0  0.100318  0.1027  0  1.005018  0
H  H21  1  0.65099071  0.25815056  0.47469314  1  0.097948  0  0.104567  0.109412  0  0.997236  0
H  H22  1  0.40817113  0.00632489  0.41993762  1  0.049248  0  0.098789  0.095009  0  1.009686  0
H  H23  1  0.59783378  0.00396453  0.41653826  1  0.03038  0  0.098907  0.093741  0  1.012785  0
H  H24  1  0.65886013  0.11817487  0.44201072  1  0.042994  0  0.099179  0.096759  0  1.002293  0
H  H25  1  0.34491616  0.88589645  0.42864160  1  0.040636  0  0.098036  0.096004  0  1.00122  0
H  H26  1  0.60957471  0.88670725  0.43994850  1  0.049297  0  0.099166  0.097241  0  1.011248  0
H  H27  1  0.40080535  0.13195620  0.39702888  1  0.029044  0  0.099764  0.098643  0  1.004283  0
H  H28  1  0.93861342  0.46953014  0.62631002  1  0.026734  0  0.100575  0.033144  0  0.973912  0
H  H29  1  0.18475158  0.59136489  0.35418504  1  0.07941  0  0.108804  0.04031  0  0.955468  0
C  C30  1  0.51472208  0.35372771  0.48328098  1  1.545447  0  0.210827  0.589472  0  4.176985  0
C  C31  1  0.48336026  0.65457970  0.49415659  1  1.554059  0  0.211845  0.591325  0  4.171894  0
C  C32  1  0.52117513  0.27185653  0.45809124  1  0.013466  0  -0.019363  -0.033073  0  3.963174  0
C  C33  1  0.47993346  0.73833696  0.47225110  1  0.040644  0  -0.020591  -0.034745  0  3.964467  0
C  C34  1  0.45151898  0.23617458  0.43412691  1  -0.062042  0  -0.087131  -0.092457  0  3.999498  0
C  C35  1  0.55328005  0.77877174  0.46387876  1  -0.025126  0  -0.086649  -0.089388  0  4.002944  0
C  C36  1  0.45569826  0.15856678  0.41521766  1  -0.038999  0  -0.091957  -0.134918  0  3.973125  0
C  C37  1  0.55179026  0.85651506  0.44419245  1  -0.034692  0  -0.092543  -0.133685  0  3.974804  0
C  C38  1  0.52963841  0.11354242  0.42085627  1  0.088541  0  -0.009479  0.117551  0  4.04345  0
C  C39  1  0.47661437  0.89735567  0.43208487  1  -0.018437  0  -0.009755  0.116481  0  4.043935  0
C  C40  1  0.60059689  0.15170040  0.43959676  1  -0.144718  0  -0.092085  -0.140124  0  3.982098  0
C  C41  1  0.40361087  0.85555097  0.43855277  1  -0.069127  0  -0.093461  -0.141358  0  3.981623  0
C  C42  1  0.59655292  0.22950137  0.45823537  1  -0.020694  0  -0.084012  -0.085511  0  3.993159  0
C  C43  1  0.40504061  0.77753720  0.45857727  1  -0.08076  0  -0.087081  -0.089458  0  4.001785  0
C  C44  1  0.53505311  0.02925010  0.41589933  1  -0.050866  0  -0.09032  -0.128989  0  3.999444  0
C  C45  1  0.47102916  0.98105085  0.41981580  1  -0.042372  0  -0.091258  -0.131893  0  3.998128  0
C  C46  1  0.24702242  0.52894436  0.45663513  1  0.527926  0  0.077813  0.085195  0  3.887702  0
C  C47  1  0.75415051  0.47524971  0.54860810  1  0.506332  0  0.083363  0.101362  0  3.843236  0
C  C48  1  0.16160648  0.52636811  0.45003037  1  -0.100396  0  -0.011624  -0.085254  0  3.926756  0
C  C49  1  0.83990543  0.47981959  0.55087920  1  0.041426  0  -0.0092  -0.076714  0  3.938629  0
C  C50  1  0.11617242  0.47959622  0.49889688  1  -0.020365  0  0.029545  0.150656  0  3.945387  0
C  C51  1  0.88152128  0.52546224  0.49954998  1  -0.036059  0  0.023239  0.126102  0  3.983089  0
C  C52  1  0.49718747  0.48956218  0.64093937  1  1.552504  0  0.217391  0.593664  0  4.164493  0
C  C53  1  0.50083452  0.50407278  0.36634527  1  1.57331  0  0.212488  0.586541  0  4.176781  0
C  C54  1  0.16242837  0.43540595  0.54677603  1  0.005027  0  -0.071963  -0.183634  0  3.926061  0
C  C55  1  0.83324212  0.56656653  0.45108532  1  0.00851  0  -0.06834  -0.168716  0  3.915052  0
C  C56  1  0.24701871  0.44286748  0.54966064  1  0.501232  0  0.07817  0.130463  0  3.89174  0
C  C57  1  0.74856292  0.55876860  0.45297395  1  0.486063  0  0.072093  0.116535  0  3.900843  0
C  C58  1  0.02679371  0.47352769  0.50529689  1  -0.045006  0  -0.074432  -0.127276  0  3.958577  0
C  C59  1  0.97071753  0.53098867  0.49156749  1  0.034499  0  -0.065348  -0.094607  0  3.945313  0
C  C60  1  0.57365948  0.47243210  0.75184563  1  -0.055256  0  -0.080014  -0.085193  0  3.965226  0
C  C61  1  0.42788381  0.47796919  0.25652600  1  -0.031289  0  -0.084414  -0.090241  0  3.983797  0
C  C62  1  0.57568192  0.45838786  0.82328947  1  -0.02048  0  -0.080526  -0.104679  0  3.960363  0
C  C63  1  0.42860669  0.46030088  0.18604635  1  0.03436  0  -0.082903  -0.107886  0  3.970809  0
C  C64  1  0.50179616  0.44898512  0.86300636  1  -0.024857  0  -0.004719  0.018197  0  4.000043  0
C  C65  1  0.50396560  0.45341963  0.14720365  1  -0.096371  0  -0.005186  0.017337  0  4.005037  0
C  C66  1  0.42605030  0.45526873  0.83003394  1  -0.031887  0  -0.082769  -0.108661  0  3.966563  0
C  C67  1  0.57823488  0.46499903  0.18006902  1  0.01471  0  -0.080979  -0.104632  0  3.965512  0
C  C68  1  0.42458855  0.46920953  0.75849976  1  -0.031531  0  -0.083051  -0.090079  0  3.977126  0
C  C69  1  0.57696324  0.48228642  0.25067451  1  -0.009257  0  -0.081457  -0.087403  0  3.972244  0
C  C70  1  0.49829447  0.47726692  0.71864236  1  0.051947  0  -0.009623  -0.017502  0  3.938948  0
C  C71  1  0.50190500  0.48882627  0.28945907  1  -0.07336  0  -0.010536  -0.016583  0  3.945565  0
C  C72  1  0.50487595  0.43534809  0.07274328  1  0.900454  0  0.238949  0.247578  0  3.997648  0
C  C73  1  0.50373862  0.43351121  0.93828135  1  0.929032  0  0.239731  0.247679  0  3.993743  0
C  C74  1  0.88049620  0.44277397  0.61150705  1  0.95698  0  0.097343  0.266895  0  4.002208  0
C  C75  1  0.13242470  0.56787480  0.38672715  1  0.964905  0  0.105184  0.276432  0  3.985991  0
N  N76  1  0.43227324  0.41974214  0.97463507  1  -0.545631  0  -0.159844  -0.154224  0  3.221421  0
N  N77  1  0.57829826  0.42652254  0.03686338  1  -0.558379  0  -0.158557  -0.152888  0  3.220046  0
N  N78  1  0.43286386  0.42070878  0.04324046  1  -0.558622  0  -0.159738  -0.153938  0  3.221841  0
N  N79  1  0.57768694  0.42563135  0.96828066  1  -0.523232  0  -0.158068  -0.151338  0  3.21975  0
N  N80  1  0.28859169  0.49045042  0.50580986  1  -1.249842  0  -0.313306  -0.182504  0  3.504693  0
N  N81  1  0.70986415  0.51336166  0.50091659  1  -1.236326  0  -0.310776  -0.182656  0  3.506278  0
O  O82  1  0.58154642  0.38653250  0.49556509  1  -1.16246  0  -0.323002  -0.548329  0  2.309189  0
O  O83  1  0.41538093  0.62092107  0.50577981  1  -1.162053  0  -0.325667  -0.550461  0  2.298442  0
O  O84  1  0.44237703  0.38509229  0.49062610  1  -1.163042  0  -0.32402  -0.559566  0  2.328609  0
O  O85  1  0.55502603  0.62229218  0.49884399  1  -1.16412  0  -0.322947  -0.557484  0  2.335341  0
O  O86  1  0.56639495  0.49863147  0.60872442  1  -1.169287  0  -0.315239  -0.547874  0  2.332373  0
O  O87  1  0.43049838  0.51163669  0.39806182  1  -1.17041  0  -0.319692  -0.556005  0  2.327147  0
O  O88  1  0.42734234  0.48933808  0.61285511  1  -1.164431  0  -0.319241  -0.551246  0  2.310566  0
O  O89  1  0.57044874  0.50647836  0.39425942  1  -1.161875  0  -0.318228  -0.550828  0  2.316971  0
O  O90  1  0.85192994  0.38879408  0.64558806  1  -1.057697  0  -0.260325  -0.342384  0  2.078931  0
O  O91  1  0.06184430  0.57639232  0.36732058  1  -1.075288  0  -0.257892  -0.346836  0  2.140284  0
