# generated using pymatgen
data_CuH12C15SN4O
_symmetry_space_group_name_H-M   'P 1'
_cell_length_a   7.96029041
_cell_length_b   7.96023641
_cell_length_c   11.13230080
_cell_angle_alpha   87.94141375
_cell_angle_beta   87.94193865
_cell_angle_gamma   88.76738486
_symmetry_Int_Tables_number   1
_chemical_formula_structural   CuH12C15SN4O
_chemical_formula_sum   'Cu2 H24 C30 S2 N8 O2'
_cell_volume   704.35266215
_cell_formula_units_Z   2
loop_
 _symmetry_equiv_pos_site_id
 _symmetry_equiv_pos_as_xyz
  1  'x, y, z'
loop_
 _atom_site_type_symbol
 _atom_site_label
 _atom_site_symmetry_multiplicity
 _atom_site_fract_x
 _atom_site_fract_y
 _atom_site_fract_z
 _atom_site_occupancy
 _atom_site_hle17_ddec_charge
 _atom_site_hle17_ddec_spin_density
 _atom_site_hle17_ddec_sum_bond_order
 _atom_site_hle17_magmom
 _atom_site_hse06_10hf_ddec_charge
 _atom_site_hse06_10hf_ddec_spin_density
 _atom_site_hse06_10hf_ddec_sum_bond_order
 _atom_site_hse06_10hf_magmom
 _atom_site_hse06_ddec_charge
 _atom_site_hse06_ddec_spin_density
 _atom_site_hse06_ddec_sum_bond_order
 _atom_site_hse06_magmom
 _atom_site_pbe_cm5_charge
 _atom_site_pbe_ddec_charge
 _atom_site_pbe_ddec_spin_density
 _atom_site_pbe_ddec_sum_bond_order
 _atom_site_pbe_magmom
Cu  Cu0  1  0.03859497  0.90639224  0.93769046  1  0.741721  -0.694452  2.061725  -0.475  0.705278  -0.782052  2.488693  -0.585  0.791392  -0.866013  2.415983  -0.674  0.7474  0.657798  -0.724961  2.536162  -0.531
Cu  Cu1  1  0.90638218  0.03860481  0.43770106  1  0.74157  0.69444  2.061698  0.475  0.705079  0.78205  2.488694  0.585  0.791167  0.866006  2.415985  0.674  0.747331  0.657608  0.72495  2.536134  0.531
H  H2  1  0.54628966  0.75260624  0.09972444  1  0.103835  -4.9e-05  0.967044  0.0  0.109198  -2.2e-05  1.039275  0.0  0.113454  -5.7e-05  1.036107  0.0  0.103424  0.106191  3.1e-05  1.041429  0.0
H  H3  1  0.75261399  0.54628581  0.59972070  1  0.103894  4.5e-05  0.966931  0.0  0.10922  2.2e-05  1.039213  0.0  0.113474  5.7e-05  1.036045  0.0  0.10343  0.10621  -3.1e-05  1.04137  0.0
H  H4  1  0.26666491  0.62146393  0.13523465  1  0.082343  3.5e-05  0.98199  0.0  0.092819  2.9e-05  1.046314  0.0  0.093956  2.9e-05  1.048012  0.0  0.09521  0.09189  2.7e-05  1.045462  0.0
H  H5  1  0.62146902  0.26666230  0.63523861  1  0.08225  -3.5e-05  0.982073  0.0  0.092726  -2.9e-05  1.046408  0.0  0.09386  -2.9e-05  1.048108  0.0  0.09515  0.091799  -2.7e-05  1.045549  0.0
H  H6  1  0.16257281  0.42091033  0.98903382  1  0.088378  -8.5e-05  0.959492  0.0  0.097819  -7.5e-05  1.023159  0.0  0.099975  -6.8e-05  1.022915  0.0  0.093697  0.096184  -8e-05  1.023498  0.0
H  H7  1  0.42090951  0.16256878  0.48904264  1  0.088426  8.1e-05  0.959518  0.0  0.097868  7.4e-05  1.023178  0.0  0.100024  6.7e-05  1.022937  0.0  0.093702  0.09623  8e-05  1.023517  0.0
H  H8  1  0.33852912  0.35265064  0.80797575  1  0.085571  -9.6e-05  0.963958  0.0  0.095712  -9.2e-05  1.02517  0.0  0.097554  -5.2e-05  1.026109  0.0  0.095108  0.094347  -0.000127  1.024601  0.0
H  H9  1  0.35264715  0.33852426  0.30798210  1  0.085585  9.4e-05  0.963904  0.0  0.095725  9.2e-05  1.025116  0.0  0.097566  5.1e-05  1.026055  0.0  0.09513  0.094358  0.000127  1.024553  0.0
H  H10  1  0.62059638  0.48139818  0.77480786  1  0.090064  -0.00037  0.997401  0.0  0.096005  -0.000338  1.071762  0.0  0.099106  -0.000193  1.069644  0.0  0.098602  0.093765  -0.000471  1.073262  0.0
H  H11  1  0.48139283  0.62059232  0.27480747  1  0.090112  0.000367  0.997291  0.0  0.096013  0.000338  1.071707  0.0  0.099114  0.000193  1.069589  0.0  0.098584  0.093767  0.000471  1.073206  0.0
H  H12  1  0.04734621  0.49015452  0.66974072  1  0.129054  0.000826  0.962595  0.001  0.144642  0.000226  1.03152  0.0  0.146757  0.000252  1.030258  0.0  0.095638  0.142957  0.000186  1.032367  0.0
H  H13  1  0.49016468  0.04734564  0.16973624  1  0.129019  -0.000827  0.962661  -0.001  0.144599  -0.000226  1.031605  0.0  0.146724  -0.000252  1.030335  0.0  0.095608  0.142913  -0.000186  1.032455  0.0
H  H14  1  0.23381551  0.56877302  0.59454128  1  0.119484  -0.000507  0.954413  0.0  0.139945  -0.000548  1.014726  -0.001  0.140085  -0.000372  1.016889  0.0  0.094155  0.139653  -0.000669  1.013402  -0.001
H  H15  1  0.56878015  0.23381591  0.09453382  1  0.119478  0.000504  0.954527  0.0  0.139965  0.000548  1.014799  0.001  0.140105  0.000371  1.016965  0.0  0.094155  0.139675  0.000669  1.013477  0.001
H  H16  1  0.03121822  0.65844408  0.56146079  1  0.147817  0.001034  0.959144  0.002  0.164482  0.000437  1.024372  0.001  0.16711  0.000469  1.023356  0.001  0.102067  0.162434  0.000399  1.025293  0.001
H  H17  1  0.65844735  0.03121728  0.06145350  1  0.147817  -0.001034  0.959075  -0.002  0.164479  -0.000437  1.024286  -0.001  0.167108  -0.000469  1.023269  -0.001  0.102104  0.162431  -0.000398  1.025209  -0.001
H  H18  1  0.41411775  0.76252929  0.58684950  1  0.106488  -0.00093  0.967732  -0.001  0.116667  -0.000744  1.027039  -0.001  0.119081  -0.000523  1.027786  -0.001  0.106963  0.114842  -0.000919  1.026797  -0.001
H  H19  1  0.76254291  0.41412033  0.08684004  1  0.106502  0.000929  0.967643  0.001  0.116692  0.000743  1.026975  0.001  0.119109  0.000523  1.027721  0.001  0.106937  0.114867  0.000919  1.026736  0.001
H  H20  1  0.65923851  0.93079399  0.63910253  1  0.10708  -0.000412  0.961288  0.0  0.112514  -0.000232  1.027642  0.0  0.115364  -0.00021  1.025291  0.0  0.107675  0.110085  -0.000249  1.029843  0.0
H  H21  1  0.93080183  0.65924429  0.13909560  1  0.107126  0.000415  0.961165  0.0  0.112516  0.000232  1.027584  0.0  0.115365  0.00021  1.025232  0.0  0.107697  0.110082  0.000249  1.029795  0.0
H  H22  1  0.64229633  0.09583085  0.82838177  1  0.096825  -0.000577  0.992595  -0.001  0.100973  -0.000498  1.064829  -0.001  0.103587  -0.000364  1.064684  -0.001  0.095484  0.098926  -0.000594  1.065241  -0.001
H  H23  1  0.09583153  0.64230113  0.32837968  1  0.096815  0.000575  0.992607  0.001  0.100945  0.000498  1.064862  0.001  0.103559  0.000364  1.06472  0.001  0.095457  0.098896  0.000594  1.065274  0.001
H  H24  1  0.37514832  0.08284730  0.95687059  1  0.085302  -0.001791  0.941509  -0.002  0.095589  -0.001675  1.00313  -0.002  0.096127  -0.001219  1.003062  -0.002  0.12069  0.094924  -0.002026  1.003404  -0.002
H  H25  1  0.08284394  0.37515225  0.45686944  1  0.08526  0.001788  0.941579  0.002  0.095524  0.001675  1.003233  0.002  0.096068  0.001219  1.003135  0.002  0.120697  0.094857  0.002026  1.003502  0.002
C  C26  1  0.97126001  0.14188872  0.69332668  1  0.304858  -0.004955  4.007342  -0.003  0.303285  0.000226  4.298179  0.003  0.331429  -0.000705  4.30725  0.002  0.150924  0.285446  0.001004  4.290334  0.004
C  C27  1  0.14186609  0.97127348  0.19331244  1  0.305333  0.004955  4.007419  0.003  0.303766  -0.000226  4.298242  -0.003  0.331915  0.000703  4.307303  -0.002  0.150971  0.285921  -0.001004  4.290421  -0.004
C  C28  1  0.76340535  0.70872743  0.91189429  1  0.447237  -0.00759  3.847128  -0.006  0.413345  -0.005704  4.134959  -0.005  0.440474  -0.004405  4.144064  -0.004  0.216405  0.394945  -0.006739  4.128708  -0.006
C  C29  1  0.70872850  0.76340604  0.41189205  1  0.447166  0.007599  3.847115  0.006  0.413379  0.005704  4.134855  0.005  0.440508  0.004406  4.143956  0.004  0.216374  0.394991  0.006739  4.128567  0.006
C  C30  1  0.59981094  0.62628349  0.93397918  1  -0.047142  -0.005895  3.784492  -0.006  -0.018291  -0.004368  4.002229  -0.005  -0.024397  -0.003117  4.02408  -0.003  -0.01614  -0.014163  -0.005263  3.98719  -0.006
C  C31  1  0.62628750  0.59980927  0.43397808  1  -0.047107  0.005869  3.784385  0.006  -0.018412  0.004371  4.002269  0.005  -0.024519  0.003117  4.02412  0.003  -0.016165  -0.014284  0.005263  3.987195  0.006
C  C32  1  0.49988648  0.66468562  0.03629900  1  -0.072529  0.000737  3.700701  0.001  -0.095667  0.000133  3.944639  0.0  -0.094994  2e-05  3.963298  0.0  -0.085245  -0.095753  0.000295  3.931799  0.0
C  C33  1  0.66468991  0.49988398  0.53629789  1  -0.072522  -0.000699  3.700577  -0.001  -0.095605  -0.000135  3.944562  0.0  -0.09493  -2.1e-05  3.963224  0.0  -0.085229  -0.095696  -0.000295  3.931713  0.0
C  C34  1  0.34391125  0.59020189  0.05606475  1  -0.085703  -0.000132  3.776861  0.0  -0.100804  0.000192  4.035766  0.0  -0.105963  0.00017  4.060186  0.0  -0.098074  -0.097777  0.000142  4.019924  0.0
C  C35  1  0.59020525  0.34390764  0.55606845  1  -0.085563  0.0001  3.776775  0.0  -0.100654  -0.000193  4.035645  0.0  -0.105812  -0.000169  4.060067  0.0  -0.097981  -0.097627  -0.000142  4.019796  0.0
C  C36  1  0.28539684  0.47772774  0.97436372  1  -0.05735  0.000437  3.752322  0.0  -0.077573  0.000248  4.010459  0.0  -0.078254  0.000152  4.032605  0.0  -0.090163  -0.077052  0.000358  3.995797  0.0
C  C37  1  0.47772999  0.28539326  0.47436774  1  -0.057556  -0.000406  3.752505  0.0  -0.077787  -0.000248  4.010657  0.0  -0.07847  -0.000153  4.032806  0.0  -0.090221  -0.077267  -0.000359  3.995982  0.0
C  C38  1  0.38480681  0.43867054  0.87262361  1  -0.084652  6.4e-05  3.781712  0.0  -0.09503  2.4e-05  4.032146  0.0  -0.099703  3e-06  4.056075  0.0  -0.097181  -0.09178  -4e-06  4.01575  0.0
C  C39  1  0.43866963  0.38480143  0.37262733  1  -0.084568  -8.6e-05  3.78167  0.0  -0.094922  -2.3e-05  4.03205  0.0  -0.099593  -3e-06  4.055979  0.0  -0.097225  -0.091679  4e-06  4.015651  0.0
C  C40  1  0.54155073  0.51098539  0.85308074  1  -0.081616  -0.001021  3.735405  -0.001  -0.105602  -0.00083  3.980325  -0.001  -0.10496  -0.000571  4.000706  -0.001  -0.086701  -0.10579  -0.001003  3.966304  -0.001
C  C41  1  0.51098621  0.54154582  0.35307964  1  -0.081673  0.001053  3.735201  0.001  -0.105606  0.000826  3.980177  0.001  -0.104966  0.000571  4.000558  0.001  -0.086658  -0.105791  0.001003  3.96614  0.001
C  C42  1  0.10973555  0.60347053  0.63289501  1  -0.373557  -0.009248  3.681094  -0.011  -0.453523  -0.00447  3.915919  -0.005  -0.45712  -0.003026  3.920864  -0.004  -0.23916  -0.450511  -0.005493  3.912631  -0.006
C  C43  1  0.60347904  0.10973585  0.13288801  1  -0.373509  0.009254  3.681206  0.011  -0.453544  0.004471  3.916053  0.005  -0.457153  0.003027  3.92099  0.004  -0.239161  -0.45053  0.005493  3.912771  0.006
C  C44  1  0.12167049  0.72570659  0.72979976  1  0.238138  0.020387  3.646408  0.02  0.234331  0.004589  3.907363  0.006  0.246166  0.007492  3.922084  0.009  0.139321  0.22623  0.002348  3.898332  0.003
C  C45  1  0.72571682  0.12167080  0.22979306  1  0.237956  -0.020391  3.646772  -0.02  0.234315  -0.004586  3.907477  -0.006  0.246154  -0.007496  3.922197  -0.009  0.139273  0.226211  -0.002347  3.898433  -0.003
C  C46  1  0.26862455  0.82792553  0.74649551  1  0.159956  -0.002658  3.762465  -0.003  0.1609  -0.002432  4.00008  -0.002  0.168561  -0.001429  4.021764  -0.001  0.118117  0.156076  -0.003125  3.985888  -0.003
C  C47  1  0.82793610  0.26862334  0.24648871  1  0.160179  0.002644  3.76246  0.003  0.161115  0.002432  3.999998  0.002  0.168775  0.001429  4.021681  0.001  0.118182  0.156294  0.003125  3.985796  0.003
C  C48  1  0.41005997  0.83422616  0.66833010  1  -0.120585  0.000198  3.665523  0.0  -0.138099  -0.001116  3.905374  -0.001  -0.144528  -0.000697  3.924275  -0.001  -0.075844  -0.134226  -0.001515  3.893055  -0.001
C  C49  1  0.83423873  0.41006202  0.16832182  1  -0.120654  -0.000182  3.665361  0.0  -0.13824  0.001116  3.905293  0.001  -0.144666  0.000698  3.924173  0.001  -0.075841  -0.134369  0.001515  3.892974  0.001
C  C50  1  0.54615746  0.93037024  0.69723128  1  0.006663  0.004859  3.680139  0.004  -0.010384  0.002177  3.929628  0.002  -0.004601  0.002241  3.944366  0.002  -0.063778  -0.01414  0.002153  3.920201  0.002
C  C51  1  0.93037699  0.54615854  0.19722396  1  0.006669  -0.004879  3.680028  -0.004  -0.010332  -0.002176  3.92954  -0.002  -0.004564  -0.002241  3.944324  -0.002  -0.063845  -0.014079  -0.002153  3.920107  -0.002
C  C52  1  0.53702703  0.02164950  0.80199428  1  -0.114952  -0.00405  3.706048  -0.005  -0.12912  -0.002921  3.957571  -0.004  -0.135399  -0.002128  3.975803  -0.003  -0.084905  -0.12538  -0.003596  3.945813  -0.004
C  C53  1  0.02165496  0.53703248  0.30199033  1  -0.114988  0.004066  3.705934  0.005  -0.129131  0.002922  3.957454  0.004  -0.135415  0.002128  3.975685  0.003  -0.084847  -0.125391  0.003597  3.945691  0.004
C  C54  1  0.39099599  0.01351990  0.87455372  1  0.143311  0.005372  3.700019  0.006  0.113229  0.000832  3.957581  0.002  0.123482  0.001898  3.976891  0.003  0.055419  0.106717  4.8e-05  3.94535  0.002
C  C55  1  0.01352114  0.39099843  0.37455221  1  0.143386  -0.005383  3.700086  -0.006  0.113313  -0.000833  3.957657  -0.002  0.123574  -0.001899  3.976962  -0.003  0.055368  0.106801  -4.9e-05  3.945421  -0.002
S  S56  1  0.95648895  0.20209279  0.83113726  1  -0.326556  0.003743  2.11643  0.003  -0.306496  0.001108  2.427229  0.0  -0.321907  0.000526  2.4141  0.0  -0.128599  -0.295064  0.001541  2.43512  0.001
S  S57  1  0.20207865  0.95649288  0.33111790  1  -0.326642  -0.003751  2.116231  -0.003  -0.306627  -0.001112  2.427088  0.0  -0.322035  -0.000527  2.413956  0.0  -0.128569  -0.295182  -0.001546  2.43496  -0.001
N  N58  1  0.98381040  0.09694621  0.59286396  1  -0.538051  0.03458  3.027454  0.039  -0.504898  0.027646  3.333037  0.032  -0.531737  0.026382  3.327757  0.031  -0.435164  -0.48867  0.027541  3.336544  0.03
N  N59  1  0.09692063  0.98383421  0.09285112  1  -0.538537  -0.034585  3.027823  -0.039  -0.505396  -0.027649  3.333411  -0.032  -0.532238  -0.026382  3.328117  -0.031  -0.435268  -0.489162  -0.027544  3.336942  -0.031
N  N60  1  0.85569024  0.66671095  0.81399227  1  -0.315264  -0.045595  2.95067  -0.045  -0.304935  -0.020824  3.251775  -0.02  -0.330366  -0.010719  3.27856  -0.01  -0.235489  -0.286129  -0.029618  3.233481  -0.028
N  N61  1  0.66671316  0.85569267  0.31399043  1  -0.315184  0.045592  2.950562  0.045  -0.304859  0.020825  3.251634  0.02  -0.33029  0.010719  3.278419  0.01  -0.235451  -0.286069  0.029623  3.233335  0.028
N  N62  1  0.00116033  0.74977461  0.81097394  1  -0.170561  -0.148234  3.437815  -0.181  -0.149448  -0.092496  3.764894  -0.121  -0.177162  -0.07554  3.794084  -0.104  -0.246787  -0.135678  -0.101036  3.748881  -0.128
N  N63  1  0.74977796  0.00116467  0.31097047  1  -0.170495  0.148247  3.437873  0.181  -0.149442  0.092499  3.764891  0.121  -0.177152  0.075549  3.794072  0.104  -0.246734  -0.135672  0.101045  3.748866  0.128
N  N64  1  0.26205750  0.91891846  0.84798502  1  -0.335449  -0.086966  3.378479  -0.105  -0.28878  -0.06881  3.666592  -0.089  -0.323061  -0.056789  3.694524  -0.077  -0.342045  -0.269145  -0.075468  3.650457  -0.094
N  N65  1  0.91892377  0.26205957  0.34797948  1  -0.335555  0.086982  3.378722  0.105  -0.288869  0.068813  3.666817  0.089  -0.323145  0.056791  3.694747  0.077  -0.34202  -0.269247  0.075471  3.650681  0.094
O  O66  1  0.81006538  0.81691258  0.98792520  1  -0.560066  -0.078201  2.074039  -0.1  -0.517938  -0.059923  2.347014  -0.084  -0.55936  -0.049321  2.343016  -0.073  -0.310973  -0.491993  -0.065057  2.350476  -0.088
O  O67  1  0.81691657  0.81006591  0.48792488  1  -0.560083  0.078198  2.074068  0.1  -0.517955  0.059922  2.346981  0.084  -0.559368  0.049322  2.342974  0.073  -0.310985  -0.492025  0.065058  2.350448  0.088
