# generated using pymatgen
data_CaH32C30(NO3)2
_symmetry_space_group_name_H-M   'P 1'
_cell_length_a   7.59202525
_cell_length_b   10.22578044
_cell_length_c   18.24364144
_cell_angle_alpha   94.28933040
_cell_angle_beta   91.74545955
_cell_angle_gamma   104.79368021
_symmetry_Int_Tables_number   1
_chemical_formula_structural   CaH32C30(NO3)2
_chemical_formula_sum   'Ca2 H64 C60 N4 O12'
_cell_volume   1363.74400397
_cell_formula_units_Z   2
loop_
 _symmetry_equiv_pos_site_id
 _symmetry_equiv_pos_as_xyz
  1  'x, y, z'
loop_
 _atom_site_type_symbol
 _atom_site_label
 _atom_site_symmetry_multiplicity
 _atom_site_fract_x
 _atom_site_fract_y
 _atom_site_fract_z
 _atom_site_occupancy
 _atom_site_hle17_bader_spin_density
 _atom_site_hle17_ddec_charge
 _atom_site_hle17_ddec_spin_density
 _atom_site_hle17_ddec_sum_bond_order
 _atom_site_hle17_magmom
 _atom_site_hse06_10hf_bader_spin_density
 _atom_site_hse06_10hf_ddec_charge
 _atom_site_hse06_10hf_ddec_spin_density
 _atom_site_hse06_10hf_ddec_sum_bond_order
 _atom_site_hse06_10hf_magmom
 _atom_site_hse06_bader_spin_density
 _atom_site_hse06_ddec_charge
 _atom_site_hse06_ddec_spin_density
 _atom_site_hse06_ddec_sum_bond_order
 _atom_site_hse06_magmom
 _atom_site_pbe_bader_spin_density
 _atom_site_pbe_cm5_charge
 _atom_site_pbe_ddec_charge
 _atom_site_pbe_ddec_spin_density
 _atom_site_pbe_ddec_sum_bond_order
 _atom_site_pbe_magmom
Ca  Ca0  1  0.68083856  0.39792961  0.52073105  1  0  1.570428  0  1.077211  0  0  1.439278  0  1.428405  0  0  1.483791  0  1.380727  0  0  0.887052  1.405593  0  1.462634  0
Ca  Ca1  1  0.31914201  0.60208381  0.47926702  1  0  1.570316  0  1.0774  0  0  1.439078  0  1.428788  0  0  1.483599  0  1.381105  0  0  0.887003  1.405389  0  1.463009  0
H  H2  1  0.33738561  0.28089339  0.43985913  1  0  0.426715  0  0.878698  0  0  0.390906  0  0.951044  0  0  0.402034  0  0.934811  0  0  0.30429  0.383008  0  0.962549  0
H  H3  1  0.66257410  0.71910996  0.56014141  1  0  0.426964  0  0.878414  0  0  0.391126  0  0.950788  0  0  0.402255  0  0.934555  0  0  0.304335  0.383222  0  0.962304  0
H  H4  1  0.36591383  0.14016798  0.46060998  1  0  0.430618  0  0.818501  0  0  0.41827  0  0.863927  0  0  0.425986  0  0.852916  0  0  0.333209  0.412647  0  0.871939  0
H  H5  1  0.63407357  0.85983558  0.53937938  1  0  0.430605  0  0.81839  0  0  0.418257  0  0.863919  0  0  0.425973  0  0.852904  0  0  0.333148  0.412633  0  0.87184  0
H  H6  1  0.89639056  0.21006088  0.59007927  1  0  0.432081  0  0.817493  0  0  0.41326  0  0.876276  0  0  0.420686  0  0.866452  0  0  0.329385  0.408139  0  0.881689  0
H  H7  1  0.10362282  0.78995220  0.40991643  1  0  0.431972  0  0.817569  0  0  0.413164  0  0.876322  0  0  0.420591  0  0.866567  0  0  0.329338  0.408036  0  0.881743  0
H  H8  1  0.72859266  0.21958927  0.63490213  1  0  0.429859  0  0.838765  0  0  0.404406  0  0.905247  0  0  0.413149  0  0.89238  0  0  0.319657  0.398206  0  0.914352  0
H  H9  1  0.27142345  0.78042042  0.36509889  1  0  0.429924  0  0.838864  0  0  0.404445  0  0.905249  0  0  0.41319  0  0.892379  0  0  0.319636  0.398231  0  0.91437  0
H  H10  1  0.73613513  0.57258582  0.12278798  1  0  0.091344  0  0.996026  0  0  0.102583  0  1.058478  0  0  0.105681  0  1.057476  0  0  0.09702  0.100386  0  1.059306  0
H  H11  1  0.26387291  0.42739493  0.87722060  1  0  0.091292  0  0.995848  0  0  0.102548  0  1.058265  0  0  0.105638  0  1.057289  0  0  0.096985  0.100351  0  1.059116  0
H  H12  1  0.02152810  0.51129379  0.15206856  1  0  0.081944  0  0.977834  0  0  0.093131  0  1.039325  0  0  0.094735  0  1.03965  0  0  0.098764  0.091905  0  1.03919  0
H  H13  1  0.97849724  0.48872255  0.84795873  1  0  0.082224  0  0.977895  0  0  0.093291  0  1.03951  0  0  0.094884  0  1.03983  0  0  0.098786  0.092066  0  1.039369  0
H  H14  1  0.11399368  0.48966432  0.28246607  1  0  0.097233  0  0.970439  0  0  0.101112  0  1.042588  0  0  0.105166  0  1.041098  0  0  0.097761  0.098205  0  1.043854  0
H  H15  1  0.88601988  0.51038755  0.71756970  1  0  0.097377  0  0.970428  0  0  0.101219  0  1.04257  0  0  0.105276  0  1.041075  0  0  0.097841  0.098274  0  1.043878  0
H  H16  1  0.90367794  0.51996292  0.38159839  1  0  0.087752  0  0.990406  0  0  0.094777  0  1.060291  0  0  0.098535  0  1.05658  0  0  0.111813  0.092017  0  1.062976  0
H  H17  1  0.09629849  0.48007795  0.61842316  1  0  0.087587  0  0.990041  0  0  0.094476  0  1.060114  0  0  0.098188  0  1.05645  0  0  0.111693  0.091718  0  1.062799  0
H  H18  1  0.44047250  0.64419918  0.26836050  1  0  0.284516  0  0.967125  0  0  0.26677  0  1.031151  0  0  0.275033  0  1.024679  0  0  0.300665  0.260971  0  1.035604  0
H  H19  1  0.55949398  0.35578702  0.73163364  1  0  0.28457  0  0.967056  0  0  0.266831  0  1.031099  0  0  0.275096  0  1.024623  0  0  0.30066  0.26103  0  1.035553  0
H  H20  1  0.11213287  0.63154879  0.97652745  1  0  0.088349  0  0.970567  0  0  0.100005  0  1.033971  0  0  0.102336  0  1.033981  0  0  0.094606  0.098364  0  1.034046  0
H  H21  1  0.88786621  0.36843294  0.02346517  1  0  0.088431  0  0.970723  0  0  0.099966  0  1.034267  0  0  0.102297  0  1.034279  0  0  0.094564  0.098325  0  1.034343  0
H  H22  1  0.27493225  0.45094074  0.98668140  1  0  0.073919  0  0.984034  0  0  0.087404  0  1.044737  0  0  0.089813  0  1.043351  0  0  0.093675  0.085743  0  1.045562  0
H  H23  1  0.72510130  0.54905567  0.01331467  1  0  0.073823  0  0.98426  0  0  0.087401  0  1.04486  0  0  0.089813  0  1.04347  0  0  0.093691  0.085738  0  1.045683  0
H  H24  1  0.45600145  0.44348998  0.10064419  1  0  0.101374  0  0.978736  0  0  0.112386  0  1.040562  0  0  0.11462  0  1.041161  0  0  0.101496  0.110601  0  1.040666  0
H  H25  1  0.54403285  0.55650846  0.89935200  1  0  0.100999  0  0.979096  0  0  0.112011  0  1.040955  0  0  0.114244  0  1.041558  0  0  0.101318  0.110228  0  1.041057  0
H  H26  1  0.34566057  0.93809649  0.19158303  1  0  0.104077  0  0.990597  0  0  0.124532  0  1.05415  0  0  0.124516  0  1.057003  0  0  0.089643  0.12458  0  1.052145  0
H  H27  1  0.65436262  0.06190060  0.80840309  1  0  0.104051  0  0.990663  0  0  0.124524  0  1.05419  0  0  0.12448  0  1.057073  0  0  0.089614  0.124574  0  1.052178  0
H  H28  1  0.45177032  0.84568413  0.24808219  1  0  0.103921  0  0.975717  0  0  0.122437  0  1.041534  0  0  0.123978  0  1.041144  0  0  0.090719  0.121231  0  1.042097  0
H  H29  1  0.54825433  0.15431678  0.75190855  1  0  0.103943  0  0.975672  0  0  0.122383  0  1.041606  0  0  0.123921  0  1.04121  0  0  0.09071  0.121181  0  1.042163  0
H  H30  1  0.20922971  0.81495836  0.24327177  1  0  0.092431  0  0.960353  0  0  0.113582  0  1.026812  0  0  0.113986  0  1.027607  0  0  0.085602  0.113454  0  1.025983  0
H  H31  1  0.79079550  0.18504056  0.75671777  1  0  0.092299  0  0.960319  0  0  0.113455  0  1.026825  0  0  0.11386  0  1.027617  0  0  0.085534  0.113325  0  1.026002  0
H  H32  1  0.98835817  0.81496459  0.11720514  1  0  0.107244  0  0.940108  0  0  0.131657  0  0.997348  0  0  0.132666  0  0.997638  0  0  0.090867  0.131201  0  0.996736  0
H  H33  1  0.01166925  0.18502606  0.88278559  1  0  0.107185  0  0.94016  0  0  0.131547  0  0.997468  0  0  0.132555  0  0.997759  0  0  0.090809  0.13109  0  0.996857  0
H  H34  1  0.04135167  0.83173800  0.02366725  1  0  0.097209  0  0.977388  0  0  0.117869  0  1.043245  0  0  0.119251  0  1.042727  0  0  0.086277  0.11684  0  1.043627  0
H  H35  1  0.95866992  0.16824760  0.97632367  1  0  0.097226  0  0.977342  0  0  0.117889  0  1.043186  0  0  0.119275  0  1.042655  0  0  0.086299  0.116859  0  1.043569  0
H  H36  1  0.18474738  0.93810388  0.09520623  1  0  0.100013  0  1.000427  0  0  0.120728  0  1.063783  0  0  0.121466  0  1.065166  0  0  0.087778  0.119812  0  1.063474  0
H  H37  1  0.81527891  0.06188374  0.90478376  1  0  0.100011  0  1.000409  0  0  0.120726  0  1.06376  0  0  0.121465  0  1.065142  0  0  0.087785  0.119809  0  1.063451  0
H  H38  1  0.07633026  0.99888420  0.22004412  1  0  0.093354  0  1.00185  0  0  0.103206  0  1.067095  0  0  0.106022  0  1.06712  0  0  0.098328  0.101177  0  1.067229  0
H  H39  1  0.92367828  0.00111219  0.77995878  1  0  0.093397  0  1.001828  0  0  0.103234  0  1.067084  0  0  0.106057  0  1.067101  0  0  0.098353  0.101206  0  1.067213  0
H  H40  1  0.81028306  0.82791821  0.25685566  1  0  0.081874  0  0.982506  0  0  0.090919  0  1.047302  0  0  0.0932  0  1.046367  0  0  0.094636  0.089096  0  1.048158  0
H  H41  1  0.18973653  0.17206893  0.74314519  1  0  0.081891  0  0.98245  0  0  0.090891  0  1.047325  0  0  0.093172  0  1.046388  0  0  0.094616  0.089053  0  1.048194  0
H  H42  1  0.63963132  0.87801643  0.36614498  1  0  0.091605  0  0.981091  0  0  0.099114  0  1.047085  0  0  0.103056  0  1.0453  0  0  0.093803  0.096292  0  1.048528  0
H  H43  1  0.36037666  0.12196783  0.63385557  1  0  0.091573  0  0.981213  0  0  0.099101  0  1.047197  0  0  0.103054  0  1.045405  0  0  0.093789  0.09628  0  1.048645  0
H  H44  1  0.74384728  0.10632939  0.43666189  1  0  0.090381  0  0.96422  0  0  0.101939  0  1.024325  0  0  0.105406  0  1.021204  0  0  0.104979  0.099362  0  1.026689  0
H  H45  1  0.25614448  0.89365744  0.56333313  1  0  0.090355  0  0.964168  0  0  0.101888  0  1.024312  0  0  0.105342  0  1.021206  0  0  0.104946  0.099279  0  1.026708  0
H  H46  1  0.26622390  0.32222632  0.32568633  1  0  0.284369  0  0.938791  0  0  0.269242  0  0.998261  0  0  0.276809  0  0.992408  0  0  0.306528  0.263862  0  1.002439  0
H  H47  1  0.73376583  0.67777277  0.67430938  1  0  0.284425  0  0.938744  0  0  0.269255  0  0.998266  0  0  0.276821  0  0.992421  0  0  0.306533  0.263874  0  1.002442  0
H  H48  1  0.68510834  0.15656866  0.09174535  1  0  0.086436  0  0.962748  0  0  0.101262  0  1.020343  0  0  0.1037  0  1.019896  0  0  0.095106  0.099482  0  1.020752  0
H  H49  1  0.31489761  0.84343495  0.90825739  1  0  0.086437  0  0.962727  0  0  0.101272  0  1.020316  0  0  0.10371  0  1.019869  0  0  0.095086  0.099492  0  1.020724  0
H  H50  1  0.77321626  0.19472804  0.22633412  1  0  0.082188  0  0.981445  0  0  0.092051  0  1.045531  0  0  0.093352  0  1.046972  0  0  0.094687  0.091086  0  1.04462  0
H  H51  1  0.22678445  0.80528272  0.77367007  1  0  0.082262  0  0.981159  0  0  0.092108  0  1.045266  0  0  0.093409  0  1.046708  0  0  0.094708  0.091145  0  1.044358  0
H  H52  1  0.54712369  0.23430663  0.31541658  1  0  0.106493  0  0.953655  0  0  0.115717  0  1.018598  0  0  0.118887  0  1.017045  0  0  0.104062  0.113573  0  1.019537  0
H  H53  1  0.45287179  0.76569719  0.68458495  1  0  0.106493  0  0.953637  0  0  0.115695  0  1.0186  0  0  0.118864  0  1.017049  0  0  0.104067  0.11355  0  1.019541  0
H  H54  1  0.03749628  0.26364071  0.17121264  1  0  0.112597  0  0.969714  0  0  0.132037  0  1.034061  0  0  0.133602  0  1.034065  0  0  0.09296  0.130917  0  1.034132  0
H  H55  1  0.96249925  0.73634917  0.82878151  1  0  0.112598  0  0.969756  0  0  0.131984  0  1.034197  0  0  0.133549  0  1.034199  0  0  0.092915  0.130862  0  1.034271  0
H  H56  1  0.00450716  0.10878208  0.11552264  1  0  0.099452  0  0.946322  0  0  0.123581  0  1.007402  0  0  0.124397  0  1.007398  0  0  0.089589  0.123057  0  1.007364  0
H  H57  1  0.99549788  0.89120854  0.88447441  1  0  0.099573  0  0.946308  0  0  0.123665  0  1.007418  0  0  0.12448  0  1.007415  0  0  0.089608  0.12314  0  1.00738  0
H  H58  1  0.10787178  0.26470041  0.07934580  1  0  0.09537  0  0.979845  0  0  0.117798  0  1.045761  0  0  0.118347  0  1.046521  0  0  0.086975  0.117249  0  1.045528  0
H  H59  1  0.89213814  0.73528918  0.92065015  1  0  0.095412  0  0.979796  0  0  0.117836  0  1.045727  0  0  0.118384  0  1.046488  0  0  0.086999  0.117296  0  1.045482  0
H  H60  1  0.47101189  0.12408206  0.99323043  1  0  0.109089  0  0.955562  0  0  0.131444  0  1.01402  0  0  0.132555  0  1.014788  0  0  0.090604  0.130564  0  1.013572  0
H  H61  1  0.52899425  0.87591851  0.00677159  1  0  0.109131  0  0.955568  0  0  0.131451  0  1.014081  0  0  0.132538  0  1.014874  0  0  0.090594  0.13057  0  1.013635  0
H  H62  1  0.35940554  0.25533934  0.00219411  1  0  0.103562  0  0.961336  0  0  0.126223  0  1.02434  0  0  0.126593  0  1.025684  0  0  0.089489  0.125974  0  1.023278  0
H  H63  1  0.64059606  0.74465608  0.99780975  1  0  0.103543  0  0.961289  0  0  0.12625  0  1.024244  0  0  0.126621  0  1.025587  0  0  0.089502  0.126  0  1.023183  0
H  H64  1  0.23401217  0.08603308  0.00917643  1  0  0.097044  0  0.965424  0  0  0.119842  0  1.026628  0  0  0.120814  0  1.026684  0  0  0.08657  0.119158  0  1.02653  0
H  H65  1  0.76599605  0.91396959  0.99082409  1  0  0.097042  0  0.965366  0  0  0.119838  0  1.026579  0  0  0.12081  0  1.026634  0  0  0.086559  0.119153  0  1.026483  0
C  C66  1  0.58454861  0.57657116  0.37055054  1  0  0.681119  0  3.885281  0  0  0.632598  0  4.172913  0  0  0.669368  0  4.162675  0  0  0.214737  0.607579  0  4.179105  0
C  C67  1  0.41541617  0.42344928  0.62945434  1  0  0.681408  0  3.885974  0  0  0.632925  0  4.173665  0  0  0.669701  0  4.163418  0  0  0.214826  0.607903  0  4.179868  0
C  C68  1  0.70300579  0.56234795  0.30905673  1  0  -0.206493  0  3.741058  0  0  -0.185332  0  3.981352  0  0  -0.20012  0  4.004303  0  0  -0.034198  -0.17595  0  3.966045  0
C  C69  1  0.29698363  0.43766071  0.69095160  1  0  -0.206349  0  3.741394  0  0  -0.185464  0  3.981853  0  0  -0.200262  0  4.004783  0  0  -0.034072  -0.176077  0  3.966557  0
C  C70  1  0.65306667  0.57913573  0.23472281  1  0  0.265057  0  3.791179  0  0  0.247403  0  4.041648  0  0  0.261578  0  4.060373  0  0  0.111506  0.238158  0  4.028749  0
C  C71  1  0.34693158  0.42086484  0.76528131  1  0  0.264893  0  3.791251  0  0  0.247565  0  4.041464  0  0  0.26176  0  4.060164  0  0  0.111515  0.238311  0  4.028576  0
C  C72  1  0.77175669  0.55928598  0.17934972  1  0  -0.197801  0  3.738101  0  0  -0.212032  0  3.988544  0  0  -0.221149  0  4.008724  0  0  -0.10805  -0.206107  0  3.9748  0
C  C73  1  0.22824655  0.44071728  0.82066010  1  0  -0.197658  0  3.7377  0  0  -0.211937  0  3.988023  0  0  -0.22106  0  4.008187  0  0  -0.107986  -0.206027  0  3.974288  0
C  C74  1  0.93335657  0.52600858  0.19627700  1  0  -0.022226  0  3.784194  0  0  -0.036567  0  4.031171  0  0  -0.031428  0  4.050022  0  0  -0.085494  -0.039425  0  4.017906  0
C  C75  1  0.06665462  0.47401937  0.80374749  1  0  -0.022775  0  3.784455  0  0  -0.037015  0  4.031448  0  0  -0.031857  0  4.050287  0  0  -0.08554  -0.039864  0  4.018165  0
C  C76  1  0.98559556  0.51373373  0.26932633  1  0  -0.126796  0  3.78661  0  0  -0.143669  0  4.053504  0  0  -0.151066  0  4.07467  0  0  -0.115241  -0.138854  0  4.038773  0
C  C77  1  0.01439482  0.48630554  0.73070242  1  0  -0.126505  0  3.786864  0  0  -0.143298  0  4.053581  0  0  -0.150696  0  4.074728  0  0  -0.115165  -0.13845  0  4.038859  0
C  C78  1  0.86929757  0.53121182  0.32442950  1  0  -0.062253  0  3.794127  0  0  -0.088135  0  4.048138  0  0  -0.083402  0  4.067092  0  0  -0.086068  -0.090739  0  4.034664  0
C  C79  1  0.13068532  0.46881444  0.67559566  1  0  -0.062334  0  3.79396  0  0  -0.088044  0  4.048086  0  0  -0.083287  0  4.067098  0  0  -0.086169  -0.09065  0  4.034594  0
C  C80  1  0.40742004  0.62615148  0.15340517  1  0  0.190459  0  3.798293  0  0  0.181164  0  4.043259  0  0  0.188584  0  4.064997  0  0  0.090986  0.175849  0  4.028731  0
C  C81  1  0.59258826  0.37384439  0.84658838  1  0  0.190076  0  3.798436  0  0  0.180972  0  4.043307  0  0  0.188398  0  4.065033  0  0  0.090944  0.175652  0  4.028779  0
C  C82  1  0.31815235  0.73106778  0.14805506  1  0  -0.006743  0  3.684616  0  0  0.015513  0  3.913436  0  0  0.012382  0  3.937469  0  0  -0.016731  0.017656  0  3.897171  0
C  C83  1  0.68186517  0.26892813  0.85193531  1  0  -0.006335  0  3.684655  0  0  0.015764  0  3.913538  0  0  0.012653  0  3.937539  0  0  -0.016669  0.017907  0  3.897274  0
C  C84  1  0.20950443  0.73134432  0.08401650  1  0  0.09381  0  3.755464  0  0  0.1158  0  3.988885  0  0  0.116592  0  4.013544  0  0  -0.014413  0.115285  0  3.972115  0
C  C85  1  0.79050841  0.26864263  0.91597056  1  0  0.093289  0  3.755501  0  0  0.115387  0  3.988812  0  0  0.116169  0  4.013473  0  0  -0.014543  0.114876  0  3.972037  0
C  C86  1  0.19659297  0.63135625  0.02590250  1  0  -0.156266  0  3.781663  0  0  -0.177556  0  4.034547  0  0  -0.182035  0  4.057381  0  0  -0.107266  -0.174455  0  4.018889  0
C  C87  1  0.80342538  0.36863117  0.97409342  1  0  -0.156309  0  3.781451  0  0  -0.177551  0  4.034374  0  0  -0.18203  0  4.057215  0  0  -0.107266  -0.174454  0  4.01872  0
C  C88  1  0.28809599  0.53009082  0.03141180  1  0  -0.064813  0  3.847603  0  0  -0.082888  0  4.109376  0  0  -0.082926  0  4.130285  0  0  -0.101643  -0.082301  0  4.094584  0
C  C89  1  0.71191842  0.46989663  0.96858463  1  0  -0.064633  0  3.847361  0  0  -0.082753  0  4.109113  0  0  -0.082792  0  4.130028  0  0  -0.101577  -0.082163  0  4.094318  0
C  C90  1  0.39240796  0.52642483  0.09476276  1  0  -0.178213  0  3.775586  0  0  -0.200471  0  4.033886  0  0  -0.204978  0  4.054444  0  0  -0.105778  -0.197739  0  4.020784  0
C  C91  1  0.60762090  0.47356961  0.90523314  1  0  -0.177591  0  3.775441  0  0  -0.199887  0  4.033689  0  0  -0.204389  0  4.05423  0  0  -0.105578  -0.197158  0  4.020588  0
C  C92  1  0.33239548  0.83721277  0.21096867  1  0  -0.319232  0  3.734344  0  0  -0.397846  0  3.966719  0  0  -0.399044  0  3.9768  0  0  -0.24449  -0.39704  0  3.959908  0
C  C93  1  0.66762578  0.16278615  0.78902192  1  0  -0.319212  0  3.734254  0  0  -0.397743  0  3.966623  0  0  -0.398919  0  3.976716  0  0  -0.244447  -0.39694  0  3.959815  0
C  C94  1  0.10096164  0.83466735  0.07943472  1  0  -0.329303  0  3.723847  0  0  -0.40885  0  3.955871  0  0  -0.410682  0  3.965186  0  0  -0.24194  -0.407163  0  3.949496  0
C  C95  1  0.89906372  0.16532134  0.92055477  1  0  -0.329076  0  3.723662  0  0  -0.408571  0  3.95558  0  0  -0.41041  0  3.964909  0  0  -0.241842  -0.406886  0  3.949207  0
C  C96  1  0.02624299  0.30889374  0.41797815  1  0  0.69945  0  3.883808  0  0  0.647057  0  4.178184  0  0  0.683563  0  4.167506  0  0  0.226976  0.622098  0  4.184742  0
C  C97  1  0.97372052  0.69110571  0.58201782  1  0  0.699126  0  3.883947  0  0  0.646651  0  4.17839  0  0  0.683158  0  4.167706  0  0  0.226704  0.621695  0  4.184941  0
C  C98  1  0.96914838  0.17964403  0.37003496  1  0  -0.215708  0  3.737136  0  0  -0.195514  0  3.979431  0  0  -0.209837  0  4.002271  0  0  -0.03905  -0.18647  0  3.964355  0
C  C99  1  0.03082783  0.82034701  0.62996177  1  0  -0.215895  0  3.737433  0  0  -0.195622  0  3.979588  0  0  -0.20994  0  4.002418  0  0  -0.039165  -0.186571  0  3.964498  0
C  C100  1  0.06567140  0.15097887  0.30708904  1  0  0.260919  0  3.789504  0  0  0.243909  0  4.041095  0  0  0.258014  0  4.059302  0  0  0.108376  0.23448  0  4.028716  0
C  C101  1  0.93432486  0.84901292  0.69290742  1  0  0.261035  0  3.789125  0  0  0.244082  0  4.040557  0  0  0.258185  0  4.05876  0  0  0.108344  0.234651  0  4.028181  0
C  C102  1  0.00276686  0.02247547  0.26736579  1  0  -0.205445  0  3.756673  0  0  -0.218961  0  4.004864  0  0  -0.227363  0  4.024422  0  0  -0.112585  -0.213413  0  3.991634  0
C  C103  1  0.99723484  0.97752741  0.73263247  1  0  -0.205544  0  3.756319  0  0  -0.219064  0  4.004485  0  0  -0.227468  0  4.024043  0  0  -0.112589  -0.213512  0  3.991249  0
C  C104  1  0.85283466  0.92639161  0.28851304  1  0  -0.033481  0  3.797353  0  0  -0.04906  0  4.048861  0  0  -0.043926  0  4.06622  0  0  -0.094065  -0.052253  0  4.037071  0
C  C105  1  0.14716960  0.07360395  0.71148757  1  0  -0.033369  0  3.797125  0  0  -0.048949  0  4.048663  0  0  -0.043816  0  4.066025  0  0  -0.094023  -0.052129  0  4.036888  0
C  C106  1  0.75685662  0.95432294  0.34974079  1  0  -0.135504  0  3.822526  0  0  -0.15107  0  4.082086  0  0  -0.158335  0  4.103516  0  0  -0.121862  -0.146539  0  4.067924  0
C  C107  1  0.24314892  0.04566540  0.65026052  1  0  -0.135487  0  3.822408  0  0  -0.151069  0  4.08195  0  0  -0.158342  0  4.10337  0  0  -0.121843  -0.146539  0  4.06778  0
C  C108  1  0.81551702  0.08062185  0.38899393  1  0  -0.054885  0  3.801769  0  0  -0.077492  0  4.048486  0  0  -0.072967  0  4.067672  0  0  -0.089431  -0.08025  0  4.035658  0
C  C109  1  0.18446761  0.91936706  0.61100223  1  0  -0.054849  0  3.801643  0  0  -0.077459  0  4.048337  0  0  -0.072928  0  4.067533  0  0  -0.089377  -0.080191  0  4.035515  0
C  C110  1  0.33549931  0.21979287  0.23163623  1  0  0.175388  0  3.775003  0  0  0.167187  0  4.024557  0  0  0.173099  0  4.046662  0  0  0.083502  0.163128  0  4.009621  0
C  C111  1  0.66449768  0.78020795  0.76836350  1  0  0.175448  0  3.774866  0  0  0.167202  0  4.024437  0  0  0.173114  0  4.046536  0  0  0.083419  0.16314  0  4.009501  0
C  C112  1  0.28418752  0.20065465  0.15577033  1  0  -0.006724  0  3.697674  0  0  0.013596  0  3.932522  0  0  0.011393  0  3.955401  0  0  -0.016164  0.014653  0  3.918191  0
C  C113  1  0.71581019  0.79933392  0.84422870  1  0  -0.006746  0  3.697609  0  0  0.013637  0  3.932419  0  0  0.011437  0  3.955298  0  0  -0.016193  0.014692  0  3.91809  0
C  C114  1  0.41274490  0.17674534  0.10521830  1  0  0.078836  0  3.75168  0  0  0.101515  0  3.98782  0  0  0.101883  0  4.011794  0  0  -0.016899  0.101394  0  3.971484  0
C  C115  1  0.58725448  0.82324414  0.89478245  1  0  0.078969  0  3.75179  0  0  0.101564  0  3.988018  0  0  0.101934  0  4.011988  0  0  -0.016852  0.101444  0  3.971678  0
C  C116  1  0.58715530  0.17429002  0.13137251  1  0  -0.141278  0  3.7619  0  0  -0.162982  0  4.00964  0  0  -0.166485  0  4.031185  0  0  -0.101469  -0.160439  0  3.994422  0
C  C117  1  0.41284972  0.82570753  0.86862877  1  0  -0.141334  0  3.762048  0  0  -0.163025  0  4.009783  0  0  -0.166528  0  4.031328  0  0  -0.101456  -0.160483  0  3.994565  0
C  C118  1  0.63721835  0.19618650  0.20638707  1  0  -0.046778  0  3.809772  0  0  -0.062161  0  4.065475  0  0  -0.063293  0  4.089174  0  0  -0.095551  -0.060922  0  4.048702  0
C  C119  1  0.36278894  0.80381015  0.79361145  1  0  -0.046853  0  3.809736  0  0  -0.062205  0  4.065407  0  0  -0.063335  0  4.089105  0  0  -0.095536  -0.060974  0  4.048642  0
C  C120  1  0.51166218  0.21885983  0.25647266  1  0  -0.154089  0  3.747338  0  0  -0.17908  0  4.006058  0  0  -0.18325  0  4.027323  0  0  -0.097647  -0.1759  0  3.991009  0
C  C121  1  0.48833648  0.78114190  0.74352879  1  0  -0.154052  0  3.747494  0  0  -0.179031  0  4.006231  0  0  -0.183201  0  4.027494  0  0  -0.097645  -0.175852  0  3.991185  0
C  C122  1  0.09902086  0.20986248  0.12913224  1  0  -0.320463  0  3.741233  0  0  -0.406444  0  3.981584  0  0  -0.407729  0  3.991663  0  0  -0.244205  -0.405569  0  3.975531  0
C  C123  1  0.90098288  0.79012822  0.87086370  1  0  -0.320599  0  3.741253  0  0  -0.406569  0  3.981581  0  0  -0.40785  0  3.991656  0  0  -0.244165  -0.405703  0  3.97552  0
C  C124  1  0.36652691  0.15882261  0.02351200  1  0  -0.328078  0  3.734335  0  0  -0.408772  0  3.966498  0  0  -0.41076  0  3.977161  0  0  -0.241265  -0.407148  0  3.959036  0
C  C125  1  0.63347607  0.84117305  0.97648696  1  0  -0.328176  0  3.734269  0  0  -0.408843  0  3.966446  0  0  -0.410812  0  3.977126  0  0  -0.241296  -0.407221  0  3.958984  0
N  N126  1  0.49710874  0.61900869  0.22052770  1  0  -0.422597  0  3.419689  0  0  -0.362124  0  3.654126  0  0  -0.383992  0  3.66737  0  0  -0.420202  -0.346569  0  3.64448  0
N  N127  1  0.50287752  0.38097390  0.77947141  1  0  -0.422538  0  3.419914  0  0  -0.362291  0  3.654327  0  0  -0.384177  0  3.667573  0  0  -0.420194  -0.346724  0  3.644676  0
N  N128  1  0.21412637  0.24589384  0.28533589  1  0  -0.43348  0  3.371573  0  0  -0.376422  0  3.612146  0  0  -0.397107  0  3.624236  0  0  -0.424281  -0.362038  0  3.60349  0
N  N129  1  0.78586501  0.75410607  0.71466318  1  0  -0.433663  0  3.371333  0  0  -0.376573  0  3.611885  0  0  -0.397263  0  3.623979  0  0  -0.424213  -0.362185  0  3.603227  0
O  O130  1  0.43082490  0.23339014  0.45462157  1  0  -0.861355  0  1.788584  0  0  -0.812148  0  1.963109  0  0  -0.83157  0  1.933031  0  0  -0.603748  -0.798175  0  1.984222  0
O  O131  1  0.56914499  0.76661933  0.54537670  1  0  -0.86157  0  1.788352  0  0  -0.812314  0  1.962996  0  0  -0.831736  0  1.932915  0  0  -0.603737  -0.798334  0  1.984022  0
O  O132  1  0.76754239  0.20780746  0.58492427  1  0  -0.836954  0  1.783635  0  0  -0.792615  0  1.951156  0  0  -0.81016  0  1.92478  0  0  -0.584323  -0.779926  0  1.968146  0
O  O133  1  0.23246985  0.79220960  0.41507384  1  0  -0.836915  0  1.783803  0  0  -0.79255  0  1.951181  0  0  -0.810098  0  1.92487  0  0  -0.584291  -0.779855  0  1.968195  0
O  O134  1  0.60847174  0.52928439  0.43197651  1  0  -0.753489  0  2.009205  0  0  -0.688938  0  2.26168  0  0  -0.718011  0  2.250065  0  0  -0.394116  -0.668039  0  2.268947  0
O  O135  1  0.39148662  0.47075407  0.56803755  1  0  -0.753757  0  2.009636  0  0  -0.689157  0  2.262035  0  0  -0.718228  0  2.250408  0  0  -0.394251  -0.668245  0  2.269279  0
O  O136  1  0.45535821  0.63600767  0.36221042  1  0  -0.708  0  1.993063  0  0  -0.646176  0  2.230321  0  0  -0.672604  0  2.218964  0  0  -0.366317  -0.627494  0  2.237619  0
O  O137  1  0.54459842  0.36399814  0.63778310  1  0  -0.708144  0  1.993237  0  0  -0.646263  0  2.230414  0  0  -0.672688  0  2.219056  0  0  -0.366331  -0.627582  0  2.237714  0
O  O138  1  0.91426302  0.34378759  0.46024336  1  0  -0.720798  0  2.004628  0  0  -0.663129  0  2.263991  0  0  -0.690493  0  2.250248  0  0  -0.381282  -0.643503  0  2.272801  0
O  O139  1  0.08567984  0.65620969  0.53974127  1  0  -0.720545  0  2.004459  0  0  -0.662852  0  2.263839  0  0  -0.690211  0  2.250092  0  0  -0.381107  -0.643223  0  2.272636  0
O  O140  1  0.19278544  0.38203980  0.41596958  1  0  -0.730561  0  2.020348  0  0  -0.658716  0  2.252569  0  0  -0.685855  0  2.240485  0  0  -0.35884  -0.639525  0  2.260438  0
O  O141  1  0.80718191  0.61796629  0.58403504  1  0  -0.730432  0  2.020332  0  0  -0.658518  0  2.25252  0  0  -0.685656  0  2.240437  0  0  -0.358723  -0.639338  0  2.260397  0
