# generated using pymatgen
data_HgH9C12N7O
_symmetry_space_group_name_H-M   'P 1'
_cell_length_a   14.54906163
_cell_length_b   14.54415936
_cell_length_c   16.21797634
_cell_angle_alpha   90.00027279
_cell_angle_beta   90.00003289
_cell_angle_gamma   90.00008503
_symmetry_Int_Tables_number   1
_chemical_formula_structural   HgH9C12N7O
_chemical_formula_sum   'Hg8 H72 C96 N56 O8'
_cell_volume   3431.78657171
_cell_formula_units_Z   8
loop_
 _symmetry_equiv_pos_site_id
 _symmetry_equiv_pos_as_xyz
  1  'x, y, z'
loop_
 _atom_site_type_symbol
 _atom_site_label
 _atom_site_symmetry_multiplicity
 _atom_site_fract_x
 _atom_site_fract_y
 _atom_site_fract_z
 _atom_site_occupancy
 _atom_site_pbe_bader_charge
 _atom_site_pbe_bader_spin_density
 _atom_site_pbe_cm5_charge
 _atom_site_pbe_ddec_charge
 _atom_site_pbe_ddec_spin_density
 _atom_site_pbe_ddec_sum_bond_order
 _atom_site_pbe_magmom
Hg  Hg0  1  0.85338684  0.53410003  0.43253806  1  0.927937  0  0.643521  0.547179  0  2.458634  0
Hg  Hg1  1  0.64661279  0.46589926  0.93253489  1  0.928111  0  0.643552  0.547214  0  2.458505  0
Hg  Hg2  1  0.14661225  0.03409851  0.06746290  1  0.928029  0  0.643546  0.547244  0  2.458588  0
Hg  Hg3  1  0.35338658  0.96590291  0.56746629  1  0.92815  0  0.643565  0.54727  0  2.458618  0
Hg  Hg4  1  0.14661273  0.46590273  0.56746517  1  0.928097  0  0.643544  0.547265  0  2.458635  0
Hg  Hg5  1  0.35338884  0.53409869  0.06746279  1  0.927977  0  0.643561  0.547174  0  2.458522  0
Hg  Hg6  1  0.85338870  0.96589875  0.93253601  1  0.927974  0  0.643549  0.547244  0  2.458603  0
Hg  Hg7  1  0.64661231  0.03409848  0.43253756  1  0.928091  0  0.643545  0.547201  0  2.458618  0
H  H8  1  0.83364809  0.37765451  0.73186051  1  0.09005  0  0.109533  0.112835  0  1.002711  0
H  H9  1  0.66635073  0.62234440  0.23186150  1  0.090021  0  0.109483  0.112767  0  1.002609  0
H  H10  1  0.16635458  0.87765207  0.76813844  1  0.090006  0  0.109507  0.112772  0  1.00262  0
H  H11  1  0.33365125  0.12234629  0.26814169  1  0.089866  0  0.109512  0.112807  0  1.002729  0
H  H12  1  0.16634805  0.62234757  0.26814210  1  0.089876  0  0.109506  0.112828  0  1.002561  0
H  H13  1  0.33364473  0.37765286  0.76813742  1  0.089911  0  0.109512  0.112774  0  1.002605  0
H  H14  1  0.83364981  0.12234588  0.23186171  1  0.09001  0  0.109511  0.112805  0  1.00269  0
H  H15  1  0.66635108  0.87765303  0.73186030  1  0.090019  0  0.109524  0.112844  0  1.002731  0
H  H16  1  0.70342792  0.26513153  0.71376181  1  0.099815  0  0.112528  0.110914  0  0.993695  0
H  H17  1  0.79657364  0.73486522  0.21376703  1  0.100187  0  0.11255  0.110962  0  0.993775  0
H  H18  1  0.29657665  0.76513213  0.78623605  1  0.099741  0  0.112562  0.110963  0  0.993767  0
H  H19  1  0.20342782  0.23486701  0.28623232  1  0.100113  0  0.112563  0.111003  0  0.993704  0
H  H20  1  0.29657234  0.73486848  0.28623402  1  0.099735  0  0.112546  0.110958  0  0.993731  0
H  H21  1  0.20342113  0.26513341  0.78623619  1  0.099741  0  0.112584  0.111008  0  0.993761  0
H  H22  1  0.70342774  0.23486650  0.21376471  1  0.100158  0  0.112551  0.110981  0  0.993685  0
H  H23  1  0.79657176  0.76513162  0.71376166  1  0.099825  0  0.112549  0.110983  0  0.993686  0
H  H24  1  0.62125350  0.26068534  0.57831763  1  0.121314  0  0.105111  0.114449  0  1.029566  0
H  H25  1  0.87874934  0.73931344  0.07832476  1  0.121305  0  0.10511  0.114389  0  1.029702  0
H  H26  1  0.37875106  0.76068678  0.92167959  1  0.121343  0  0.105101  0.114387  0  1.029669  0
H  H27  1  0.12124868  0.23931652  0.42167399  1  0.121207  0  0.105131  0.114392  0  1.029717  0
H  H28  1  0.37875226  0.73931536  0.42167512  1  0.121214  0  0.105132  0.114422  0  1.029744  0
H  H29  1  0.12124955  0.26068657  0.92168031  1  0.121353  0  0.105119  0.114415  0  1.029707  0
H  H30  1  0.62125127  0.23931117  0.07832178  1  0.121377  0  0.105112  0.114429  0  1.029544  0
H  H31  1  0.87874746  0.76068693  0.57831876  1  0.121332  0  0.105108  0.114455  0  1.029499  0
H  H32  1  0.67365211  0.36532089  0.46512988  1  0.089966  0  0.118263  0.089225  0  0.970299  0
H  H33  1  0.82635030  0.63468338  0.96513246  1  0.089869  0  0.118303  0.089226  0  0.970273  0
H  H34  1  0.32635022  0.86531951  0.03486941  1  0.089959  0  0.118279  0.089233  0  0.97036  0
H  H35  1  0.17364721  0.13468792  0.53486731  1  0.089721  0  0.118328  0.089194  0  0.970426  0
H  H36  1  0.32635365  0.63468531  0.53486780  1  0.089693  0  0.118309  0.089177  0  0.970424  0
H  H37  1  0.17365203  0.36531869  0.03487015  1  0.089959  0  0.118309  0.089238  0  0.970377  0
H  H38  1  0.67365073  0.13467775  0.96513197  1  0.08986  0  0.118291  0.089284  0  0.97027  0
H  H39  1  0.82634824  0.86532240  0.46513037  1  0.089981  0  0.118284  0.089255  0  0.970329  0
H  H40  1  0.92873471  0.50175511  0.67836831  1  0.148758  0  0.126173  0.111374  0  0.972243  0
H  H41  1  0.57126270  0.49824833  0.17836440  1  0.148832  0  0.126093  0.111233  0  0.972331  0
H  H42  1  0.07126603  0.00175208  0.82163274  1  0.148786  0  0.126181  0.111353  0  0.972272  0
H  H43  1  0.42873365  0.99824794  0.32163916  1  0.148847  0  0.126165  0.111388  0  0.972399  0
H  H44  1  0.07126624  0.49824903  0.32163738  1  0.148827  0  0.126152  0.111328  0  0.972419  0
H  H45  1  0.42873413  0.50175168  0.82163266  1  0.148776  0  0.126153  0.111312  0  0.972298  0
H  H46  1  0.92873905  0.99824861  0.17836617  1  0.14877  0  0.126147  0.111341  0  0.972255  0
H  H47  1  0.57126455  0.00175414  0.67836530  1  0.148746  0  0.126157  0.111401  0  0.972299  0
H  H48  1  0.06446261  0.79965751  0.40346636  1  0.125343  0  0.112336  0.126191  0  0.992739  0
H  H49  1  0.43553781  0.20034294  0.90346776  1  0.12534  0  0.112335  0.126204  0  0.992773  0
H  H50  1  0.93553688  0.29965526  0.09653265  1  0.125332  0  0.112341  0.126221  0  0.99272  0
H  H51  1  0.56446117  0.70034568  0.59653414  1  0.125305  0  0.112328  0.126201  0  0.992735  0
H  H52  1  0.93553834  0.20034593  0.59653378  1  0.125295  0  0.112328  0.126217  0  0.992711  0
H  H53  1  0.56446383  0.79965638  0.09653177  1  0.125367  0  0.112328  0.12617  0  0.992814  0
H  H54  1  0.06446064  0.70034338  0.90346688  1  0.125316  0  0.112326  0.126202  0  0.992773  0
H  H55  1  0.43553703  0.29965777  0.40346662  1  0.125337  0  0.112329  0.126203  0  0.992789  0
H  H56  1  0.19226407  0.91184704  0.42893528  1  0.123745  0  0.109364  0.081462  0  1.030562  0
H  H57  1  0.30773911  0.08815080  0.92893614  1  0.123876  0  0.109387  0.081518  0  1.03057  0
H  H58  1  0.80773765  0.41184515  0.07106482  1  0.123928  0  0.109375  0.081506  0  1.030544  0
H  H59  1  0.69225832  0.58815222  0.57106528  1  0.12392  0  0.109391  0.081487  0  1.030546  0
H  H60  1  0.80774032  0.08815297  0.57106609  1  0.123889  0  0.109363  0.081456  0  1.030563  0
H  H61  1  0.69226459  0.91184577  0.07106277  1  0.123796  0  0.109399  0.081489  0  1.030579  0
H  H62  1  0.19225987  0.58815142  0.92893409  1  0.123864  0  0.1094  0.081518  0  1.03055  0
H  H63  1  0.30773713  0.41184779  0.42893610  1  0.123909  0  0.109396  0.081538  0  1.030551  0
H  H64  1  0.23991663  0.80610284  0.66203937  1  0.077627  0  0.113551  0.083241  0  1.019459  0
H  H65  1  0.26008639  0.19389426  0.16204042  1  0.077326  0  0.113538  0.083195  0  1.019447  0
H  H66  1  0.76008457  0.30610093  0.83795989  1  0.077308  0  0.113564  0.083226  0  1.019485  0
H  H67  1  0.73991363  0.69389717  0.33796245  1  0.077367  0  0.113565  0.083235  0  1.019428  0
H  H68  1  0.76008501  0.19389579  0.33796262  1  0.077668  0  0.113546  0.083196  0  1.019495  0
H  H69  1  0.73991525  0.80610025  0.83795849  1  0.077422  0  0.113585  0.083261  0  1.019396  0
H  H70  1  0.23991501  0.69389358  0.16203902  1  0.077658  0  0.11353  0.083201  0  1.019469  0
H  H71  1  0.26008388  0.30610146  0.66203893  1  0.077641  0  0.113559  0.083232  0  1.019467  0
H  H72  1  0.11161754  0.69165677  0.64751570  1  0.10469  0  0.105974  0.112741  0  1.039561  0
H  H73  1  0.38838477  0.30834095  0.14751916  1  0.104676  0  0.105967  0.112766  0  1.039472  0
H  H74  1  0.88838142  0.19165306  0.85248307  1  0.104689  0  0.105968  0.112713  0  1.03955  0
H  H75  1  0.61161610  0.80834306  0.35248359  1  0.104692  0  0.105968  0.112761  0  1.039488  0
H  H76  1  0.88838135  0.30834324  0.35248321  1  0.104698  0  0.105983  0.112746  0  1.039515  0
H  H77  1  0.61161618  0.69165425  0.85248160  1  0.104634  0  0.105961  0.112712  0  1.039506  0
H  H78  1  0.11161747  0.80834008  0.14751830  1  0.104706  0  0.105951  0.112762  0  1.039457  0
H  H79  1  0.38838210  0.19165558  0.64751471  1  0.104693  0  0.105984  0.112732  0  1.039565  0
C  C80  1  0.82062389  0.43011715  0.60812694  1  0.488897  0  0.11097  0.194419  0  4.059401  0
C  C81  1  0.67937623  0.56988522  0.10812770  1  0.489133  0  0.110932  0.194436  0  4.059406  0
C  C82  1  0.17937749  0.93011333  0.89187224  1  0.489062  0  0.110929  0.194322  0  4.059323  0
C  C83  1  0.32062154  0.06988638  0.39187650  1  0.489003  0  0.110932  0.194412  0  4.059613  0
C  C84  1  0.17937775  0.56988630  0.39187691  1  0.489202  0  0.110911  0.194396  0  4.059609  0
C  C85  1  0.32062335  0.43011341  0.89187244  1  0.489077  0  0.110941  0.194366  0  4.059287  0
C  C86  1  0.82062552  0.06988462  0.10812791  1  0.488689  0  0.110936  0.194449  0  4.059404  0
C  C87  1  0.67937528  0.93011501  0.60812550  1  0.488756  0  0.110955  0.194398  0  4.059576  0
C  C88  1  0.79583257  0.37277333  0.67400371  1  -0.051168  0  -0.074186  -0.146035  0  3.923892  0
C  C89  1  0.70416690  0.62722734  0.17400350  1  -0.051214  0  -0.074139  -0.145943  0  3.924002  0
C  C90  1  0.20416941  0.87277125  0.82599584  1  -0.051161  0  -0.074139  -0.145874  0  3.923717  0
C  C91  1  0.29583509  0.12722742  0.32599663  1  -0.050962  0  -0.074155  -0.145972  0  3.923672  0
C  C92  1  0.20416563  0.62722875  0.32599829  1  -0.050947  0  -0.074175  -0.146054  0  3.92363  0
C  C93  1  0.29582924  0.37277130  0.82599542  1  -0.051002  0  -0.074149  -0.14587  0  3.923683  0
C  C94  1  0.79583361  0.12722669  0.17400369  1  -0.051024  0  -0.074164  -0.146009  0  3.923894  0
C  C95  1  0.70416518  0.87277397  0.67400351  1  -0.050961  0  -0.074134  -0.145982  0  3.923632  0
C  C96  1  0.72347528  0.31131215  0.66407014  1  0.053076  0  -0.059793  -0.011688  0  3.959267  0
C  C97  1  0.77652418  0.68868709  0.16407516  1  0.05271  0  -0.059827  -0.011857  0  3.959399  0
C  C98  1  0.27652730  0.81131161  0.83592792  1  0.053219  0  -0.059789  -0.011772  0  3.959321  0
C  C99  1  0.22347239  0.18869192  0.33592646  1  0.052783  0  -0.05982  -0.011825  0  3.959068  0
C  C100  1  0.27652704  0.68869061  0.33592816  1  0.053181  0  -0.059801  -0.011765  0  3.959221  0
C  C101  1  0.22347196  0.31131224  0.83592745  1  0.053164  0  -0.059786  -0.011815  0  3.959294  0
C  C102  1  0.72347572  0.18868702  0.16407285  1  0.052793  0  -0.059781  -0.011773  0  3.959175  0
C  C103  1  0.77652581  0.81131084  0.66406998  1  0.053152  0  -0.059834  -0.011844  0  3.959166  0
C  C104  1  0.67783382  0.30815051  0.58852617  1  -0.07138  0  -0.08089  -0.116046  0  3.930795  0
C  C105  1  0.82216834  0.69185039  0.08852937  1  -0.071462  0  -0.080859  -0.115856  0  3.93063  0
C  C106  1  0.32216944  0.80815113  0.91147249  1  -0.071589  0  -0.0809  -0.115924  0  3.930705  0
C  C107  1  0.17783099  0.19185212  0.41146856  1  -0.071556  0  -0.080913  -0.115943  0  3.930835  0
C  C108  1  0.32217056  0.69185156  0.41146966  1  -0.071522  0  -0.08086  -0.115914  0  3.930941  0
C  C109  1  0.17782986  0.30815100  0.91147324  1  -0.071593  0  -0.080904  -0.115942  0  3.930711  0
C  C110  1  0.67783289  0.19184751  0.08852827  1  -0.071506  0  -0.080891  -0.115948  0  3.930526  0
C  C111  1  0.82216584  0.80815270  0.58852727  1  -0.071471  0  -0.080854  -0.115917  0  3.93067  0
C  C112  1  0.70703161  0.36661369  0.52543951  1  0.501909  0  0.050937  0.098918  0  3.979095  0
C  C113  1  0.79296914  0.63338962  0.02544184  1  0.502064  0  0.050859  0.098935  0  3.979171  0
C  C114  1  0.29297037  0.86661185  0.97455939  1  0.501918  0  0.050828  0.098813  0  3.97923  0
C  C115  1  0.20702735  0.13339379  0.47455893  1  0.502163  0  0.050861  0.099027  0  3.979263  0
C  C116  1  0.29297347  0.63339251  0.47456001  1  0.502133  0  0.050832  0.098981  0  3.979219  0
C  C117  1  0.20703112  0.36661108  0.97456015  1  0.501893  0  0.050818  0.098866  0  3.979285  0
C  C118  1  0.70703127  0.13338678  0.02544137  1  0.502065  0  0.050884  0.098812  0  3.979109  0
C  C119  1  0.79296879  0.86661309  0.52543998  1  0.501897  0  0.050868  0.098806  0  3.978986  0
C  C120  1  0.89436065  0.49658240  0.61851125  1  0.569807  0  0.058979  -0.028309  0  3.894508  0
C  C121  1  0.60563878  0.50341865  0.11850738  1  0.569429  0  0.059077  -0.028096  0  3.894704  0
C  C122  1  0.10564014  0.99657979  0.88148944  1  0.569474  0  0.059009  -0.02821  0  3.894291  0
C  C123  1  0.39435752  0.00342468  0.38148605  1  0.569357  0  0.05899  -0.028243  0  3.894032  0
C  C124  1  0.10564167  0.50342380  0.38148643  1  0.569393  0  0.059021  -0.028092  0  3.894009  0
C  C125  1  0.39436079  0.49657792  0.88148906  1  0.569579  0  0.058979  -0.028266  0  3.8944  0
C  C126  1  0.89436288  0.00341953  0.11851071  1  0.569797  0  0.059048  -0.028189  0  3.894373  0
C  C127  1  0.60563862  0.99657808  0.61851471  1  0.569632  0  0.058966  -0.028258  0  3.894201  0
C  C128  1  0.00170043  0.67029723  0.50822205  1  1.314835  0  0.204737  0.394396  0  4.197505  0
C  C129  1  0.49830043  0.32970319  0.00822072  1  1.314893  0  0.20471  0.394312  0  4.197528  0
C  C130  1  0.99829988  0.17029511  0.99177849  1  1.314864  0  0.204724  0.394365  0  4.197395  0
C  C131  1  0.50169705  0.82970656  0.49178150  1  1.315039  0  0.204661  0.394226  0  4.197355  0
C  C132  1  0.99830190  0.32970691  0.49177995  1  1.315108  0  0.204681  0.394235  0  4.197236  0
C  C133  1  0.50169846  0.67029614  0.99177696  1  1.31488  0  0.204743  0.394475  0  4.197359  0
C  C134  1  0.00169970  0.82970215  0.00822166  1  1.314873  0  0.204744  0.394494  0  4.197416  0
C  C135  1  0.49829978  0.17029620  0.50822111  1  1.314854  0  0.204751  0.394403  0  4.197435  0
C  C136  1  0.07770470  0.73750919  0.52386473  1  -0.06262  0  0.004777  0.038408  0  3.945199  0
C  C137  1  0.42229685  0.26248925  0.02386616  1  -0.062597  0  0.004789  0.038468  0  3.945086  0
C  C138  1  0.92229502  0.23750618  0.97613362  1  -0.06223  0  0.004821  0.038485  0  3.945229  0
C  C139  1  0.57770327  0.76249128  0.47613454  1  -0.062718  0  0.004827  0.038493  0  3.945098  0
C  C140  1  0.92229488  0.26249151  0.47613418  1  -0.062281  0  0.004845  0.038547  0  3.945081  0
C  C141  1  0.57770479  0.73750732  0.97613152  1  -0.062127  0  0.004885  0.038485  0  3.945206  0
C  C142  1  0.07770387  0.76248902  0.02386714  1  -0.062696  0  0.004826  0.038442  0  3.945112  0
C  C143  1  0.42229493  0.23750942  0.52386375  1  -0.062258  0  0.004806  0.038425  0  3.945197  0
C  C144  1  0.10093303  0.80049996  0.46209082  1  0.003331  0  -0.077012  -0.140071  0  3.927869  0
C  C145  1  0.39906881  0.19949737  0.96209220  1  0.003449  0  -0.076991  -0.140041  0  3.927812  0
C  C146  1  0.89906784  0.30049803  0.03790881  1  0.003056  0  -0.077023  -0.14008  0  3.927846  0
C  C147  1  0.60092948  0.69949985  0.53790969  1  0.003606  0  -0.077046  -0.140097  0  3.927735  0
C  C148  1  0.89906930  0.19950074  0.53790932  1  0.003122  0  -0.07703  -0.140149  0  3.927809  0
C  C149  1  0.60093283  0.80049920  0.03790733  1  -0.019467  0  -0.077061  -0.140029  0  3.927849  0
C  C150  1  0.10093036  0.69949717  0.96209134  1  0.003461  0  -0.077025  -0.140107  0  3.927768  0
C  C151  1  0.39906872  0.30049878  0.46209045  1  0.002973  0  -0.077016  -0.140058  0  3.927892  0
C  C152  1  0.17181875  0.86271265  0.47628387  1  0.465824  0  0.042782  0.087751  0  3.967064  0
C  C153  1  0.32818309  0.13728475  0.97628433  1  0.4656  0  0.042717  0.087604  0  3.967178  0
C  C154  1  0.82818152  0.36271191  0.02371541  1  0.465642  0  0.042627  0.087471  0  3.967117  0
C  C155  1  0.67181579  0.63728658  0.52371607  1  0.465565  0  0.042717  0.08766  0  3.967226  0
C  C156  1  0.82818289  0.13728667  0.52371628  1  0.465582  0  0.042751  0.087682  0  3.967237  0
C  C157  1  0.67181992  0.86271182  0.02371458  1  0.488213  0  0.042672  0.08757  0  3.967086  0
C  C158  1  0.17181599  0.63728397  0.97628412  1  0.465595  0  0.042758  0.087653  0  3.96717  0
C  C159  1  0.32818173  0.36271412  0.47628346  1  0.465644  0  0.04273  0.087628  0  3.966968  0
C  C160  1  0.19786372  0.80326029  0.60646460  1  0.495062  0  0.03862  0.075042  0  3.977655  0
C  C161  1  0.30213857  0.19673653  0.10646631  1  0.495364  0  0.038599  0.075091  0  3.977621  0
C  C162  1  0.80213747  0.30325735  0.89353465  1  0.495367  0  0.038589  0.075032  0  3.977738  0
C  C163  1  0.69786146  0.69673967  0.39353596  1  0.495001  0  0.038548  0.074939  0  3.977627  0
C  C164  1  0.80213654  0.19673972  0.39353554  1  0.495036  0  0.03859  0.074963  0  3.977656  0
C  C165  1  0.69786307  0.80325730  0.89353322  1  0.495347  0  0.03856  0.075026  0  3.97756  0
C  C166  1  0.19786211  0.69673647  0.10646549  1  0.495187  0  0.038608  0.074979  0  3.977628  0
C  C167  1  0.30213606  0.30326034  0.60646418  1  0.495068  0  0.038591  0.07502  0  3.977651  0
C  C168  1  0.12747151  0.73945659  0.59790913  1  -0.006583  0  -0.081617  -0.149964  0  3.947172  0
C  C169  1  0.37253078  0.26054086  0.09790991  1  -0.006635  0  -0.081585  -0.149998  0  3.947099  0
C  C170  1  0.87252822  0.23945450  0.90209109  1  -0.006697  0  -0.081586  -0.14992  0  3.947213  0
C  C171  1  0.62746865  0.76054326  0.40209264  1  -0.006691  0  -0.081601  -0.149944  0  3.947131  0
C  C172  1  0.87252945  0.26054342  0.40209287  1  -0.006598  0  -0.081641  -0.14993  0  3.94719  0
C  C173  1  0.62747086  0.73945571  0.90209085  1  -0.006766  0  -0.08161  -0.149938  0  3.947243  0
C  C174  1  0.12746999  0.76054070  0.09790844  1  -0.006705  0  -0.081597  -0.149923  0  3.947068  0
C  C175  1  0.37252818  0.23945538  0.59790812  1  -0.006575  0  -0.081616  -0.149919  0  3.947105  0
N  N176  1  0.77641688  0.42596474  0.53476819  1  -1.221491  0  -0.310219  -0.276845  0  3.470903  0
N  N177  1  0.72358456  0.57403931  0.03476777  1  -1.221291  0  -0.310159  -0.276956  0  3.47087  0
N  N178  1  0.22358449  0.92596206  0.96523158  1  -1.221275  0  -0.310157  -0.276843  0  3.470902  0
N  N179  1  0.27641391  0.07404079  0.46523152  1  -1.221229  0  -0.310233  -0.277033  0  3.471034  0
N  N180  1  0.22358613  0.57403939  0.46523257  1  -1.22141  0  -0.310188  -0.276973  0  3.470951  0
N  N181  1  0.27641639  0.42596139  0.96523238  1  -1.221299  0  -0.310187  -0.276904  0  3.470915  0
N  N182  1  0.77641715  0.07403589  0.03476857  1  -1.22147  0  -0.310229  -0.276923  0  3.470914  0
N  N183  1  0.72358223  0.92596472  0.53476925  1  -1.221493  0  -0.310226  -0.276847  0  3.470848  0
N  N184  1  0.91979599  0.55029455  0.55878752  1  -0.755531  0  -0.199163  -0.010126  0  3.708649  0
N  N185  1  0.58020547  0.44970688  0.05878526  1  -0.755776  0  -0.199204  -0.01023  0  3.709022  0
N  N186  1  0.08020483  0.05029148  0.94121373  1  -0.755595  0  -0.199235  -0.010211  0  3.708555  0
N  N187  1  0.41979562  0.94970299  0.44122302  1  -0.755621  0  -0.199248  -0.010309  0  3.70833  0
N  N188  1  0.08020427  0.44970340  0.44122125  1  -0.755595  0  -0.199287  -0.010448  0  3.708474  0
N  N189  1  0.41979617  0.55029107  0.94121365  1  -0.75573  0  -0.199206  -0.010137  0  3.70857  0
N  N190  1  0.91979681  0.94970647  0.05878579  1  -0.75558  0  -0.199195  -0.010217  0  3.708716  0
N  N191  1  0.58020052  0.05029633  0.55878205  1  -0.755475  0  -0.199151  -0.010224  0  3.7085  0
N  N192  1  0.98772413  0.61106748  0.57192679  1  -0.686647  0  -0.255139  -0.368631  0  3.294474  0
N  N193  1  0.51227802  0.38893402  0.07192609  1  -0.686561  0  -0.255106  -0.368566  0  3.294465  0
N  N194  1  0.01227746  0.11106424  0.92807287  1  -0.686605  0  -0.255104  -0.368592  0  3.294375  0
N  N195  1  0.48772022  0.88893566  0.42807577  1  -0.686677  0  -0.255042  -0.368443  0  3.294513  0
N  N196  1  0.01227888  0.38893597  0.42807458  1  -0.686715  0  -0.255047  -0.368437  0  3.294513  0
N  N197  1  0.48772362  0.61106393  0.92807221  1  -0.686661  0  -0.255126  -0.368669  0  3.29438  0
N  N198  1  0.98772349  0.88893370  0.07192727  1  -0.68663  0  -0.255145  -0.368679  0  3.294499  0
N  N199  1  0.51227523  0.11106642  0.57192561  1  -0.686655  0  -0.255097  -0.368574  0  3.294662  0
N  N200  1  0.21923283  0.86433621  0.54725945  1  -1.224003  0  -0.315069  -0.218  0  3.51355  0
N  N201  1  0.28077011  0.13566166  0.04725965  1  -1.223979  0  -0.315013  -0.217936  0  3.513553  0
N  N202  1  0.78076846  0.36433424  0.95273945  1  -1.223943  0  -0.314908  -0.217763  0  3.513489  0
N  N203  1  0.71922845  0.63566378  0.45274236  1  -1.223557  0  -0.314943  -0.21783  0  3.513528  0
N  N204  1  0.78076950  0.13566311  0.45274193  1  -1.223963  0  -0.315006  -0.217849  0  3.513494  0
N  N205  1  0.71923290  0.86433422  0.95273926  1  -1.22396  0  -0.314973  -0.217901  0  3.513437  0
N  N206  1  0.21923043  0.63566095  0.04725823  1  -1.223983  0  -0.315031  -0.217883  0  3.51353  0
N  N207  1  0.28076769  0.36433623  0.54726025  1  -1.223999  0  -0.315057  -0.217977  0  3.513465  0
N  N208  1  0.85127876  0.52488567  0.30027863  1  -0.2294  0  -0.291463  -0.452342  0  2.965163  0
N  N209  1  0.64872424  0.47511842  0.80027488  1  -0.22927  0  -0.291413  -0.452209  0  2.965707  0
N  N210  1  0.14872308  0.02488348  0.19972230  1  -0.229337  0  -0.291509  -0.4524  0  2.965438  0
N  N211  1  0.35127446  0.97512070  0.69972572  1  -0.230259  0  -0.291545  -0.45236  0  2.96523  0
N  N212  1  0.14872426  0.47511915  0.69972460  1  -0.230314  0  -0.291544  -0.452412  0  2.965275  0
N  N213  1  0.35127878  0.52488297  0.19972341  1  -0.228277  0  -0.291352  -0.452085  0  2.965792  0
N  N214  1  0.85127994  0.97511446  0.80027661  1  -0.229408  0  -0.291477  -0.452332  0  2.965229  0
N  N215  1  0.64872099  0.02488343  0.30027751  1  -0.229328  0  -0.291502  -0.45241  0  2.965525  0
N  N216  1  0.82049114  0.45724397  0.26670585  1  -0.354542  0  0.080424  0.397264  0  4.492739  0
N  N217  1  0.67950702  0.54274894  0.76670919  1  -0.354193  0  0.080382  0.39736  0  4.49241  0
N  N218  1  0.17950790  0.95724549  0.23329260  1  -0.354646  0  0.080411  0.397261  0  4.492619  0
N  N219  1  0.32048417  0.04275956  0.73329511  1  -0.353463  0  0.080516  0.397383  0  4.49252  0
N  N220  1  0.17951393  0.54275948  0.73329553  1  -0.353475  0  0.080495  0.397343  0  4.492575  0
N  N221  1  0.32049531  0.45725176  0.23328972  1  -0.356221  0  0.080305  0.397163  0  4.492661  0
N  N222  1  0.82049168  0.04275383  0.76670570  1  -0.354264  0  0.08038  0.397215  0  4.492583  0
N  N223  1  0.67950716  0.95724595  0.26670750  1  -0.354522  0  0.080404  0.397312  0  4.492666  0
N  N224  1  0.79223978  0.39534340  0.22848578  1  -0.013002  0  -0.194847  -0.381115  0  2.583762  0
N  N225  1  0.70776454  0.60466306  0.72848077  1  -0.013636  0  -0.194945  -0.381413  0  2.582775  0
N  N226  1  0.20776054  0.89534035  0.27151549  1  -0.013021  0  -0.19482  -0.381094  0  2.583366  0
N  N227  1  0.29222742  0.10466284  0.77151579  1  -0.01331  0  -0.194891  -0.381244  0  2.583421  0
N  N228  1  0.20776874  0.60466211  0.77151560  1  -0.013214  0  -0.194847  -0.381146  0  2.583477  0
N  N229  1  0.29223847  0.39533902  0.27151876  1  -0.012552  0  -0.194925  -0.381311  0  2.582897  0
N  N230  1  0.79223835  0.10465622  0.72848404  1  -0.013312  0  -0.194822  -0.381099  0  2.583483  0
N  N231  1  0.70776047  0.89534061  0.22848374  1  -0.013132  0  -0.19483  -0.381133  0  2.58329  0
O  O232  1  0.95801294  0.67509762  0.44107706  1  -1.125537  0  -0.309179  -0.476669  0  2.174164  0
O  O233  1  0.54198395  0.32490378  0.94107509  1  -1.125584  0  -0.309152  -0.476616  0  2.174184  0
O  O234  1  0.04198636  0.17509590  0.05892265  1  -1.125614  0  -0.309174  -0.476667  0  2.174126  0
O  O235  1  0.45801521  0.82490616  0.55892857  1  -1.125723  0  -0.309122  -0.47659  0  2.174012  0
O  O236  1  0.04198526  0.32490514  0.55892679  1  -1.125736  0  -0.309115  -0.476561  0  2.174006  0
O  O237  1  0.45801081  0.67509899  0.05891889  1  -1.125489  0  -0.309166  -0.476686  0  2.174138  0
O  O238  1  0.95801459  0.82490273  0.94107749  1  -1.125549  0  -0.309167  -0.476685  0  2.174147  0
O  O239  1  0.54198574  0.17509661  0.44107589  1  -1.125647  0  -0.309197  -0.476691  0  2.174172  0
