# generated using pymatgen
data_Na2H22PdC20(NO4)2
_symmetry_space_group_name_H-M   'P 1'
_cell_length_a   10.73887790
_cell_length_b   10.70762375
_cell_length_c   12.73440922
_cell_angle_alpha   110.76463789
_cell_angle_beta   114.27154410
_cell_angle_gamma   95.56191034
_symmetry_Int_Tables_number   1
_chemical_formula_structural   Na2H22PdC20(NO4)2
_chemical_formula_sum   'Na4 H44 Pd2 C40 N4 O16'
_cell_volume   1196.51860592
_cell_formula_units_Z   2
loop_
 _symmetry_equiv_pos_site_id
 _symmetry_equiv_pos_as_xyz
  1  'x, y, z'
loop_
 _atom_site_type_symbol
 _atom_site_label
 _atom_site_symmetry_multiplicity
 _atom_site_fract_x
 _atom_site_fract_y
 _atom_site_fract_z
 _atom_site_occupancy
 _atom_site_hle17_bader_spin_density
 _atom_site_hle17_ddec_charge
 _atom_site_hle17_ddec_spin_density
 _atom_site_hle17_ddec_sum_bond_order
 _atom_site_hle17_magmom
 _atom_site_hse06_10hf_bader_spin_density
 _atom_site_hse06_10hf_ddec_charge
 _atom_site_hse06_10hf_ddec_spin_density
 _atom_site_hse06_10hf_ddec_sum_bond_order
 _atom_site_hse06_10hf_magmom
 _atom_site_hse06_bader_spin_density
 _atom_site_hse06_ddec_charge
 _atom_site_hse06_ddec_spin_density
 _atom_site_hse06_ddec_sum_bond_order
 _atom_site_hse06_magmom
 _atom_site_pbe_bader_charge
 _atom_site_pbe_bader_spin_density
 _atom_site_pbe_cm5_charge
 _atom_site_pbe_ddec_charge
 _atom_site_pbe_ddec_spin_density
 _atom_site_pbe_ddec_sum_bond_order
 _atom_site_pbe_magmom
Na  Na0  1  0.05435050  0.95000268  0.13442265  1  0  0.906678  0  0.38137  0  0  0.866193  0  0.528435  0  0  0.876848  0  0.507291  0  0.885595  0  0.694321  0.858245  0  0.544102  0
Na  Na1  1  0.31565700  0.91837305  0.36375484  1  0  0.906984  0  0.38172  0  0  0.866729  0  0.528405  0  0  0.877409  0  0.507152  0  0.88606  0  0.696085  0.858722  0  0.544166  0
Na  Na2  1  0.94565940  0.05002231  0.86558575  1  0  0.906661  0  0.381379  0  0  0.86617  0  0.528456  0  0  0.876817  0  0.507295  0  0.885555  0  0.694283  0.858226  0  0.544103  0
Na  Na3  1  0.68432166  0.08165728  0.63626462  1  0  0.906976  0  0.381771  0  0  0.866658  0  0.528562  0  0  0.877352  0  0.50732  0  0.88598  0  0.696132  0.858652  0  0.544332  0
H  H4  1  0.87687669  0.11620914  0.50685636  1  0  0.094852  0  0.963097  0  0  0.106756  0  1.022747  0  0  0.109662  0  1.021377  0  0.060389  0  0.102221  0.104631  0  1.02393  0
H  H5  1  0.10918144  0.36997930  0.99356428  1  0  0.094976  0  0.963747  0  0  0.10681  0  1.023503  0  0  0.109747  0  1.022091  0  0.058123  0  0.102324  0.104637  0  1.024727  0
H  H6  1  0.12310081  0.88377431  0.49314597  1  0  0.094787  0  0.962998  0  0  0.106664  0  1.022721  0  0  0.109575  0  1.021346  0  0.060713  0  0.102195  0.104539  0  1.023906  0
H  H7  1  0.89085067  0.63004488  0.00646105  1  0  0.094941  0  0.963721  0  0  0.106786  0  1.02347  0  0  0.109757  0  1.022015  0  0.058206  0  0.102373  0.104612  0  1.024696  0
H  H8  1  0.88398545  0.87808859  0.48942235  1  0  0.088423  0  0.964065  0  0  0.099386  0  1.026519  0  0  0.101797  0  1.025559  0  0.067091  0  0.101458  0.097634  0  1.027332  0
H  H9  1  0.88910432  0.39523437  0.01057415  1  0  0.088227  0  0.964238  0  0  0.099437  0  1.026376  0  0  0.101757  0  1.025516  0  0.064904  0  0.101609  0.097715  0  1.027196  0
H  H10  1  0.11600684  0.12190000  0.51057642  1  0  0.088431  0  0.964182  0  0  0.099427  0  1.026576  0  0  0.101833  0  1.025625  0  0.067148  0  0.101474  0.097676  0  1.027385  0
H  H11  1  0.11092545  0.60481356  0.98944468  1  0  0.088194  0  0.964443  0  0  0.099442  0  1.026543  0  0  0.101751  0  1.025682  0  0.065115  0  0.101621  0.097713  0  1.02737  0
H  H12  1  0.69170773  0.67058201  0.30127224  1  0  0.088282  0  0.946298  0  0  0.102167  0  1.001049  0  0  0.104409  0  1.000837  0  0.032473  0  0.097232  0.100479  0  1.001369  0
H  H13  1  0.87010277  0.39088979  0.19791508  1  0  0.089502  0  0.945271  0  0  0.102962  0  1.000366  0  0  0.105179  0  1.000185  0  0.046938  0  0.097791  0.101265  0  1.000699  0
H  H14  1  0.30830773  0.32939804  0.69870779  1  0  0.088283  0  0.946259  0  0  0.102173  0  1.000989  0  0  0.104417  0  1.000776  0  0.032464  0  0.097271  0.100486  0  1.001308  0
H  H15  1  0.12989344  0.60911951  0.80208242  1  0  0.089527  0  0.945368  0  0  0.103031  0  1.000398  0  0  0.105253  0  1.000211  0  0.046884  0  0.097819  0.101335  0  1.000734  0
H  H16  1  0.69597918  0.20449289  0.26521224  1  0  0.104006  0  0.958286  0  0  0.119399  0  1.03177  0  0  0.121807  0  1.028923  0  0.042386  0  0.080306  0.117408  0  1.034228  0
H  H17  1  0.43862510  0.43067371  0.23519872  1  0  0.104435  0  0.957868  0  0  0.120181  0  1.030871  0  0  0.122545  0  1.028091  0  0.020353  0  0.080829  0.118216  0  1.033289  0
H  H18  1  0.30400019  0.79548628  0.73478008  1  0  0.104049  0  0.958506  0  0  0.119435  0  1.031965  0  0  0.121846  0  1.029113  0  0.042941  0  0.080294  0.117441  0  1.034427  0
H  H19  1  0.56138423  0.56933143  0.76479744  1  0  0.104408  0  0.9577  0  0  0.120111  0  1.03076  0  0  0.12248  0  1.027973  0  0.020527  0  0.080792  0.118142  0  1.033181  0
H  H20  1  0.76341041  0.26764164  0.43413253  1  0  0.109445  0  0.951861  0  0  0.132659  0  1.008838  0  0  0.134443  0  1.008111  0  0.070725  0  0.090999  0.131253  0  1.009508  0
H  H21  1  0.33256319  0.32761094  0.06623374  1  0  0.10997  0  0.953002  0  0  0.133125  0  1.009732  0  0  0.134967  0  1.008926  0  0.02957  0  0.091256  0.131681  0  1.010456  0
H  H22  1  0.23656095  0.73234169  0.56585976  1  0  0.109623  0  0.951522  0  0  0.132743  0  1.008625  0  0  0.134525  0  1.007897  0  0.071337  0  0.090994  0.131336  0  1.009296  0
H  H23  1  0.66742637  0.67236114  0.93377107  1  0  0.110058  0  0.952661  0  0  0.133196  0  1.009436  0  0  0.135035  0  1.008639  0  0.02962  0  0.091297  0.131753  0  1.010154  0
H  H24  1  0.57686987  0.20601343  0.32766573  1  0  0.105714  0  0.95892  0  0  0.123748  0  1.027354  0  0  0.124578  0  1.027365  0  0.028585  0  0.086509  0.123009  0  1.027517  0
H  H25  1  0.37777966  0.24826450  0.17314598  1  0  0.106622  0  0.958808  0  0  0.124046  0  1.028017  0  0  0.124856  0  1.028069  0  0.034036  0  0.086807  0.12332  0  1.028159  0
H  H26  1  0.42310464  0.79395947  0.67232229  1  0  0.105779  0  0.95906  0  0  0.123855  0  1.027424  0  0  0.124691  0  1.027423  0  0.028778  0  0.086541  0.123116  0  1.027587  0
H  H27  1  0.62223774  0.75174421  0.82688544  1  0  0.106659  0  0.958766  0  0  0.12402  0  1.028036  0  0  0.124829  0  1.028086  0  0.034715  0  0.086836  0.123294  0  1.028174  0
H  H28  1  0.48359812  0.56883283  0.10135110  1  0  0.102111  0  0.959233  0  0  0.12563  0  1.017157  0  0  0.126226  0  1.018156  0  0.03372  0  0.089767  0.125189  0  1.016429  0
H  H29  1  0.96885597  0.38266865  0.39750010  1  0  0.101307  0  0.95957  0  0  0.124776  0  1.017517  0  0  0.125351  0  1.018519  0  0.034173  0  0.089772  0.12436  0  1.016776  0
H  H30  1  0.51638625  0.43114975  0.89866358  1  0  0.101992  0  0.959114  0  0  0.125439  0  1.017179  0  0  0.126026  0  1.018181  0  0.03384  0  0.089715  0.125007  0  1.016442  0
H  H31  1  0.03114626  0.61734397  0.60251302  1  0  0.101228  0  0.959581  0  0  0.124684  0  1.017552  0  0  0.125256  0  1.018555  0  0.03426  0  0.08976  0.124274  0  1.016811  0
H  H32  1  0.44525137  0.66671940  0.00955976  1  0  0.10431  0  0.942097  0  0  0.123014  0  1.00755  0  0  0.124345  0  1.006655  0  0.028259  0  0.087559  0.121963  0  1.008361  0
H  H33  1  0.15878697  0.43637635  0.48927172  1  0  0.104693  0  0.941808  0  0  0.123605  0  1.007209  0  0  0.12493  0  1.006314  0  0.042424  0  0.087989  0.122542  0  1.008063  0
H  H34  1  0.55477846  0.33324319  0.99043200  1  0  0.104316  0  0.942204  0  0  0.123004  0  1.007641  0  0  0.124326  0  1.006753  0  0.026017  0  0.087504  0.121955  0  1.008449  0
H  H35  1  0.84121713  0.56363195  0.51072824  1  0  0.104684  0  0.941782  0  0  0.123609  0  1.007167  0  0  0.124932  0  1.006276  0  0.042471  0  0.088023  0.122546  0  1.008022  0
H  H36  1  0.35792463  0.66582763  0.10086382  1  0  0.118384  0  0.947754  0  0  0.140839  0  1.006296  0  0  0.142357  0  1.00588  0  0.066353  0  0.096841  0.139758  0  1.006552  0
H  H37  1  0.06577355  0.25680147  0.39799505  1  0  0.119351  0  0.947524  0  0  0.142095  0  1.005773  0  0  0.143616  0  1.005358  0  0.054617  0  0.097291  0.140994  0  1.006051  0
H  H38  1  0.64208053  0.33418766  0.89911655  1  0  0.118455  0  0.947755  0  0  0.140946  0  1.006238  0  0  0.142463  0  1.005825  0  0.066089  0  0.09693  0.13986  0  1.006499  0
H  H39  1  0.93422369  0.74320801  0.60201542  1  0  0.119265  0  0.947623  0  0  0.142019  0  1.005871  0  0  0.14355  0  1.005442  0  0.054547  0  0.097263  0.140917  0  1.006151  0
H  H40  1  0.87405451  0.85826575  0.25165451  1  0  0.402666  0  0.885211  0  0  0.382029  0  0.94036  0  0  0.38837  0  0.931477  0  0.599568  0  0.293323  0.377528  0  0.946692  0
H  H41  1  0.10646643  0.62097366  0.24851458  1  0  0.402967  0  0.886532  0  0  0.382066  0  0.941522  0  0  0.388404  0  0.932652  0  0.598857  0  0.292989  0.377555  0  0.947861  0
H  H42  1  0.12592350  0.14172994  0.74833270  1  0  0.40269  0  0.884977  0  0  0.382036  0  0.940313  0  0  0.388376  0  0.93143  0  0.59963  0  0.293311  0.377536  0  0.946645  0
H  H43  1  0.89351133  0.37902820  0.75146883  1  0  0.402949  0  0.886561  0  0  0.38205  0  0.941534  0  0  0.388389  0  0.932663  0  0.599192  0  0.29298  0.37754  0  0.947873  0
H  H44  1  0.81480592  0.91565621  0.15021623  1  0  0.415673  0  0.889326  0  0  0.383549  0  0.956245  0  0  0.39378  0  0.941318  0  0.631983  0  0.286908  0.37641  0  0.966618  0
H  H45  1  0.26569143  0.66384474  0.34985011  1  0  0.416151  0  0.889061  0  0  0.383688  0  0.956617  0  0  0.393897  0  0.941728  0  0.624936  0  0.286585  0.376556  0  0.966979  0
H  H46  1  0.18517801  0.08432796  0.84976185  1  0  0.415782  0  0.889207  0  0  0.383621  0  0.956163  0  0  0.393852  0  0.941234  0  0.631714  0  0.286927  0.37648  0  0.966542  0
H  H47  1  0.73429033  0.33616742  0.65012826  1  0  0.416173  0  0.889008  0  0  0.383731  0  0.956517  0  0  0.393939  0  0.941631  0  0.624782  0  0.286664  0.3766  0  0.966877  0
Pd  Pd48  1  0.49999291  0.99997278  0.99997873  1  0  0.498118  0  2.548662  0  0  0.413604  0  3.093394  0  0  0.45665  0  3.053367  0  0.733051  0  0.778039  0.386389  0  3.121062  0
Pd  Pd49  1  0.49999643  0.50001677  0.50001385  1  0  0.499035  0  2.552552  0  0  0.413464  0  3.097378  0  0  0.456496  0  3.057292  0  0.740407  0  0.778792  0.38617  0  3.125043  0
C  C50  1  0.23673079  0.96120642  0.99801873  1  0  0.560167  0  3.874535  0  0  0.517961  0  4.164201  0  0  0.549188  0  4.155821  0  1.556568  0  0.206943  0.496085  0  4.16968  0
C  C51  1  0.46226283  0.23832818  0.50244309  1  0  0.560437  0  3.871602  0  0  0.517742  0  4.16179  0  0  0.548963  0  4.153322  0  1.554511  0  0.207302  0.495878  0  4.167324  0
C  C52  1  0.76327556  0.03878834  0.00197652  1  0  0.560391  0  3.874403  0  0  0.51808  0  4.164191  0  0  0.549311  0  4.155807  0  1.556994  0  0.207009  0.496191  0  4.169671  0
C  C53  1  0.53773612  0.76169802  0.49757833  1  0  0.561171  0  3.87119  0  0  0.518289  0  4.161597  0  0  0.549515  0  4.153108  0  1.554937  0  0.207463  0.496425  0  4.167136  0
C  C54  1  0.33241079  0.92582839  0.10530564  1  0  0.399796  0  3.927897  0  0  0.365237  0  4.211673  0  0  0.390409  0  4.212109  0  1.404327  0  0.205219  0.348255  0  4.210862  0
C  C55  1  0.31973552  0.22601768  0.39433307  1  0  0.39882  0  3.928261  0  0  0.364273  0  4.21111  0  0  0.389503  0  4.211533  0  1.388636  0  0.204582  0.347252  0  4.210255  0
C  C56  1  0.66759624  0.07415800  0.89468349  1  0  0.399472  0  3.928619  0  0  0.365041  0  4.21229  0  0  0.390219  0  4.212728  0  1.403922  0  0.205204  0.348061  0  4.211474  0
C  C57  1  0.68027766  0.77399372  0.60566625  1  0  0.39832  0  3.928779  0  0  0.363836  0  4.211637  0  0  0.389066  0  4.212063  0  1.388445  0  0.204512  0.346819  0  4.210765  0
C  C58  1  0.57472028  0.92606470  0.22375016  1  0  0.11902  0  3.715093  0  0  0.111736  0  3.956059  0  0  0.116407  0  3.978977  0  0.293703  0  0.082758  0.108531  0  3.940773  0
C  C59  1  0.20214832  0.34989568  0.27545004  1  0  0.120111  0  3.714953  0  0  0.110864  0  3.957485  0  0  0.115575  0  3.980427  0  0.365872  0  0.082361  0.107606  0  3.942183  0
C  C60  1  0.42528334  0.07391331  0.77623222  1  0  0.119034  0  3.715135  0  0  0.111817  0  3.956237  0  0  0.116496  0  3.979158  0  0.294212  0  0.082769  0.10861  0  3.940951  0
C  C61  1  0.79785318  0.65011797  0.72456313  1  0  0.120278  0  3.714626  0  0  0.111001  0  3.957289  0  0  0.115717  0  3.980227  0  0.363181  0  0.08247  0.107742  0  3.941986  0
C  C62  1  0.68343543  0.04468654  0.32934339  1  0  0.090666  0  3.71693  0  0  0.110542  0  3.956644  0  0  0.110127  0  3.981114  0  0.030571  0  -0.002457  0.110515  0  3.940338  0
C  C63  1  0.21494142  0.35314777  0.17035157  1  0  0.091935  0  3.717696  0  0  0.112445  0  3.957093  0  0  0.112161  0  3.981418  0  -0.001012  0  -0.00205  0.112325  0  3.940854  0
C  C64  1  0.31655434  0.95529676  0.67064747  1  0  0.090635  0  3.716763  0  0  0.110281  0  3.956815  0  0  0.109863  0  3.981281  0  0.031373  0  -0.002557  0.110257  0  3.940507  0
C  C65  1  0.78506839  0.64686282  0.82966518  1  0  0.091699  0  3.717946  0  0  0.112234  0  3.957331  0  0  0.111946  0  3.981666  0  -0.001106  0  -0.002154  0.112116  0  3.941087  0
C  C66  1  0.79429611  0.02482541  0.42376616  1  0  -0.160562  0  3.789389  0  0  -0.181321  0  4.041465  0  0  -0.184632  0  4.062581  0  -0.035299  0  -0.098582  -0.179112  0  4.027506  0
C  C67  1  0.10088682  0.37012965  0.07615467  1  0  -0.162376  0  3.790211  0  0  -0.183026  0  4.041923  0  0  -0.186393  0  4.062932  0  -0.071193  0  -0.09891  -0.18073  0  4.028022  0
C  C68  1  0.20568957  0.97515798  0.57623115  1  0  -0.160223  0  3.789109  0  0  -0.180879  0  4.041248  0  0  -0.184185  0  4.062359  0  -0.036952  0  -0.098462  -0.178672  0  4.02729  0
C  C69  1  0.89913079  0.62989029  0.92386280  1  0  -0.162285  0  3.790263  0  0  -0.182939  0  4.041979  0  0  -0.186333  0  4.062975  0  -0.071666  0  -0.098944  -0.180645  0  4.028078  0
C  C70  1  0.79821996  0.89122762  0.41380195  1  0  -0.085826  0  3.85102  0  0  -0.103553  0  4.112456  0  0  -0.104104  0  4.133684  0  -0.075058  0  -0.097241  -0.102977  0  4.098044  0
C  C71  1  0.97760199  0.38440030  0.08588146  1  0  -0.086587  0  3.852978  0  0  -0.104429  0  4.113884  0  0  -0.104867  0  4.135075  0  -0.068913  0  -0.097033  -0.103928  0  4.099526  0
C  C72  1  0.20177684  0.10875887  0.58619464  1  0  -0.086234  0  3.85132  0  0  -0.103983  0  4.11281  0  0  -0.104538  0  4.134043  0  -0.07462  0  -0.097398  -0.103407  0  4.098398  0
C  C73  1  0.02241404  0.61562477  0.91413302  1  0  -0.086494  0  3.853181  0  0  -0.104393  0  4.114081  0  0  -0.104817  0  4.135266  0  -0.068261  0  -0.097024  -0.103888  0  4.099729  0
C  C74  1  0.68984376  0.77514210  0.30874400  1  0  -0.144524  0  3.784273  0  0  -0.164686  0  4.033495  0  0  -0.168864  0  4.056364  0  -0.052499  0  -0.100606  -0.161785  0  4.017858  0
C  C75  1  0.96678231  0.38097668  0.19047436  1  0  -0.144891  0  3.783057  0  0  -0.164402  0  4.031905  0  0  -0.168567  0  4.054734  0  -0.056575  0  -0.100164  -0.161505  0  4.016318  0
C  C76  1  0.31016135  0.22484120  0.69124671  1  0  -0.144335  0  3.784121  0  0  -0.164464  0  4.033372  0  0  -0.168641  0  4.056243  0  -0.052567  0  -0.10052  -0.161567  0  4.017734  0
C  C77  1  0.03321931  0.61903376  0.80953086  1  0  -0.14504  0  3.783233  0  0  -0.164544  0  4.032104  0  0  -0.168709  0  4.054925  0  -0.056477  0  -0.100199  -0.16165  0  4.016517  0
C  C78  1  0.57655954  0.79044515  0.21254024  1  0  0.088356  0  3.722942  0  0  0.108371  0  3.96423  0  0  0.108201  0  3.988188  0  0.023946  0  -0.00335  0.108504  0  3.947887  0
C  C79  1  0.07814238  0.36344004  0.28643626  1  0  0.087716  0  3.722248  0  0  0.108068  0  3.963777  0  0  0.107926  0  3.987727  0  -0.012998  0  -0.00393  0.108228  0  3.947411  0
C  C80  1  0.42344805  0.20953605  0.78744837  1  0  0.088307  0  3.722748  0  0  0.108271  0  3.964109  0  0  0.108099  0  3.988061  0  0.023299  0  -0.003434  0.108406  0  3.947767  0
C  C81  1  0.92185456  0.63656832  0.71356828  1  0  0.087712  0  3.722049  0  0  0.107976  0  3.963745  0  0  0.10783  0  3.987695  0  -0.012789  0  -0.003961  0.108137  0  3.947382  0
C  C82  1  0.68019535  0.18855795  0.34023648  1  0  -0.324532  0  3.732444  0  0  -0.40643  0  3.97254  0  0  -0.407724  0  3.981484  0  -0.085028  0  -0.245044  -0.405118  0  3.966525  0
C  C83  1  0.34767342  0.33893976  0.16003829  1  0  -0.326928  0  3.733411  0  0  -0.408694  0  3.973084  0  0  -0.410078  0  3.982033  0  -0.012061  0  -0.24604  -0.407318  0  3.967099  0
C  C84  1  0.31978270  0.81142016  0.65975428  1  0  -0.32483  0  3.73238  0  0  -0.406603  0  3.972466  0  0  -0.407918  0  3.981448  0  -0.086356  0  -0.245014  -0.405288  0  3.966453  0
C  C85  1  0.65233515  0.66105942  0.83997787  1  0  -0.326956  0  3.732881  0  0  -0.408624  0  3.972661  0  0  -0.410006  0  3.981595  0  -0.013282  0  -0.246082  -0.407241  0  3.966674  0
C  C86  1  0.45990833  0.66570010  0.10000548  1  0  -0.321933  0  3.730028  0  0  -0.401533  0  3.9609  0  0  -0.403343  0  3.971636  0  -0.058384  0  -0.23841  -0.399928  0  3.953295  0
C  C87  1  0.06670822  0.35997716  0.39888357  1  0  -0.321793  0  3.730774  0  0  -0.402003  0  3.962  0  0  -0.403794  0  3.972776  0  -0.063307  0  -0.238828  -0.400411  0  3.954375  0
C  C88  1  0.54009853  0.33428218  0.89998633  1  0  -0.321889  0  3.729985  0  0  -0.401428  0  3.96093  0  0  -0.403219  0  3.971671  0  -0.055817  0  -0.238373  -0.39983  0  3.95332  0
C  C89  1  0.93328974  0.64003122  0.60112212  1  0  -0.321597  0  3.730769  0  0  -0.401769  0  3.962037  0  0  -0.403571  0  3.972822  0  -0.063254  0  -0.238831  -0.400187  0  3.954417  0
N  N90  1  0.46618063  0.94572789  0.12505673  1  0  -0.42429  0  3.383008  0  0  -0.370302  0  3.690871  0  0  -0.398029  0  3.705827  0  -1.200191  0  -0.403902  -0.35213  0  3.680734  0
N  N91  1  0.32040863  0.34003270  0.37421014  1  0  -0.42591  0  3.386287  0  0  -0.369936  0  3.692394  0  0  -0.397873  0  3.707588  0  -1.18838  0  -0.40298  -0.351582  0  3.682054  0
N  N92  1  0.53382282  0.05424590  0.87492043  1  0  -0.424236  0  3.383062  0  0  -0.370329  0  3.690914  0  0  -0.398072  0  3.705888  0  -1.200177  0  -0.403891  -0.352156  0  3.680773  0
N  N93  1  0.67959190  0.65998827  0.62580717  1  0  -0.425742  0  3.386345  0  0  -0.369768  0  3.692474  0  0  -0.397706  0  3.707669  0  -1.185755  0  -0.402956  -0.35141  0  3.682131  0
O  O94  1  0.29168815  0.99267191  0.93331358  1  0  -0.523563  0  2.190571  0  0  -0.457403  0  2.459404  0  0  -0.487942  0  2.449723  0  -1.06402  0  -0.315708  -0.436122  0  2.465532  0
O  O95  1  0.55903841  0.35842647  0.56686360  1  0  -0.523152  0  2.193126  0  0  -0.456734  0  2.46253  0  0  -0.487196  0  2.452805  0  -1.071362  0  -0.315263  -0.435499  0  2.468647  0
O  O96  1  0.70829956  0.00728621  0.06665434  1  0  -0.523555  0  2.190544  0  0  -0.457365  0  2.459451  0  0  -0.487909  0  2.449764  0  -1.06425  0  -0.315708  -0.436068  0  2.465584  0
O  O97  1  0.44095764  0.64160387  0.43315722  1  0  -0.523438  0  2.193162  0  0  -0.456853  0  2.46256  0  0  -0.48732  0  2.452835  0  -1.071464  0  -0.31525  -0.435615  0  2.468676  0
O  O98  1  0.11406165  0.96323347  0.97897655  1  0  -0.631198  0  2.014214  0  0  -0.589808  0  2.251633  0  0  -0.610509  0  2.24347  0  -1.181535  0  -0.409083  -0.575624  0  2.258168  0
O  O99  1  0.48265566  0.13490499  0.52246260  1  0  -0.630705  0  2.013855  0  0  -0.589131  0  2.250594  0  0  -0.609864  0  2.242535  0  -1.176889  0  -0.409264  -0.574976  0  2.25712  0
O  O100  1  0.88595865  0.03679584  0.02104457  1  0  -0.631203  0  2.014145  0  0  -0.589783  0  2.251617  0  0  -0.610483  0  2.243456  0  -1.181713  0  -0.409097  -0.575637  0  2.258244  0
O  O101  1  0.51733972  0.86513397  0.47758247  1  0  -0.630995  0  2.013581  0  0  -0.589387  0  2.250438  0  0  -0.610119  0  2.242365  0  -1.177013  0  -0.409325  -0.575235  0  2.256972  0
O  O102  1  0.28119429  0.88778495  0.16567556  1  0  -0.658516  0  2.021212  0  0  -0.620767  0  2.261703  0  0  -0.640566  0  2.252893  0  -1.203337  0  -0.420119  -0.606616  0  2.267231  0
O  O103  1  0.22097448  0.11391690  0.33383522  1  0  -0.657068  0  2.022345  0  0  -0.61951  0  2.262792  0  0  -0.63929  0  2.253951  0  -1.194791  0  -0.420149  -0.6053  0  2.268298  0
O  O104  1  0.71882267  0.11220048  0.83431912  1  0  -0.658446  0  2.021816  0  0  -0.620701  0  2.262268  0  0  -0.640493  0  2.253447  0  -1.202949  0  -0.420213  -0.606553  0  2.26781  0
O  O105  1  0.77905671  0.88607865  0.66614144  1  0  -0.656883  0  2.022654  0  0  -0.619325  0  2.263053  0  0  -0.639134  0  2.254275  0  -1.194916  0  -0.420018  -0.60512  0  2.268565  0
O  O106  1  0.88527314  0.86732164  0.18227372  1  0  -0.872375  0  1.764178  0  0  -0.830099  0  1.910952  0  0  -0.845414  0  1.883989  0  -1.266126  0  -0.657619  -0.819047  0  1.929736  0
O  O107  1  0.18531243  0.70223429  0.31774768  1  0  -0.87462  0  1.763288  0  0  -0.831917  0  1.909802  0  0  -0.847274  0  1.882816  0  -1.258144  0  -0.659689  -0.820821  0  1.928642  0
O  O108  1  0.11472746  0.13268876  0.81772877  1  0  -0.872488  0  1.763855  0  0  -0.830154  0  1.910864  0  0  -0.845458  0  1.883891  0  -1.265887  0  -0.657631  -0.819104  0  1.929644  0
O  O109  1  0.81466915  0.29777360  0.68222154  1  0  -0.874614  0  1.76327  0  0  -0.8319  0  1.909799  0  0  -0.847264  0  1.882815  0  -1.258228  0  -0.659735  -0.820805  0  1.928639  0
