# generated using pymatgen
data_HgH12C22N6(OF2)2
_symmetry_space_group_name_H-M   'P 1'
_cell_length_a   8.36993770
_cell_length_b   10.45383685
_cell_length_c   12.17622047
_cell_angle_alpha   104.30545021
_cell_angle_beta   89.99980735
_cell_angle_gamma   90.00014342
_symmetry_Int_Tables_number   1
_chemical_formula_structural   HgH12C22N6(OF2)2
_chemical_formula_sum   'Hg2 H24 C44 N12 O4 F8'
_cell_volume   1032.35898491
_cell_formula_units_Z   2
loop_
 _symmetry_equiv_pos_site_id
 _symmetry_equiv_pos_as_xyz
  1  'x, y, z'
loop_
 _atom_site_type_symbol
 _atom_site_label
 _atom_site_symmetry_multiplicity
 _atom_site_fract_x
 _atom_site_fract_y
 _atom_site_fract_z
 _atom_site_occupancy
 _atom_site_hle17_bader_spin_density
 _atom_site_hle17_ddec_charge
 _atom_site_hle17_ddec_spin_density
 _atom_site_hle17_ddec_sum_bond_order
 _atom_site_hle17_magmom
 _atom_site_hse06_10hf_bader_spin_density
 _atom_site_hse06_10hf_ddec_charge
 _atom_site_hse06_10hf_ddec_spin_density
 _atom_site_hse06_10hf_ddec_sum_bond_order
 _atom_site_hse06_10hf_magmom
 _atom_site_hse06_bader_spin_density
 _atom_site_hse06_ddec_charge
 _atom_site_hse06_ddec_spin_density
 _atom_site_hse06_ddec_sum_bond_order
 _atom_site_hse06_magmom
 _atom_site_pbe_bader_spin_density
 _atom_site_pbe_cm5_charge
 _atom_site_pbe_ddec_charge
 _atom_site_pbe_ddec_spin_density
 _atom_site_pbe_ddec_sum_bond_order
 _atom_site_pbe_magmom
Hg  Hg0  1  0.00000119  0.00000099  0.00000103  1  0  0.863752  0  1.942653  0  0  0.67617  0  2.409913  0  0  0.728316  0  2.376035  0  0  0.694257  0.637922  0  2.434557  0
Hg  Hg1  1  0.50000086  0.50000196  0.99999884  1  0  0.863725  0  1.942655  0  0  0.676124  0  2.409921  0  0  0.728268  0  2.376046  0  0  0.694235  0.63787  0  2.43456  0
H  H2  1  0.03365544  0.04717107  0.32604914  1  0  0.082776  0  0.948294  0  0  0.089929  0  1.013033  0  0  0.091926  0  1.013226  0  0  0.114024  0.08832  0  1.013369  0
H  H3  1  0.53365416  0.45282897  0.67395087  1  0  0.082827  0  0.948234  0  0  0.089947  0  1.01302  0  0  0.091944  0  1.013213  0  0  0.114028  0.088335  0  1.013354  0
H  H4  1  0.96633199  0.95282396  0.67395878  1  0  0.082794  0  0.948246  0  0  0.089903  0  1.01303  0  0  0.0919  0  1.013223  0  0  0.113997  0.088293  0  1.013367  0
H  H5  1  0.46633685  0.54717489  0.32604166  1  0  0.08281  0  0.948257  0  0  0.089924  0  1.013023  0  0  0.091921  0  1.013215  0  0  0.114013  0.088312  0  1.013358  0
H  H6  1  0.09965335  0.89211023  0.45002509  1  0  0.079135  0  0.939746  0  0  0.085698  0  1.005237  0  0  0.088839  0  1.003021  0  0  0.112025  0.08341  0  1.006905  0
H  H7  1  0.59965280  0.60789105  0.54997507  1  0  0.079143  0  0.939732  0  0  0.085702  0  1.00524  0  0  0.088844  0  1.003024  0  0  0.11202  0.083412  0  1.006907  0
H  H8  1  0.90034722  0.10788677  0.54998160  1  0  0.07925  0  0.939534  0  0  0.085689  0  1.005189  0  0  0.08883  0  1.002975  0  0  0.112022  0.083403  0  1.006857  0
H  H9  1  0.40034657  0.39211183  0.45001807  1  0  0.079176  0  0.939674  0  0  0.085703  0  1.0052  0  0  0.088842  0  1.002992  0  0  0.112033  0.083414  0  1.006865  0
H  H10  1  0.20074753  0.59476931  0.16269059  1  0  0.094698  0  0.961919  0  0  0.092926  0  1.039645  0  0  0.097163  0  1.035475  0  0  0.111131  0.089619  0  1.043268  0
H  H11  1  0.70074889  0.90523212  0.83730854  1  0  0.094669  0  0.961944  0  0  0.092904  0  1.039665  0  0  0.097139  0  1.035497  0  0  0.11112  0.089594  0  1.043302  0
H  H12  1  0.79925662  0.40523262  0.83731220  1  0  0.094712  0  0.961851  0  0  0.092924  0  1.039624  0  0  0.09716  0  1.035455  0  0  0.111141  0.089611  0  1.04326  0
H  H13  1  0.29925646  0.09476781  0.16268644  1  0  0.094694  0  0.961908  0  0  0.092916  0  1.039651  0  0  0.097153  0  1.03548  0  0  0.11113  0.089605  0  1.043286  0
H  H14  1  0.96664695  0.54429571  0.59936911  1  0  0.125437  0  0.93791  0  0  0.134122  0  1.000588  0  0  0.136894  0  0.998959  0  0  0.108198  0.132127  0  1.001787  0
H  H15  1  0.46665032  0.95570414  0.40063317  1  0  0.125478  0  0.937786  0  0  0.134127  0  1.00057  0  0  0.1369  0  0.998943  0  0  0.108208  0.132134  0  1.001772  0
H  H16  1  0.03335481  0.45570522  0.40063265  1  0  0.125439  0  0.937919  0  0  0.134093  0  1.00061  0  0  0.136868  0  0.998982  0  0  0.108171  0.132098  0  1.001811  0
H  H17  1  0.53335264  0.04429482  0.59936653  1  0  0.125459  0  0.937956  0  0  0.134119  0  1.000666  0  0  0.136896  0  0.999039  0  0  0.108186  0.132126  0  1.001871  0
H  H18  1  0.14778110  0.66449000  0.48921932  1  0  0.124213  0  0.977342  0  0  0.121479  0  1.059919  0  0  0.126458  0  1.055546  0  0  0.101454  0.117934  0  1.063106  0
H  H19  1  0.64778264  0.83550740  0.51078073  1  0  0.124196  0  0.977414  0  0  0.121471  0  1.059939  0  0  0.12645  0  1.055567  0  0  0.101456  0.117929  0  1.063126  0
H  H20  1  0.85222306  0.33550995  0.51078223  1  0  0.124107  0  0.977442  0  0  0.121412  0  1.060006  0  0  0.126393  0  1.055632  0  0  0.101414  0.117867  0  1.06319  0
H  H21  1  0.35221912  0.16448958  0.48921774  1  0  0.124237  0  0.97725  0  0  0.121438  0  1.059956  0  0  0.126417  0  1.055584  0  0  0.101434  0.117894  0  1.063144  0
H  H22  1  0.30295511  0.92134429  0.80598339  1  0  0.160034  0  0.929857  0  0  0.164576  0  0.995244  0  0  0.16925  0  0.991933  0  0  0.113239  0.161237  0  0.997649  0
H  H23  1  0.80295502  0.57865531  0.19401347  1  0  0.160106  0  0.929767  0  0  0.164595  0  0.995216  0  0  0.169269  0  0.991903  0  0  0.11323  0.161254  0  0.997618  0
H  H24  1  0.69704546  0.07865665  0.19402002  1  0  0.160005  0  0.929831  0  0  0.164616  0  0.995159  0  0  0.169291  0  0.991846  0  0  0.113248  0.161276  0  0.997564  0
H  H25  1  0.19704555  0.42134364  0.80598295  1  0  0.160062  0  0.929816  0  0  0.164597  0  0.99522  0  0  0.16927  0  0.99191  0  0  0.113255  0.161255  0  0.997623  0
C  C26  1  0.07066436  0.94530423  0.28971352  1  0  0.085173  0  3.691127  0  0  0.060597  0  3.94446  0  0  0.062392  0  3.96287  0  0  0.055382  0.059179  0  3.932195  0
C  C27  1  0.57066406  0.55469603  0.71028648  1  0  0.085159  0  3.691006  0  0  0.060556  0  3.944426  0  0  0.062351  0  3.962836  0  0  0.055368  0.059138  0  3.932152  0
C  C28  1  0.92932666  0.05469179  0.71029378  1  0  0.085091  0  3.690928  0  0  0.060537  0  3.944268  0  0  0.062334  0  3.962676  0  0  0.055406  0.059118  0  3.932006  0
C  C29  1  0.42933053  0.44530685  0.28970584  1  0  0.085034  0  3.690995  0  0  0.060498  0  3.944317  0  0  0.062294  0  3.962724  0  0  0.055375  0.05908  0  3.932046  0
C  C30  1  0.10696660  0.85946766  0.35772462  1  0  0.069115  0  3.706353  0  0  0.044228  0  3.969131  0  0  0.046575  0  3.985345  0  0  0.050653  0.042705  0  3.958134  0
C  C31  1  0.60696690  0.64053462  0.64227490  1  0  0.069089  0  3.706396  0  0  0.044174  0  3.969232  0  0  0.046521  0  3.985444  0  0  0.050637  0.042652  0  3.958228  0
C  C32  1  0.89303278  0.14053230  0.64228104  1  0  0.069131  0  3.706082  0  0  0.044219  0  3.969024  0  0  0.046567  0  3.985234  0  0  0.050653  0.042694  0  3.958027  0
C  C33  1  0.39303247  0.35946728  0.35771885  1  0  0.069116  0  3.706177  0  0  0.044219  0  3.969041  0  0  0.046565  0  3.985251  0  0  0.050636  0.042696  0  3.958037  0
C  C34  1  0.16401136  0.69596450  0.20057625  1  0  0.071199  0  3.657743  0  0  0.038167  0  3.921437  0  0  0.041296  0  3.936156  0  0  0.057364  0.035923  0  3.912127  0
C  C35  1  0.66401259  0.80403687  0.79942377  1  0  0.071268  0  3.657667  0  0  0.038216  0  3.921368  0  0  0.041347  0  3.936088  0  0  0.057378  0.035969  0  3.912061  0
C  C36  1  0.83598921  0.30403546  0.79942941  1  0  0.071348  0  3.657633  0  0  0.038242  0  3.921315  0  0  0.041373  0  3.936034  0  0  0.057366  0.036001  0  3.911997  0
C  C37  1  0.33599156  0.19596404  0.20057142  1  0  0.071264  0  3.657701  0  0  0.038219  0  3.921353  0  0  0.041347  0  3.936074  0  0  0.057383  0.035975  0  3.912044  0
C  C38  1  0.13023961  0.78176239  0.13126681  1  0  0.087171  0  3.714941  0  0  0.091174  0  3.959613  0  0  0.090236  0  3.977285  0  0  0.122712  0.091407  0  3.947807  0
C  C39  1  0.63024143  0.71823795  0.86873307  1  0  0.087085  0  3.715071  0  0  0.091093  0  3.95969  0  0  0.090153  0  3.977358  0  0  0.122673  0.091324  0  3.947883  0
C  C40  1  0.86975499  0.21823658  0.86873865  1  0  0.08695  0  3.715237  0  0  0.091135  0  3.959663  0  0  0.090201  0  3.977335  0  0  0.122725  0.091369  0  3.947854  0
C  C41  1  0.36975914  0.28176296  0.13126129  1  0  0.087007  0  3.715051  0  0  0.091141  0  3.959535  0  0  0.090205  0  3.97721  0  0  0.122701  0.091375  0  3.947727  0
C  C42  1  0.15527109  0.73325773  0.00514170  1  0  0.508748  0  3.872467  0  0  0.457092  0  4.163879  0  0  0.489176  0  4.162267  0  0  0.224552  0.435202  0  4.164335  0
C  C43  1  0.65527842  0.76674264  0.99485813  1  0  0.508607  0  3.872687  0  0  0.45702  0  4.163974  0  0  0.489115  0  4.162343  0  0  0.224545  0.435132  0  4.164427  0
C  C44  1  0.84472470  0.26674321  0.99486253  1  0  0.508497  0  3.872844  0  0  0.456809  0  4.164231  0  0  0.488888  0  4.16263  0  0  0.22446  0.434917  0  4.164683  0
C  C45  1  0.34472693  0.23325630  0.00513664  1  0  0.50854  0  3.872667  0  0  0.45686  0  4.164075  0  0  0.488938  0  4.162476  0  0  0.224485  0.43497  0  4.164528  0
C  C46  1  0.13292729  0.77070803  0.82117580  1  0  0.16255  0  3.847996  0  0  0.150739  0  4.10434  0  0  0.15822  0  4.127293  0  0  0.075943  0.145543  0  4.088875  0
C  C47  1  0.63292654  0.72929330  0.17882510  1  0  0.162408  0  3.848245  0  0  0.150722  0  4.104362  0  0  0.158201  0  4.127315  0  0  0.075894  0.145528  0  4.088899  0
C  C48  1  0.86707208  0.22929389  0.17882699  1  0  0.1622  0  3.848489  0  0  0.150638  0  4.104467  0  0  0.158116  0  4.127423  0  0  0.075873  0.145443  0  4.088999  0
C  C49  1  0.36707283  0.27070763  0.82117419  1  0  0.162353  0  3.848236  0  0  0.150646  0  4.104411  0  0  0.158127  0  4.127364  0  0  0.075877  0.145451  0  4.088944  0
C  C50  1  0.04277966  0.66394283  0.75924355  1  0  0.211371  0  3.756406  0  0  0.18782  0  4.047485  0  0  0.194163  0  4.059472  0  0  0.086462  0.183076  0  4.039575  0
C  C51  1  0.54278013  0.83605739  0.24075815  1  0  0.211345  0  3.756471  0  0  0.187826  0  4.047497  0  0  0.19417  0  4.059486  0  0  0.086492  0.183081  0  4.039595  0
C  C52  1  0.95722211  0.33605713  0.24075965  1  0  0.211373  0  3.756676  0  0  0.187854  0  4.047533  0  0  0.194198  0  4.059522  0  0  0.086491  0.183111  0  4.039623  0
C  C53  1  0.45722044  0.16394156  0.75924155  1  0  0.211329  0  3.756589  0  0  0.187814  0  4.047536  0  0  0.194158  0  4.059525  0  0  0.08647  0.183071  0  4.03963  0
C  C54  1  0.04379662  0.62497974  0.64202183  1  0  -0.136569  0  3.794851  0  0  -0.169021  0  4.070309  0  0  -0.169514  0  4.088458  0  0  -0.100678  -0.168306  0  4.057855  0
C  C55  1  0.54379783  0.87501850  0.35797863  1  0  -0.136249  0  3.794437  0  0  -0.168996  0  4.070353  0  0  -0.169488  0  4.088497  0  0  -0.100664  -0.168283  0  4.057915  0
C  C56  1  0.95620515  0.37502119  0.35797993  1  0  -0.136747  0  3.79514  0  0  -0.169011  0  4.070358  0  0  -0.169505  0  4.088504  0  0  -0.100639  -0.168297  0  4.0579  0
C  C57  1  0.45620393  0.12497848  0.64201902  1  0  -0.136465  0  3.794751  0  0  -0.169008  0  4.070359  0  0  -0.169505  0  4.088508  0  0  -0.100633  -0.168296  0  4.057914  0
C  C58  1  0.14312974  0.69037336  0.58167525  1  0  -0.193814  0  3.780771  0  0  -0.221632  0  4.053349  0  0  -0.226928  0  4.071897  0  0  -0.112773  -0.218108  0  4.040828  0
C  C59  1  0.64313046  0.80962403  0.41832481  1  0  -0.193795  0  3.780726  0  0  -0.221591  0  4.053398  0  0  -0.226886  0  4.071947  0  0  -0.112745  -0.218063  0  4.040867  0
C  C60  1  0.85687561  0.30962758  0.41832816  1  0  -0.19361  0  3.780472  0  0  -0.221434  0  4.053216  0  0  -0.226731  0  4.071768  0  0  -0.112688  -0.217923  0  4.040727  0
C  C61  1  0.35687011  0.19037196  0.58167345  1  0  -0.19361  0  3.780568  0  0  -0.22154  0  4.053338  0  0  -0.226835  0  4.071888  0  0  -0.112728  -0.218019  0  4.040826  0
C  C62  1  0.23608385  0.79351798  0.64329341  1  0  0.297151  0  3.824936  0  0  0.279959  0  4.111516  0  0  0.28996  0  4.124547  0  0  0.082782  0.273081  0  4.102799  0
C  C63  1  0.73608335  0.70648053  0.35670503  1  0  0.297061  0  3.8251  0  0  0.279897  0  4.111587  0  0  0.289897  0  4.124617  0  0  0.082745  0.273021  0  4.10287  0
C  C64  1  0.76391672  0.20648296  0.35671082  1  0  0.297834  0  3.823583  0  0  0.279775  0  4.111531  0  0  0.289774  0  4.124562  0  0  0.082732  0.272897  0  4.102808  0
C  C65  1  0.26391602  0.29351743  0.64329118  1  0  0.296987  0  3.825028  0  0  0.279851  0  4.111495  0  0  0.289851  0  4.124524  0  0  0.082718  0.272975  0  4.102772  0
C  C66  1  0.23292948  0.83669519  0.76071811  1  0  -0.250916  0  3.691559  0  0  -0.283049  0  3.95527  0  0  -0.289425  0  3.97317  0  0  -0.104696  -0.27884  0  3.943411  0
C  C67  1  0.73292823  0.66330530  0.23928074  1  0  -0.250933  0  3.691672  0  0  -0.283027  0  3.955301  0  0  -0.289402  0  3.973201  0  0  -0.104661  -0.278815  0  3.943437  0
C  C68  1  0.76707228  0.16330477  0.23928509  1  0  -0.250732  0  3.691233  0  0  -0.282928  0  3.955153  0  0  -0.289303  0  3.973054  0  0  -0.104626  -0.278716  0  3.943291  0
C  C69  1  0.26707234  0.33669463  0.76071588  1  0  -0.250818  0  3.691563  0  0  -0.282958  0  3.955195  0  0  -0.289334  0  3.973094  0  0  -0.10465  -0.278747  0  3.94333  0
N  N70  1  0.08204936  0.90582239  0.17685639  1  0  -0.280975  0  3.181041  0  0  -0.232353  0  3.445722  0  0  -0.243464  0  3.462622  0  0  -0.289259  -0.224087  0  3.43407  0
N  N71  1  0.58205103  0.59417887  0.82314298  1  0  -0.280874  0  3.18102  0  0  -0.232267  0  3.445713  0  0  -0.243379  0  3.462615  0  0  -0.289241  -0.224002  0  3.434059  0
N  N72  1  0.91794165  0.09417560  0.82314969  1  0  -0.28075  0  3.180833  0  0  -0.232172  0  3.445427  0  0  -0.243287  0  3.462331  0  0  -0.289236  -0.223902  0  3.433767  0
N  N73  1  0.41794596  0.40582402  0.17685098  1  0  -0.280752  0  3.180843  0  0  -0.232151  0  3.445441  0  0  -0.243265  0  3.462344  0  0  -0.289207  -0.223883  0  3.433778  0
N  N74  1  0.15272791  0.73444539  0.31355096  1  0  -0.252348  0  3.063456  0  0  -0.222244  0  3.343781  0  0  -0.229354  0  3.35726  0  0  -0.299711  -0.217208  0  3.334694  0
N  N75  1  0.65272599  0.76555597  0.68644909  1  0  -0.252312  0  3.063505  0  0  -0.222205  0  3.343848  0  0  -0.229316  0  3.357328  0  0  -0.299692  -0.21717  0  3.334764  0
N  N76  1  0.84727505  0.26555259  0.68645347  1  0  -0.252396  0  3.063368  0  0  -0.222299  0  3.343776  0  0  -0.22941  0  3.357255  0  0  -0.299727  -0.21726  0  3.334686  0
N  N77  1  0.34727578  0.23444593  0.31354549  1  0  -0.252267  0  3.063298  0  0  -0.22229  0  3.343875  0  0  -0.2294  0  3.357355  0  0  -0.29974  -0.217254  0  3.334789  0
N  N78  1  0.11586601  0.81560885  0.93988300  1  0  -0.482582  0  3.257477  0  0  -0.394072  0  3.539407  0  0  -0.427641  0  3.555018  0  0  -0.358974  -0.370636  0  3.528207  0
N  N79  1  0.61586332  0.68439344  0.06011732  1  0  -0.482577  0  3.257558  0  0  -0.394105  0  3.53941  0  0  -0.427675  0  3.555014  0  0  -0.358972  -0.370668  0  3.528208  0
N  N80  1  0.88413456  0.18439210  0.06012123  1  0  -0.482448  0  3.257581  0  0  -0.393971  0  3.539419  0  0  -0.427532  0  3.555027  0  0  -0.358932  -0.370532  0  3.528215  0
N  N81  1  0.38413725  0.31560846  0.93987889  1  0  -0.482445  0  3.257409  0  0  -0.393961  0  3.539299  0  0  -0.427528  0  3.554918  0  0  -0.358939  -0.370521  0  3.528091  0
O  O82  1  0.21467761  0.62086330  0.96750458  1  0  -0.572308  0  1.975386  0  0  -0.528347  0  2.223714  0  0  -0.552226  0  2.215333  0  0  -0.309864  -0.510924  0  2.228983  0
O  O83  1  0.71469238  0.87913222  0.03249409  1  0  -0.572146  0  1.975398  0  0  -0.528237  0  2.223754  0  0  -0.552121  0  2.215365  0  0  -0.309818  -0.510819  0  2.229035  0
O  O84  1  0.78531698  0.37913666  0.03250191  1  0  -0.572116  0  1.975488  0  0  -0.528162  0  2.223822  0  0  -0.552041  0  2.215445  0  0  -0.309793  -0.510749  0  2.229114  0
O  O85  1  0.28531895  0.12086375  0.96749841  1  0  -0.572129  0  1.975506  0  0  -0.528179  0  2.223857  0  0  -0.552057  0  2.21548  0  0  -0.309777  -0.510764  0  2.229142  0
F  F86  1  0.94524850  0.59869424  0.81689689  1  0  -0.195882  0  1.26249  0  0  -0.128782  0  1.421463  0  0  -0.139688  0  1.415165  0  0  -0.088664  -0.120801  0  1.425754  0
F  F87  1  0.44525037  0.90130854  0.18310442  1  0  -0.195903  0  1.262405  0  0  -0.128808  0  1.421397  0  0  -0.139715  0  1.4151  0  0  -0.088686  -0.120824  0  1.425691  0
F  F88  1  0.05474968  0.40130768  0.18310426  1  0  -0.195866  0  1.262432  0  0  -0.128811  0  1.421416  0  0  -0.139718  0  1.415117  0  0  -0.088685  -0.120829  0  1.425707  0
F  F89  1  0.55475139  0.09869337  0.81689426  1  0  -0.195866  0  1.262521  0  0  -0.128777  0  1.421505  0  0  -0.139684  0  1.415207  0  0  -0.088662  -0.120794  0  1.425796  0
F  F90  1  0.33368099  0.85738103  0.58372932  1  0  -0.225479  0  1.241825  0  0  -0.157113  0  1.402518  0  0  -0.16849  0  1.39571  0  0  -0.098442  -0.148827  0  1.406965  0
F  F91  1  0.83368001  0.64261564  0.41626686  1  0  -0.225433  0  1.241823  0  0  -0.157104  0  1.402507  0  0  -0.168481  0  1.395699  0  0  -0.098446  -0.148819  0  1.406953  0
F  F92  1  0.66631958  0.14261991  0.41627409  1  0  -0.225881  0  1.241715  0  0  -0.157122  0  1.402561  0  0  -0.168499  0  1.395751  0  0  -0.098487  -0.148835  0  1.40701  0
F  F93  1  0.16631936  0.35738034  0.58372811  1  0  -0.225493  0  1.241895  0  0  -0.157113  0  1.402538  0  0  -0.168489  0  1.395729  0  0  -0.098459  -0.148829  0  1.406984  0
