# generated using pymatgen
data_ZnH15C11Br(NO)2
_symmetry_space_group_name_H-M   'P 1'
_cell_length_a   10.47026143
_cell_length_b   17.74548663
_cell_length_c   17.74521026
_cell_angle_alpha   120.00254993
_cell_angle_beta   90.00001041
_cell_angle_gamma   89.99998372
_symmetry_Int_Tables_number   1
_chemical_formula_structural   ZnH15C11Br(NO)2
_chemical_formula_sum   'Zn6 H90 C66 Br6 N12 O12'
_cell_volume   2855.26262444
_cell_formula_units_Z   6
loop_
 _symmetry_equiv_pos_site_id
 _symmetry_equiv_pos_as_xyz
  1  'x, y, z'
loop_
 _atom_site_type_symbol
 _atom_site_label
 _atom_site_symmetry_multiplicity
 _atom_site_fract_x
 _atom_site_fract_y
 _atom_site_fract_z
 _atom_site_occupancy
 _atom_site_pbe_bader_charge
 _atom_site_pbe_bader_spin_density
 _atom_site_pbe_cm5_charge
 _atom_site_pbe_ddec_charge
 _atom_site_pbe_ddec_spin_density
 _atom_site_pbe_ddec_sum_bond_order
 _atom_site_pbe_magmom
Zn  Zn0  1  0.73346581  0.54403770  0.07514953  1  1.159587  0  0.594392  0.687742  0  2.480905  0
Zn  Zn1  1  0.56684551  0.07514389  0.53102848  1  1.157812  0  0.594421  0.687765  0  2.482457  0
Zn  Zn2  1  0.40019625  0.53110266  0.45593988  1  1.158748  0  0.594511  0.687716  0  2.481374  0
Zn  Zn3  1  0.23346603  0.45596288  0.92485045  1  1.159596  0  0.59438  0.687713  0  2.480945  0
Zn  Zn4  1  0.06684536  0.92485639  0.46897182  1  1.157822  0  0.594433  0.687784  0  2.48245  0
Zn  Zn5  1  0.90019621  0.46889756  0.54406044  1  1.158762  0  0.594516  0.687726  0  2.481344  0
H  H6  1  0.84017007  0.47446204  0.92632883  1  0.437897  0  0.294578  0.249666  0  0.978588  0
H  H7  1  0.67356947  0.92630827  0.45185406  1  0.454449  0  0.295178  0.250849  0  0.977858  0
H  H8  1  0.50692428  0.45186465  0.52555478  1  0.447022  0  0.294804  0.250032  0  0.979224  0
H  H9  1  0.34017095  0.52553795  0.07367060  1  0.437888  0  0.294578  0.249681  0  0.978551  0
H  H10  1  0.17356975  0.07369143  0.54814568  1  0.454448  0  0.295181  0.250854  0  0.977848  0
H  H11  1  0.00692431  0.54813451  0.47444440  1  0.447012  0  0.294812  0.250008  0  0.979226  0
H  H12  1  0.61601424  0.47371816  0.84393885  1  0.045444  0  0.111142  0.078753  0  0.994079  0
H  H13  1  0.44935444  0.84396353  0.37025546  1  0.091401  0  0.111406  0.079317  0  0.993612  0
H  H14  1  0.28273505  0.37026019  0.52629566  1  0.052336  0  0.11121  0.079025  0  0.993877  0
H  H15  1  0.11601419  0.52628130  0.15606000  1  0.045408  0  0.111161  0.07878  0  0.994056  0
H  H16  1  0.94935458  0.15603612  0.62974430  1  0.0914  0  0.111392  0.07929  0  0.993662  0
H  H17  1  0.78273491  0.62973973  0.47370497  1  0.052346  0  0.111212  0.079015  0  0.993872  0
H  H18  1  0.59213903  0.32290380  0.79940713  1  0.075773  0  0.092907  0.071404  0  0.98905  0
H  H19  1  0.42551361  0.79944657  0.47652629  1  0.061222  0  0.092822  0.071292  0  0.989054  0
H  H20  1  0.25879391  0.47652107  0.67710204  1  0.064213  0  0.092999  0.071549  0  0.989099  0
H  H21  1  0.09213892  0.67709591  0.20059261  1  0.075783  0  0.092911  0.071415  0  0.989039  0
H  H22  1  0.92551369  0.20055365  0.52347403  1  0.061223  0  0.092831  0.071323  0  0.989009  0
H  H23  1  0.75879378  0.52347885  0.32289859  1  0.064201  0  0.093  0.07155  0  0.989095  0
H  H24  1  0.74083067  0.24323656  0.84213334  1  0.024374  0  0.07824  0.120215  0  1.023515  0
H  H25  1  0.57416607  0.84214577  0.59898107  1  0.015259  0  0.078313  0.120601  0  1.023872  0
H  H26  1  0.40750556  0.59893430  0.75680974  1  0.058061  0  0.078187  0.120321  0  1.024343  0
H  H27  1  0.24083050  0.75676313  0.15786641  1  0.024382  0  0.078247  0.120222  0  1.023501  0
H  H28  1  0.07416627  0.15785362  0.40101900  1  0.015182  0  0.078329  0.120625  0  1.023847  0
H  H29  1  0.90750546  0.40106625  0.24319025  1  0.058058  0  0.078191  0.120339  0  1.024365  0
H  H30  1  0.64953877  0.31924325  0.93270090  1  0.039787  0  0.081785  0.12358  0  1.010025  0
H  H31  1  0.48285028  0.93271860  0.61348202  1  0.050461  0  0.081847  0.123906  0  1.009568  0
H  H32  1  0.31622224  0.61348921  0.68077354  1  0.037021  0  0.082048  0.123857  0  1.008775  0
H  H33  1  0.14953957  0.68075645  0.06729885  1  0.039787  0  0.081803  0.123617  0  1.009993  0
H  H34  1  0.98285038  0.06728162  0.38651830  1  0.05046  0  0.081843  0.123913  0  1.009568  0
H  H35  1  0.81622217  0.38651103  0.31922677  1  0.037018  0  0.082041  0.123852  0  1.008782  0
H  H36  1  0.81071716  0.34265749  0.92361158  1  0.008023  0  0.074039  0.101636  0  1.049942  0
H  H37  1  0.64405351  0.92363939  0.58100808  1  0.007259  0  0.073983  0.101898  0  1.049732  0
H  H38  1  0.47740351  0.58095651  0.65737181  1  -0.012211  0  0.074068  0.101865  0  1.04958  0
H  H39  1  0.31071798  0.65734308  0.07638841  1  0.008017  0  0.074041  0.101655  0  1.049918  0
H  H40  1  0.14405376  0.07636087  0.41899223  1  0.007255  0  0.073977  0.101886  0  1.049747  0
H  H41  1  0.97740344  0.41904370  0.34262851  1  -0.012212  0  0.074058  0.101846  0  1.049628  0
H  H42  1  0.87448918  0.36282274  0.78758146  1  0.015418  0  0.076711  0.102885  0  1.041039  0
H  H43  1  0.70782365  0.78754214  0.42475461  1  0.000749  0  0.076595  0.102932  0  1.041132  0
H  H44  1  0.54116986  0.42477544  0.63720452  1  -0.009744  0  0.076663  0.103074  0  1.041156  0
H  H45  1  0.37449005  0.63717749  0.21241886  1  0.015406  0  0.076713  0.102875  0  1.041057  0
H  H46  1  0.20782293  0.21245844  0.57524538  1  0.000763  0  0.076579  0.10292  0  1.041166  0
H  H47  1  0.04116985  0.57522395  0.36279555  1  -0.009744  0  0.076654  0.103036  0  1.041151  0
H  H48  1  0.74886576  0.36776783  0.72269726  1  0.013356  0  0.081855  0.116278  0  1.010132  0
H  H49  1  0.58216395  0.72269033  0.35494052  1  0.018242  0  0.081986  0.116662  0  1.010645  0
H  H50  1  0.41554933  0.35495280  0.63224627  1  -0.021663  0  0.082167  0.117017  0  1.009558  0
H  H51  1  0.24886569  0.63223241  0.27730305  1  0.013356  0  0.081856  0.11628  0  1.010134  0
H  H52  1  0.08216417  0.27731027  0.64505947  1  0.018236  0  0.08198  0.11666  0  1.010645  0
H  H53  1  0.91554915  0.64504799  0.36775461  1  -0.021667  0  0.082151  0.116987  0  1.009514  0
H  H54  1  0.78672921  0.26731243  0.71672327  1  0.018097  0  0.079476  0.117805  0  1.038638  0
H  H55  1  0.62003695  0.71669352  0.44942295  1  0.046216  0  0.079974  0.118702  0  1.037687  0
H  H56  1  0.45340225  0.44941465  0.73271183  1  0.06296  0  0.079749  0.118315  0  1.038107  0
H  H57  1  0.28672910  0.73268757  0.28327616  1  0.018102  0  0.07947  0.117808  0  1.038664  0
H  H58  1  0.12003618  0.28330675  0.55057736  1  0.046215  0  0.079983  0.118726  0  1.037625  0
H  H59  1  0.95340113  0.55058556  0.26728849  1  0.062967  0  0.079762  0.11833  0  1.038107  0
H  H60  1  0.68424649  0.56645023  0.66788290  1  0.106966  0  0.116013  0.08837  0  1.035063  0
H  H61  1  0.51756573  0.66793972  0.10147369  1  0.123341  0  0.116038  0.08825  0  1.034732  0
H  H62  1  0.35092633  0.10141809  0.43346672  1  0.117441  0  0.115968  0.08807  0  1.035098  0
H  H63  1  0.18424654  0.43355003  0.33211741  1  0.106955  0  0.115998  0.08834  0  1.03509  0
H  H64  1  0.01756600  0.33206056  0.89852661  1  0.12336  0  0.116036  0.088257  0  1.034721  0
H  H65  1  0.85092514  0.89858158  0.56653303  1  0.117435  0  0.115963  0.088083  0  1.035098  0
H  H66  1  0.03318159  0.47109916  0.69220382  1  0.166434  0  0.121125  0.100231  0  1.017466  0
H  H67  1  0.86650736  0.69220871  0.22109280  1  0.164839  0  0.121213  0.10019  0  1.017709  0
H  H68  1  0.69979249  0.22110763  0.52887467  1  0.156999  0  0.121216  0.100447  0  1.01777  0
H  H69  1  0.53318145  0.52890201  0.30779673  1  0.166396  0  0.121121  0.100214  0  1.017503  0
H  H70  1  0.36650761  0.30779152  0.77890752  1  0.164842  0  0.121224  0.10022  0  1.017674  0
H  H71  1  0.19979241  0.77889263  0.47112564  1  0.156993  0  0.121216  0.100445  0  1.017757  0
H  H72  1  0.62690123  0.61683156  0.82282915  1  0.083906  0  0.112993  0.122272  0  0.994686  0
H  H73  1  0.46023476  0.82285613  0.20600012  1  0.06793  0  0.113292  0.122766  0  0.995154  0
H  H74  1  0.29347119  0.20599328  0.38313189  1  0.089539  0  0.113142  0.122622  0  0.994435  0
H  H75  1  0.12690221  0.38316871  0.17717116  1  0.083926  0  0.112999  0.122263  0  0.994708  0
H  H76  1  0.96023494  0.17714408  0.79400020  1  0.067933  0  0.113294  0.122781  0  0.995148  0
H  H77  1  0.79347102  0.79400696  0.61686842  1  0.089535  0  0.113147  0.122624  0  0.994425  0
H  H78  1  0.99207361  0.51690539  0.84756394  1  0.119335  0  0.099726  0.117986  0  1.04865  0
H  H79  1  0.82540331  0.84756656  0.33065331  1  0.120607  0  0.099472  0.11782  0  1.049764  0
H  H80  1  0.65862061  0.33062651  0.48307169  1  0.127916  0  0.099583  0.117442  0  1.049245  0
H  H81  1  0.49207454  0.48309483  0.15243638  1  0.119328  0  0.099716  0.117959  0  1.048682  0
H  H82  1  0.32540264  0.15243312  0.66934644  1  0.1206  0  0.099498  0.117891  0  1.049745  0
H  H83  1  0.15861964  0.66937376  0.51692862  1  0.127929  0  0.099543  0.117354  0  1.049333  0
H  H84  1  0.68295334  0.62637829  0.96157464  1  0.041835  0  0.110864  0.09508  0  0.971387  0
H  H85  1  0.51634318  0.96161192  0.33522783  1  0.055403  0  0.110896  0.094736  0  0.971068  0
H  H86  1  0.34966460  0.33525015  0.37364633  1  0.052392  0  0.110931  0.095209  0  0.971537  0
H  H87  1  0.18295428  0.37362140  0.03842511  1  0.041846  0  0.110849  0.095071  0  0.971413  0
H  H88  1  0.01634257  0.03838780  0.66477191  1  0.0554  0  0.110895  0.094729  0  0.971061  0
H  H89  1  0.84966544  0.66474839  0.62635229  1  0.052402  0  0.110934  0.095199  0  0.971587  0
H  H90  1  0.84886706  0.62511405  0.98375256  1  0.095016  0  0.119432  0.117855  0  0.958439  0
H  H91  1  0.68227314  0.98380341  0.35866697  1  0.09894  0  0.119313  0.11712  0  0.958779  0
H  H92  1  0.51556876  0.35864055  0.37489623  1  0.096224  0  0.119323  0.117594  0  0.958575  0
H  H93  1  0.34886704  0.37488529  0.01624752  1  0.095019  0  0.119437  0.117857  0  0.95844  0
H  H94  1  0.18227348  0.01619652  0.64133367  1  0.09893  0  0.119306  0.117094  0  0.958767  0
H  H95  1  0.01556880  0.64135894  0.62510262  1  0.096239  0  0.119293  0.117545  0  0.958575  0
C  C96  1  0.52938319  0.46406349  0.94595543  1  1.594608  0  0.209682  0.576409  0  4.151753  0
C  C97  1  0.36276252  0.94600643  0.48194344  1  1.585742  0  0.209326  0.575269  0  4.153244  0
C  C98  1  0.19604283  0.48193000  0.53595427  1  1.588572  0  0.209532  0.575648  0  4.152444  0
C  C99  1  0.02938405  0.53593567  0.05404375  1  1.594657  0  0.209677  0.57642  0  4.15172  0
C  C100  1  0.86276267  0.05399292  0.51805663  1  1.58545  0  0.209293  0.575223  0  4.153159  0
C  C101  1  0.69604274  0.51806970  0.46404548  1  1.58877  0  0.20955  0.5757  0  4.152266  0
C  C102  1  0.64738023  0.45154666  0.88903660  1  0.284653  0  -0.001398  -0.043874  0  3.796946  0
C  C103  1  0.48077963  0.88905469  0.43751842  1  0.244285  0  -0.001534  -0.044136  0  3.797939  0
C  C104  1  0.31409911  0.43753118  0.54847508  1  0.288973  0  -0.001128  -0.043562  0  3.795794  0
C  C105  1  0.14738111  0.54845336  0.11096282  1  0.284698  0  -0.001436  -0.04391  0  3.796935  0
C  C106  1  0.98078073  0.11094520  0.56248222  1  0.244472  0  -0.001514  -0.044065  0  3.797943  0
C  C107  1  0.81409900  0.56246817  0.45152500  1  0.288768  0  -0.001134  -0.043545  0  3.795761  0
C  C108  1  0.68186745  0.35440672  0.83228077  1  0.018481  0  -0.093476  0.081581  0  3.868469  0
C  C109  1  0.51526876  0.83229398  0.47790614  1  0.046295  0  -0.093528  0.081992  0  3.868759  0
C  C110  1  0.34853092  0.47790855  0.64561937  1  0.015227  0  -0.093803  0.081219  0  3.869404  0
C  C111  1  0.18186830  0.64559297  0.16771898  1  0.018471  0  -0.093473  0.081569  0  3.868559  0
C  C112  1  0.01526900  0.16770631  0.52209416  1  0.046324  0  -0.093528  0.081958  0  3.868704  0
C  C113  1  0.84852984  0.52209169  0.35438094  1  0.015238  0  -0.093821  0.081171  0  3.86942  0
C  C114  1  0.72331438  0.31295513  0.88591440  1  -0.060187  0  -0.254474  -0.394108  0  3.91562  0
C  C115  1  0.55667461  0.88593050  0.57304625  1  -0.08135  0  -0.254554  -0.395213  0  3.915483  0
C  C116  1  0.38998736  0.57300103  0.68709443  1  -0.069872  0  -0.25472  -0.394685  0  3.914705  0
C  C117  1  0.22331424  0.68704455  0.11408535  1  -0.060191  0  -0.25448  -0.394134  0  3.915554  0
C  C118  1  0.05667484  0.11406945  0.42695439  1  -0.081285  0  -0.254543  -0.395208  0  3.915476  0
C  C119  1  0.88998727  0.42699864  0.31290532  1  -0.069864  0  -0.254726  -0.394696  0  3.914729  0
C  C120  1  0.77885356  0.33783452  0.76117054  1  -0.062994  0  -0.252075  -0.393814  0  3.924943  0
C  C121  1  0.61218421  0.76114492  0.42335119  1  -0.077842  0  -0.252441  -0.395182  0  3.925779  0
C  C122  1  0.44552851  0.42336340  0.66219139  1  -0.04004  0  -0.252445  -0.395199  0  3.924229  0
C  C123  1  0.27885347  0.66216516  0.23882921  1  -0.062972  0  -0.25209  -0.393831  0  3.92506  0
C  C124  1  0.11218348  0.23885535  0.57664912  1  -0.077855  0  -0.252441  -0.395206  0  3.925766  0
C  C125  1  0.94552836  0.57663626  0.33780836  1  -0.040033  0  -0.252403  -0.395094  0  3.924146  0
C  C126  1  0.74907392  0.55707685  0.71051215  1  0.502387  0  0.04433  0.087626  0  3.945396  0
C  C127  1  0.58242084  0.71056998  0.15346018  1  0.439718  0  0.044639  0.089434  0  3.945054  0
C  C128  1  0.41577762  0.15339621  0.44281340  1  0.453446  0  0.044729  0.089007  0  3.945335  0
C  C129  1  0.24907490  0.44292396  0.28948872  1  0.50241  0  0.044354  0.087686  0  3.945373  0
C  C130  1  0.08242112  0.28943062  0.84653980  1  0.439694  0  0.044637  0.089412  0  3.945082  0
C  C131  1  0.91577740  0.84660401  0.55718691  1  0.453443  0  0.044721  0.088949  0  3.945304  0
C  C132  1  0.94411300  0.50274619  0.72385125  1  0.475497  0  0.052918  0.104364  0  3.900167  0
C  C133  1  0.77745323  0.72386811  0.22109200  1  0.431176  0  0.052275  0.104336  0  3.899351  0
C  C134  1  0.61071925  0.22110363  0.49723487  1  0.425066  0  0.052525  0.104059  0  3.900535  0
C  C135  1  0.44411395  0.49725459  0.27614963  1  0.475513  0  0.052929  0.104365  0  3.900185  0
C  C136  1  0.27745253  0.27613157  0.77890774  1  0.431183  0  0.052255  0.104273  0  3.899348  0
C  C137  1  0.11071823  0.77889664  0.50276543  1  0.425035  0  0.052545  0.104088  0  3.900509  0
C  C138  1  0.71823133  0.58466264  0.79676544  1  -0.065761  0  -0.081839  -0.184386  0  3.952415  0
C  C139  1  0.55160593  0.79683341  0.21209509  1  0.026826  0  -0.082009  -0.185117  0  3.954297  0
C  C140  1  0.38481180  0.21209344  0.41528814  1  0.000218  0  -0.081964  -0.185246  0  3.951266  0
C  C141  1  0.21823230  0.41533761  0.20323487  1  -0.065743  0  -0.081868  -0.184394  0  3.952465  0
C  C142  1  0.05160623  0.20316686  0.78790522  1  0.026842  0  -0.082044  -0.185189  0  3.954204  0
C  C143  1  0.88481162  0.78790622  0.58471161  1  0.000214  0  -0.081965  -0.185231  0  3.951233  0
C  C144  1  0.80380323  0.56887568  0.84782939  1  -0.065113  0  0.011814  0.140936  0  3.943086  0
C  C145  1  0.63719978  0.84789821  0.27892626  1  -0.055103  0  0.011243  0.138917  0  3.945068  0
C  C146  1  0.47037507  0.27895463  0.43110904  1  -0.071231  0  0.011755  0.140798  0  3.943573  0
C  C147  1  0.30380322  0.43112456  0.15217092  1  -0.065042  0  0.011823  0.140911  0  3.943169  0
C  C148  1  0.13720009  0.15210149  0.72107349  1  -0.055029  0  0.011304  0.139027  0  3.944949  0
C  C149  1  0.97037397  0.72104479  0.56888982  1  -0.071026  0  0.011775  0.140856  0  3.943541  0
C  C150  1  0.91991781  0.52860607  0.81024352  1  -0.033199  0  -0.079767  -0.166327  0  3.928159  0
C  C151  1  0.75327330  0.81026538  0.28160723  1  -0.001085  0  -0.079507  -0.16559  0  3.927977  0
C  C152  1  0.58644859  0.28162875  0.47139827  1  0.009068  0  -0.079849  -0.165862  0  3.929356  0
C  C153  1  0.41991780  0.47139448  0.18975647  1  -0.033183  0  -0.07974  -0.166256  0  3.928145  0
C  C154  1  0.25327359  0.18973431  0.71839252  1  -0.001162  0  -0.079569  -0.165713  0  3.928041  0
C  C155  1  0.08644761  0.71837153  0.52860203  1  0.008904  0  -0.079818  -0.165797  0  3.929354  0
C  C156  1  0.77134846  0.58811626  0.93846183  1  0.280775  0  -0.064488  -0.092003  0  3.89546  0
C  C157  1  0.60476314  0.93850513  0.35035535  1  0.255671  0  -0.063621  -0.0888  0  3.893944  0
C  C158  1  0.43805208  0.35037362  0.41191279  1  0.259639  0  -0.064026  -0.091035  0  3.894474  0
C  C159  1  0.27134844  0.41188399  0.06153848  1  0.2807  0  -0.064469  -0.091966  0  3.895483  0
C  C160  1  0.10476347  0.06149458  0.64964439  1  0.255683  0  -0.063671  -0.088829  0  3.894043  0
C  C161  1  0.93805197  0.64962580  0.58808607  1  0.25964  0  -0.064013  -0.091014  0  3.894537  0
Br  Br162  1  0.75257520  0.44480974  0.12712395  1  -0.604746  0  -0.29353  -0.487516  0  1.187349  0
Br  Br163  1  0.58548593  0.12750544  0.68228348  1  -0.6036  0  -0.29319  -0.487326  0  1.189221  0
Br  Br164  1  0.41907637  0.68232542  0.55497407  1  -0.605006  0  -0.293408  -0.487447  0  1.188535  0
Br  Br165  1  0.25257536  0.55519051  0.87287636  1  -0.60475  0  -0.29352  -0.487508  0  1.187371  0
Br  Br166  1  0.08548672  0.87249459  0.31771594  1  -0.603614  0  -0.293185  -0.487329  0  1.189213  0
Br  Br167  1  0.91907637  0.31767481  0.44502624  1  -0.605002  0  -0.293407  -0.487452  0  1.188508  0
N  N168  1  0.75439379  0.50715078  0.94275883  1  -1.06297  0  -0.475136  -0.318978  0  3.48077  0
N  N169  1  0.58779987  0.94275774  0.43560922  1  -1.075777  0  -0.47642  -0.321665  0  3.482607  0
N  N170  1  0.42113081  0.43564577  0.49288209  1  -1.067074  0  -0.475662  -0.320017  0  3.48007  0
N  N171  1  0.25439468  0.49284890  0.05724092  1  -1.062979  0  -0.475119  -0.318999  0  3.480796  0
N  N172  1  0.08780017  0.05724165  0.56439085  1  -1.075688  0  -0.476386  -0.321644  0  3.482753  0
N  N173  1  0.92113167  0.56435389  0.50711766  1  -1.067105  0  -0.475656  -0.319971  0  3.480081  0
N  N174  1  0.85927652  0.51561396  0.67400914  1  -1.24456  0  -0.328203  -0.215798  0  3.549903  0
N  N175  1  0.69259384  0.67402870  0.15839486  1  -1.266553  0  -0.327817  -0.21665  0  3.550165  0
N  N176  1  0.52594010  0.15834608  0.48429044  1  -1.2592  0  -0.327987  -0.216427  0  3.551333  0
N  N177  1  0.35927750  0.48438627  0.32599117  1  -1.244586  0  -0.328224  -0.21584  0  3.549932  0
N  N178  1  0.19259410  0.32597100  0.84160488  1  -1.266563  0  -0.327811  -0.2166  0  3.550206  0
N  N179  1  0.02593906  0.84165364  0.51570930  1  -1.259208  0  -0.328005  -0.216444  0  3.55137  0
O  O180  1  0.53434757  0.51762770  0.02764742  1  -1.204382  0  -0.319614  -0.552562  0  2.290777  0
O  O181  1  0.36767666  0.02768838  0.51000524  1  -1.199198  0  -0.319275  -0.551944  0  2.29127  0
O  O182  1  0.20095768  0.51003810  0.48238146  1  -1.197921  0  -0.319525  -0.552459  0  2.290855  0
O  O183  1  0.03434875  0.48237202  0.97235232  1  -1.204418  0  -0.319614  -0.552564  0  2.290758  0
O  O184  1  0.86767827  0.97231129  0.48999451  1  -1.199231  0  -0.319272  -0.551908  0  2.29121  0
O  O185  1  0.70095763  0.48996216  0.51761885  1  -1.197924  0  -0.319575  -0.552559  0  2.290797  0
O  O186  1  0.43256708  0.41967361  0.90551875  1  -1.203256  0  -0.320414  -0.55345  0  2.38257  0
O  O187  1  0.26595788  0.90560106  0.48597012  1  -1.203831  0  -0.32027  -0.553025  0  2.382938  0
O  O188  1  0.09924964  0.48588840  0.58036484  1  -1.207121  0  -0.320276  -0.55291  0  2.383407  0
O  O189  1  0.93256780  0.58032548  0.09448044  1  -1.203253  0  -0.320413  -0.553477  0  2.382611  0
O  O190  1  0.76595896  0.09439797  0.51403028  1  -1.203807  0  -0.320245  -0.553015  0  2.382896  0
O  O191  1  0.59924859  0.51411211  0.41963636  1  -1.207118  0  -0.32023  -0.552859  0  2.383338  0
