# generated using pymatgen
data_CuH10C8BrN2
_symmetry_space_group_name_H-M   'P 1'
_cell_length_a   10.80300280
_cell_length_b   10.80343523
_cell_length_c   11.26539547
_cell_angle_alpha   111.43538703
_cell_angle_beta   111.43064768
_cell_angle_gamma   104.22881624
_symmetry_Int_Tables_number   1
_chemical_formula_structural   CuH10C8BrN2
_chemical_formula_sum   'Cu4 H40 C32 Br4 N8'
_cell_volume   1024.25489896
_cell_formula_units_Z   4
loop_
 _symmetry_equiv_pos_site_id
 _symmetry_equiv_pos_as_xyz
  1  'x, y, z'
loop_
 _atom_site_type_symbol
 _atom_site_label
 _atom_site_symmetry_multiplicity
 _atom_site_fract_x
 _atom_site_fract_y
 _atom_site_fract_z
 _atom_site_occupancy
 _atom_site_pbe_bader_spin_density
 _atom_site_pbe_cm5_charge
 _atom_site_pbe_ddec_charge
 _atom_site_pbe_ddec_spin_density
 _atom_site_pbe_ddec_sum_bond_order
 _atom_site_pbe_magmom
Cu  Cu0  1  0.60699030  0.57736216  0.94512658  1  0  0.44914  0.319248  0  2.619979  0
Cu  Cu1  1  0.42257270  0.39295574  0.05483605  1  0  0.44893  0.319082  0  2.619318  0
Cu  Cu2  1  0.88783228  0.81669426  0.96191665  1  0  0.450739  0.335677  0  2.537562  0
Cu  Cu3  1  0.18330338  0.11214438  0.03814594  1  0  0.450931  0.336041  0  2.537321  0
H  H4  1  0.92717771  0.69185159  0.64650525  1  0  0.103172  0.121244  0  0.960899  0
H  H5  1  0.30825624  0.07284526  0.35356470  1  0  0.103297  0.121349  0  0.961057  0
H  H6  1  0.89743249  0.83925230  0.74840993  1  0  0.090064  0.105525  0  1.057282  0
H  H7  1  0.16083910  0.10253565  0.25161990  1  0  0.0901  0.105706  0  1.057563  0
H  H8  1  0.38548708  0.35398882  0.73011520  1  0  0.091843  0.104942  0  1.040868  0
H  H9  1  0.64603580  0.61452908  0.26989240  1  0  0.091836  0.104878  0  1.040864  0
H  H10  1  0.44274343  0.22473050  0.65075356  1  0  0.104815  0.129081  0  0.964422  0
H  H11  1  0.77527995  0.55727677  0.34926717  1  0  0.104799  0.129024  0  0.964416  0
H  H12  1  0.64023305  0.84600060  0.42298565  1  0  0.087063  0.125372  0  0.993453  0
H  H13  1  0.15403082  0.35979686  0.57698272  1  0  0.087056  0.125347  0  0.993553  0
H  H14  1  0.74345906  0.93882626  0.61995798  1  0  0.091149  0.137037  0  0.994951  0
H  H15  1  0.06123161  0.25654750  0.38000835  1  0  0.091141  0.137091  0  0.994953  0
H  H16  1  0.58629405  0.76550062  0.51878266  1  0  0.076342  0.098558  0  1.046718  0
H  H17  1  0.23456733  0.41369912  0.48119512  1  0  0.076324  0.09848  0  1.046975  0
H  H18  1  0.87375261  0.86480031  0.41497994  1  0  0.076952  0.131086  0  1.044173  0
H  H19  1  0.13520680  0.12627484  0.58502115  1  0  0.077049  0.131142  0  1.044182  0
H  H20  1  0.98518342  0.79262163  0.49959091  1  0  0.079857  0.106181  0  1.033941  0
H  H21  1  0.20739088  0.01483348  0.50041364  1  0  0.079889  0.106161  0  1.034006  0
H  H22  1  0.97980381  0.95514275  0.61154933  1  0  0.074091  0.133328  0  1.056965  0
H  H23  1  0.04487926  0.02022025  0.38845153  1  0  0.074112  0.133285  0  1.056839  0
H  H24  1  0.47115206  0.05679857  0.01456628  1  0  0.105635  0.130789  0  0.952999  0
H  H25  1  0.94317452  0.52883197  0.98542021  1  0  0.105609  0.130815  0  0.953088  0
H  H26  1  0.30493436  0.01871633  0.86770057  1  0  0.088121  0.115985  0  1.053134  0
H  H27  1  0.98125154  0.69505776  0.13228633  1  0  0.088059  0.115934  0  1.053162  0
H  H28  1  0.50318641  0.71272606  0.80257125  1  0  0.097009  0.109472  0  1.015753  0
H  H29  1  0.28724045  0.49680639  0.19738749  1  0  0.097013  0.109484  0  1.015765  0
H  H30  1  0.59896346  0.87903361  0.97116252  1  0  0.097763  0.129014  0  1.00284  0
H  H31  1  0.12092453  0.40101833  0.02880410  1  0  0.09778  0.12907  0  1.002524  0
H  H32  1  0.19331342  0.79244251  0.61147027  1  0  0.089152  0.125219  0  1.022674  0
H  H33  1  0.20756065  0.80671108  0.38850986  1  0  0.089115  0.125219  0  1.022709  0
H  H34  1  0.18209365  0.67263547  0.68485166  1  0  0.079961  0.107622  0  1.026918  0
H  H35  1  0.32735435  0.81788780  0.31509873  1  0  0.079926  0.107565  0  1.026913  0
H  H36  1  0.27753099  0.67034240  0.58613418  1  0  0.084435  0.114647  0  1.030867  0
H  H37  1  0.32964554  0.72247389  0.41382475  1  0  0.08452  0.114711  0  1.030975  0
H  H38  1  0.60065888  0.04294472  0.86753997  1  0  0.081613  0.131307  0  1.018432  0
H  H39  1  0.95701981  0.39937042  0.13246366  1  0  0.081575  0.131324  0  1.018329  0
H  H40  1  0.43628579  0.01084320  0.72018733  1  0  0.08522  0.124128  0  1.008057  0
H  H41  1  0.98914702  0.56375967  0.27982515  1  0  0.085214  0.124162  0  1.007555  0
H  H42  1  0.51789515  0.88611214  0.68967530  1  0  0.082305  0.114248  0  1.02545  0
H  H43  1  0.11385975  0.48212399  0.31031032  1  0  0.082247  0.114121  0  1.025373  0
C  C44  1  0.51022918  0.41569759  0.63446986  1  0  0.13275  0.228769  0  3.90989  0
C  C45  1  0.58431015  0.48981080  0.36554715  1  0  0.132784  0.228901  0  3.909732  0
C  C46  1  0.49739389  0.39536899  0.49831715  1  0  0.000323  -0.066791  0  4.003544  0
C  C47  1  0.60464783  0.50264719  0.50171018  1  0  0.0001  -0.067159  0  4.003726  0
C  C48  1  0.72311817  0.62278232  0.64105983  1  0  0.133562  0.228954  0  3.906323  0
C  C49  1  0.37727834  0.27688204  0.35897127  1  0  0.133512  0.228965  0  3.906523  0
C  C50  1  0.84243482  0.73236398  0.64535479  1  0  -0.156642  -0.289523  0  3.875949  0
C  C51  1  0.26771844  0.15755914  0.35468040  1  0  -0.156881  -0.290054  0  3.876863  0
C  C52  1  0.78321589  0.75296273  0.50998121  1  0  -0.013548  0.267902  0  3.779189  0
C  C53  1  0.24708210  0.21679436  0.49003053  1  0  -0.013548  0.267981  0  3.779429  0
C  C54  1  0.39817603  0.30239838  0.63376772  1  0  -0.158511  -0.295981  0  3.894104  0
C  C55  1  0.69761129  0.60185541  0.36624782  1  0  -0.158404  -0.295735  0  3.894063  0
C  C56  1  0.68224547  0.83013836  0.51848315  1  0  -0.243738  -0.412776  0  3.874917  0
C  C57  1  0.16991168  0.31776386  0.48149619  1  0  -0.243914  -0.412866  0  3.875409  0
C  C58  1  0.91314762  0.84742339  0.50940362  1  0  -0.253791  -0.423347  0  3.874886  0
C  C59  1  0.15259540  0.08687219  0.49060526  1  0  -0.253784  -0.42317  0  3.874867  0
C  C60  1  0.41302110  0.72194581  0.94322254  1  0  0.134239  0.231875  0  3.897837  0
C  C61  1  0.27801017  0.58693957  0.05672481  1  0  0.134227  0.231896  0  3.897554  0
C  C62  1  0.31037642  0.76477109  0.97545012  1  0  0.002106  -0.064922  0  4.011409  0
C  C63  1  0.23519498  0.68959068  0.02451293  1  0  0.002342  -0.064413  0  4.01091  0
C  C64  1  0.28004267  0.88036562  0.96077928  1  0  0.133655  0.229339  0  3.91671  0
C  C65  1  0.11960447  0.71993558  0.03920167  1  0  0.133536  0.229393  0  3.916574  0
C  C66  1  0.36598071  0.96584365  0.91602286  1  0  -0.159311  -0.301647  0  3.873951  0
C  C67  1  0.03412226  0.63400223  0.08395736  1  0  -0.159425  -0.302026  0  3.873933  0
C  C68  1  0.39994135  0.86413655  0.80684345  1  0  -0.013177  0.268658  0  3.768628  0
C  C69  1  0.13583771  0.60005588  0.19313515  1  0  -0.012958  0.26901  0  3.767985  0
C  C70  1  0.48638539  0.79396306  0.88070290  1  0  -0.161224  -0.300693  0  3.880512  0
C  C71  1  0.20599590  0.51359836  0.11925879  1  0  -0.16132  -0.300852  0  3.880124  0
C  C72  1  0.25487564  0.74301139  0.66474039  1  0  -0.245942  -0.421054  0  3.892563  0
C  C73  1  0.25697360  0.74512516  0.33522648  1  0  -0.245995  -0.42119  0  3.892592  0
C  C74  1  0.49434498  0.95645237  0.76915483  1  0  -0.245414  -0.413428  0  3.876371  0
C  C75  1  0.04352710  0.50567970  0.23084571  1  0  -0.245302  -0.413356  0  3.87551  0
Br  Br76  1  0.62156748  0.37833327  0.99995518  1  0  -0.286962  -0.456282  0  1.597846  0
Br  Br77  1  0.80858923  0.82263484  0.14405509  1  0  -0.25798  -0.44684  0  1.742202  0
Br  Br78  1  0.17719545  0.19133271  0.85598270  1  0  -0.257981  -0.446771  0  1.741589  0
Br  Br79  1  0.93133914  0.06879627  0.00028356  1  0  -0.286158  -0.449077  0  1.564701  0
N  N80  1  0.61769319  0.53684112  0.76281972  1  0  -0.254324  -0.155844  0  3.525034  0
N  N81  1  0.46316909  0.38232665  0.23719794  1  0  -0.25427  -0.155949  0  3.52503  0
N  N82  1  0.72712395  0.64060807  0.76666737  1  0  -0.248916  -0.153064  0  3.505738  0
N  N83  1  0.35943206  0.27286997  0.23335766  1  0  -0.248913  -0.153152  0  3.505914  0
N  N84  1  0.44418157  0.61827766  0.96817849  1  0  -0.249183  -0.145572  0  3.520831  0
N  N85  1  0.38165348  0.55575447  0.03173860  1  0  -0.249028  -0.145416  0  3.52052  0
N  N86  1  0.17666622  0.91164864  0.98566887  1  0  -0.254799  -0.1612  0  3.519793  0
N  N87  1  0.08832971  0.82331058  0.01433013  1  0  -0.254752  -0.161195  0  3.519869  0
