# generated using pymatgen
data_CdH14C17N3O4
_symmetry_space_group_name_H-M   'P 1'
_cell_length_a   10.28237041
_cell_length_b   15.28514343
_cell_length_c   25.31460264
_cell_angle_alpha   89.99996951
_cell_angle_beta   90.00013183
_cell_angle_gamma   90.00000440
_symmetry_Int_Tables_number   1
_chemical_formula_structural   CdH14C17N3O4
_chemical_formula_sum   'Cd8 H112 C136 N24 O32'
_cell_volume   3978.63297681
_cell_formula_units_Z   8
loop_
 _symmetry_equiv_pos_site_id
 _symmetry_equiv_pos_as_xyz
  1  'x, y, z'
loop_
 _atom_site_type_symbol
 _atom_site_label
 _atom_site_symmetry_multiplicity
 _atom_site_fract_x
 _atom_site_fract_y
 _atom_site_fract_z
 _atom_site_occupancy
 _atom_site_pbe_bader_charge
 _atom_site_pbe_bader_spin_density
 _atom_site_pbe_cm5_charge
 _atom_site_pbe_ddec_charge
 _atom_site_pbe_ddec_spin_density
 _atom_site_pbe_ddec_sum_bond_order
 _atom_site_pbe_magmom
Cd  Cd0  1  0.91371206  0.50047792  0.53483276  1  1.2768  0  0.771509  0.940026  0  2.275595  0
Cd  Cd1  1  0.58628420  0.49952099  0.03483305  1  1.276842  0  0.771526  0.940053  0  2.275655  0
Cd  Cd2  1  0.41371532  0.99952069  0.46516751  1  1.276838  0  0.771513  0.940056  0  2.27563  0
Cd  Cd3  1  0.08628730  0.00047717  0.96516708  1  1.276814  0  0.771498  0.939981  0  2.275665  0
Cd  Cd4  1  0.67103336  0.50743176  0.45694282  1  1.276676  0  0.773142  0.945295  0  2.252242  0
Cd  Cd5  1  0.82896917  0.49256809  0.95694166  1  1.276709  0  0.773148  0.945301  0  2.252318  0
Cd  Cd6  1  0.17103026  0.99256618  0.54305841  1  1.276684  0  0.773151  0.945273  0  2.25233  0
Cd  Cd7  1  0.32896804  0.00743139  0.04305712  1  1.276692  0  0.773108  0.945256  0  2.252334  0
H  H8  1  0.78432648  0.34703234  0.17664342  1  0.096378  0  0.113371  0.124603  0  0.986847  0
H  H9  1  0.71567642  0.65297168  0.67664249  1  0.096405  0  0.113346  0.124535  0  0.986911  0
H  H10  1  0.28432004  0.15296844  0.82335729  1  0.09632  0  0.113355  0.124557  0  0.986793  0
H  H11  1  0.21567789  0.84703019  0.32335602  1  0.096353  0  0.113375  0.124611  0  0.986826  0
H  H12  1  0.10265875  0.16311517  0.17986024  1  0.12206  0  0.109098  0.114309  0  1.030089  0
H  H13  1  0.39734518  0.83688293  0.67986140  1  0.122083  0  0.109074  0.114291  0  1.030172  0
H  H14  1  0.60265034  0.33688233  0.82013911  1  0.122138  0  0.109083  0.114273  0  1.030251  0
H  H15  1  0.89733781  0.66312418  0.32013965  1  0.122127  0  0.109113  0.114331  0  1.030201  0
H  H16  1  0.07845775  0.50212662  0.38826123  1  0.078264  0  0.114657  0.109264  0  0.980393  0
H  H17  1  0.42154542  0.49787195  0.88826134  1  0.078294  0  0.114653  0.109229  0  0.980376  0
H  H18  1  0.57845596  0.99787066  0.61173912  1  0.078191  0  0.114659  0.109229  0  0.980382  0
H  H19  1  0.92154366  0.00212753  0.11173871  1  0.078227  0  0.114663  0.109275  0  0.980372  0
H  H20  1  0.15774393  0.39998169  0.38632960  1  0.086972  0  0.116264  0.102512  0  1.009226  0
H  H21  1  0.34225923  0.60001820  0.88632841  1  0.08701  0  0.116262  0.102489  0  1.009242  0
H  H22  1  0.65773723  0.10001974  0.61367100  1  0.086996  0  0.116291  0.102507  0  1.0092  0
H  H23  1  0.84226142  0.89997975  0.11367100  1  0.086961  0  0.116304  0.102586  0  1.009188  0
H  H24  1  0.93863970  0.24430259  0.03129815  1  0.106991  0  0.112995  0.121197  0  0.998476  0
H  H25  1  0.56136433  0.75570417  0.53129665  1  0.106947  0  0.112984  0.121159  0  0.998473  0
H  H26  1  0.43863605  0.25570017  0.96870231  1  0.106994  0  0.113006  0.121185  0  0.998445  0
H  H27  1  0.06136368  0.74430030  0.46870211  1  0.107006  0  0.113007  0.121188  0  0.998467  0
H  H28  1  0.87555780  0.33597644  0.32372695  1  0.135861  0  0.1095  0.116149  0  1.027223  0
H  H29  1  0.62443815  0.66402417  0.82372751  1  0.135836  0  0.109501  0.116137  0  1.027276  0
H  H30  1  0.37555346  0.16402369  0.67627424  1  0.135712  0  0.109482  0.116111  0  1.027225  0
H  H31  1  0.12444462  0.83597638  0.17627288  1  0.135776  0  0.109485  0.116129  0  1.027245  0
H  H32  1  0.94396516  0.50940040  0.31227388  1  0.083448  0  0.105907  0.112357  0  0.993836  0
H  H33  1  0.55603656  0.49059957  0.81227404  1  0.083405  0  0.105925  0.112378  0  0.993857  0
H  H34  1  0.44396384  0.99060147  0.68772643  1  0.083437  0  0.105908  0.112383  0  0.993814  0
H  H35  1  0.05603625  0.00939924  0.18772567  1  0.08342  0  0.105929  0.112394  0  0.993854  0
H  H36  1  0.33601190  0.41427731  0.29500531  1  0.023516  0  0.105194  0.107838  0  0.990311  0
H  H37  1  0.16399171  0.58572200  0.79500634  1  0.023573  0  0.105188  0.107786  0  0.990368  0
H  H38  1  0.83600767  0.08572413  0.70499387  1  0.023545  0  0.105213  0.107855  0  0.990307  0
H  H39  1  0.66398956  0.91428052  0.20499370  1  0.023598  0  0.105169  0.107768  0  0.990407  0
H  H40  1  0.16999773  0.13463517  0.32786774  1  0.112787  0  0.110856  0.120037  0  1.004259  0
H  H41  1  0.33000023  0.86536542  0.82786804  1  0.112791  0  0.110828  0.120031  0  1.004293  0
H  H42  1  0.66999432  0.36536234  0.67213208  1  0.112871  0  0.110861  0.120073  0  1.00428  0
H  H43  1  0.83000272  0.63463645  0.17213216  1  0.112848  0  0.110847  0.120056  0  1.004272  0
H  H44  1  0.02255549  0.24301354  0.47261296  1  0.078845  0  0.112039  0.120733  0  1.006534  0
H  H45  1  0.47744232  0.75698823  0.97261383  1  0.078809  0  0.112063  0.120692  0  1.00656  0
H  H46  1  0.52255125  0.25698854  0.52738790  1  0.078746  0  0.112045  0.120738  0  1.006517  0
H  H47  1  0.97744595  0.74301103  0.02738690  1  0.078833  0  0.112074  0.12071  0  1.006535  0
H  H48  1  0.25177859  0.63660101  0.35324317  1  0.15096  0  0.119945  0.122912  0  1.031313  0
H  H49  1  0.24823021  0.36339629  0.85324513  1  0.150907  0  0.119919  0.122851  0  1.031352  0
H  H50  1  0.75176725  0.86339955  0.64675498  1  0.150923  0  0.11994  0.122874  0  1.03131  0
H  H51  1  0.74822770  0.13660188  0.14675515  1  0.150923  0  0.119934  0.122892  0  1.031297  0
H  H52  1  0.49974293  0.66131454  0.39449812  1  0.114714  0  0.124401  0.125187  0  0.984214  0
H  H53  1  0.00026222  0.33868338  0.89450026  1  0.114824  0  0.124394  0.125179  0  0.984182  0
H  H54  1  0.99973330  0.83868407  0.60549868  1  0.114849  0  0.12437  0.125182  0  0.984193  0
H  H55  1  0.50025947  0.16131412  0.10549861  1  0.114522  0  0.124368  0.125165  0  0.98423  0
H  H56  1  0.91721424  0.50722186  0.21499207  1  0.087648  0  0.103442  0.104174  0  1.00561  0
H  H57  1  0.58278790  0.49277820  0.71499226  1  0.087612  0  0.103434  0.10419  0  1.005556  0
H  H58  1  0.41721445  0.99277871  0.78500781  1  0.087644  0  0.103418  0.104181  0  1.005584  0
H  H59  1  0.08278716  0.00722061  0.28500708  1  0.087646  0  0.1034  0.104176  0  1.005564  0
H  H60  1  0.08966647  0.39428607  0.12416626  1  0.118361  0  0.115673  0.101755  0  1.013029  0
H  H61  1  0.41033326  0.60571535  0.62416751  1  0.118392  0  0.115689  0.101745  0  1.013015  0
H  H62  1  0.58966807  0.10571601  0.87583309  1  0.118446  0  0.115673  0.101778  0  1.012976  0
H  H63  1  0.91033499  0.89428587  0.37583356  1  0.118365  0  0.115677  0.101756  0  1.013014  0
H  H64  1  0.00784197  0.49548826  0.12868770  1  0.108907  0  0.115007  0.107138  0  0.968154  0
H  H65  1  0.49215778  0.50451316  0.62868669  1  0.108955  0  0.115007  0.107119  0  0.968164  0
H  H66  1  0.50784256  0.00451447  0.87131354  1  0.10897  0  0.115001  0.107128  0  0.96818  0
H  H67  1  0.99215950  0.99548872  0.37131287  1  0.10892  0  0.114981  0.107096  0  0.968183  0
H  H68  1  0.34525033  0.33190643  0.39886870  1  0.027444  0  0.099571  0.102897  0  0.979945  0
H  H69  1  0.15474706  0.66809475  0.89886693  1  0.02737  0  0.099546  0.102877  0  0.979981  0
H  H70  1  0.84525233  0.16809697  0.60113285  1  0.027325  0  0.099586  0.103  0  0.979999  0
H  H71  1  0.65475112  0.83190384  0.10113231  1  0.027329  0  0.099588  0.103006  0  0.980022  0
H  H72  1  0.48328476  0.35628369  0.43760727  1  0.071636  0  0.10586  0.120159  0  0.981187  0
H  H73  1  0.01671382  0.64371485  0.93760617  1  0.071618  0  0.105865  0.120167  0  0.981158  0
H  H74  1  0.98328459  0.14371972  0.56239362  1  0.071623  0  0.105872  0.120235  0  0.981084  0
H  H75  1  0.51671766  0.85628047  0.06239255  1  0.071645  0  0.10587  0.120228  0  0.981132  0
H  H76  1  0.30902952  0.41122275  0.19831131  1  0.065152  0  0.106033  0.109457  0  0.990487  0
H  H77  1  0.19097257  0.58877730  0.69831157  1  0.06519  0  0.106034  0.109485  0  0.990461  0
H  H78  1  0.80902875  0.08877934  0.80168864  1  0.065137  0  0.106025  0.109477  0  0.990476  0
H  H79  1  0.69097096  0.91122391  0.30168810  1  0.065203  0  0.106067  0.109521  0  0.990431  0
H  H80  1  0.34352051  0.40067905  0.51338560  1  0.047327  0  0.084381  0.119696  0  1.024188  0
H  H81  1  0.15648151  0.59932313  0.01338435  1  0.047401  0  0.08433  0.119564  0  1.024189  0
H  H82  1  0.84351699  0.09932370  0.48661556  1  0.047403  0  0.084332  0.119598  0  1.024223  0
H  H83  1  0.65648474  0.90067612  0.98661569  1  0.047473  0  0.084311  0.11957  0  1.024196  0
H  H84  1  0.30230816  0.29311186  0.49266356  1  0.037392  0  0.089119  0.129542  0  0.997714  0
H  H85  1  0.19769170  0.70688990  0.99266142  1  0.037472  0  0.089121  0.129589  0  0.997725  0
H  H86  1  0.80230575  0.20689023  0.50733835  1  0.037445  0  0.089136  0.129605  0  0.997693  0
H  H87  1  0.69769620  0.79310870  0.00733747  1  0.037559  0  0.089117  0.129592  0  0.997668  0
H  H88  1  0.19985995  0.38223435  0.47575389  1  0.0102  0  0.083238  0.114075  0  1.03347  0
H  H89  1  0.30014079  0.61776742  0.97575267  1  0.01017  0  0.083252  0.114105  0  1.033455  0
H  H90  1  0.69986054  0.11776904  0.52424832  1  0.010197  0  0.083248  0.114092  0  1.033486  0
H  H91  1  0.80014345  0.88223118  0.02424750  1  0.010154  0  0.083222  0.114037  0  1.03348  0
H  H92  1  0.11817324  0.37689145  0.02484099  1  0.021047  0  0.083575  0.11659  0  1.025323  0
H  H93  1  0.38182690  0.62311268  0.52484300  1  0.021091  0  0.083587  0.116562  0  1.025315  0
H  H94  1  0.61817442  0.12311129  0.97515759  1  0.021115  0  0.083581  0.116558  0  1.02535  0
H  H95  1  0.88182919  0.87689050  0.47515764  1  0.021034  0  0.083575  0.116561  0  1.025357  0
H  H96  1  0.21794103  0.28598489  0.00845012  1  0.045531  0  0.088645  0.128266  0  1.000662  0
H  H97  1  0.28206193  0.71401860  0.50845082  1  0.045492  0  0.088651  0.128272  0  1.000619  0
H  H98  1  0.71794135  0.21401786  0.99154895  1  0.045528  0  0.088638  0.12826  0  1.000635  0
H  H99  1  0.78206527  0.78598327  0.49155012  1  0.045532  0  0.088655  0.128245  0  1.000603  0
H  H100  1  0.25976976  0.39210777  0.98531673  1  0.070135  0  0.084546  0.119553  0  1.025543  0
H  H101  1  0.24023104  0.60789661  0.48531832  1  0.070269  0  0.08453  0.119542  0  1.025506  0
H  H102  1  0.75977038  0.10789497  0.01468277  1  0.070253  0  0.084506  0.119473  0  1.02552  0
H  H103  1  0.74023452  0.89210526  0.51468298  1  0.070377  0  0.08451  0.119512  0  1.025492  0
H  H104  1  0.26766427  0.32794127  0.10083871  1  0.043988  0  0.099432  0.103618  0  0.988299  0
H  H105  1  0.23233338  0.67206279  0.60083977  1  0.043909  0  0.099418  0.103509  0  0.988377  0
H  H106  1  0.76766795  0.17206016  0.89916080  1  0.043972  0  0.099449  0.103598  0  0.988335  0
H  H107  1  0.73233815  0.82793843  0.39916113  1  0.043933  0  0.099422  0.103555  0  0.988345  0
H  H108  1  0.40367365  0.35098328  0.06101195  1  0.061957  0  0.105068  0.119786  0  0.980676  0
H  H109  1  0.09632669  0.64902147  0.56101210  1  0.061937  0  0.105041  0.119739  0  0.980692  0
H  H110  1  0.90367561  0.14901817  0.93898847  1  0.061937  0  0.105048  0.119745  0  0.980675  0
H  H111  1  0.59632975  0.85097908  0.43898866  1  0.061981  0  0.105022  0.119755  0  0.980693  0
H  H112  1  0.18225123  0.63425765  0.14542237  1  0.129076  0  0.119288  0.122121  0  1.034918  0
H  H113  1  0.31774473  0.36574441  0.64542203  1  0.129154  0  0.119319  0.12213  0  1.034941  0
H  H114  1  0.68225080  0.86574422  0.85457690  1  0.129081  0  0.119315  0.122196  0  1.034927  0
H  H115  1  0.81774436  0.13425637  0.35457792  1  0.129139  0  0.119322  0.12218  0  1.034913  0
H  H116  1  0.41729416  0.65982564  0.09348526  1  0.110135  0  0.125175  0.123794  0  0.980051  0
H  H117  1  0.08270345  0.34017777  0.59348471  1  0.110135  0  0.125149  0.123779  0  0.979969  0
H  H118  1  0.91729207  0.84017493  0.90651462  1  0.110139  0  0.125183  0.123774  0  0.980084  0
H  H119  1  0.58269948  0.15982235  0.40651463  1  0.110159  0  0.12517  0.1238  0  0.979918  0
C  C120  1  0.17578366  0.11429184  0.43612581  1  1.610049  0  0.205799  0.585689  0  4.221611  0
C  C121  1  0.32421588  0.88570670  0.93612689  1  1.60996  0  0.205696  0.585548  0  4.221973  0
C  C122  1  0.67577965  0.38570567  0.56387322  1  1.609954  0  0.205665  0.585433  0  4.221935  0
C  C123  1  0.82421484  0.61429256  0.06387409  1  1.609979  0  0.20572  0.5856  0  4.221806  0
C  C124  1  0.02522989  0.19389673  0.10263876  1  -0.03635  0  -0.014984  -0.021088  0  3.993305  0
C  C125  1  0.47476971  0.80610471  0.60263922  1  -0.03634  0  -0.014941  -0.021104  0  3.993336  0
C  C126  1  0.52522678  0.30610339  0.89736052  1  -0.036339  0  -0.015003  -0.021161  0  3.993388  0
C  C127  1  0.97477251  0.69389716  0.39736072  1  -0.036421  0  -0.014992  -0.021069  0  3.993355  0
C  C128  1  0.85551023  0.30420975  0.10037443  1  -0.064537  0  -0.015301  -0.022621  0  3.993193  0
C  C129  1  0.64449418  0.69579630  0.60037264  1  -0.064836  0  -0.015253  -0.022566  0  3.99297  0
C  C130  1  0.35550424  0.19579235  0.89962634  1  -0.064737  0  -0.015309  -0.022618  0  3.993083  0
C  C131  1  0.14449316  0.80420753  0.39962541  1  -0.064528  0  -0.0153  -0.022568  0  3.993132  0
C  C132  1  0.87331154  0.36889856  0.43082599  1  1.58906  0  0.204244  0.583528  0  4.221843  0
C  C133  1  0.62668890  0.63110000  0.93082657  1  1.588886  0  0.204258  0.583514  0  4.221888  0
C  C134  1  0.37330464  0.13110157  0.56917401  1  1.588911  0  0.204116  0.583406  0  4.22193  0
C  C135  1  0.12668894  0.86889859  0.06917343  1  1.589051  0  0.204229  0.583433  0  4.221946  0
C  C136  1  0.94414920  0.29836996  0.40114238  1  -0.035949  0  -0.016152  -0.029167  0  3.985508  0
C  C137  1  0.55585010  0.70162797  0.90114327  1  -0.035892  0  -0.016164  -0.029191  0  3.985506  0
C  C138  1  0.44414054  0.20163018  0.59885808  1  -0.036175  0  -0.01613  -0.029197  0  3.985483  0
C  C139  1  0.05585127  0.79837061  0.09885746  1  -0.03593  0  -0.016155  -0.029208  0  3.985673  0
C  C140  1  0.09963868  0.17889118  0.40382978  1  -0.041559  0  -0.019874  -0.029638  0  3.993832  0
C  C141  1  0.40035873  0.82110542  0.90382937  1  -0.041547  0  -0.019959  -0.029655  0  3.99402  0
C  C142  1  0.59963581  0.32110567  0.59617155  1  -0.041472  0  -0.019915  -0.02968  0  3.993998  0
C  C143  1  0.90035983  0.67889318  0.09617010  1  -0.041621  0  -0.019929  -0.029696  0  3.993935  0
C  C144  1  0.02075878  0.23340428  0.31983592  1  0.319454  0  0.081337  0.151288  0  4.068684  0
C  C145  1  0.47923816  0.76659305  0.81983481  1  0.319492  0  0.081318  0.151223  0  4.068737  0
C  C146  1  0.52075540  0.26659388  0.68016573  1  0.319498  0  0.081326  0.151314  0  4.068634  0
C  C147  1  0.97924169  0.73340621  0.18016473  1  0.319444  0  0.08134  0.151251  0  4.068863  0
C  C148  1  0.85308002  0.30550837  0.15555168  1  0.012198  0  -0.070799  -0.158143  0  3.908161  0
C  C149  1  0.64692471  0.69449566  0.65555107  1  0.012179  0  -0.070754  -0.158014  0  3.907953  0
C  C150  1  0.35307371  0.19449176  0.84444870  1  0.012147  0  -0.070729  -0.157997  0  3.907851  0
C  C151  1  0.14692240  0.80550881  0.34444777  1  0.01213  0  -0.070791  -0.158135  0  3.908168  0
C  C152  1  0.94347170  0.25548724  0.18409296  1  0.370481  0  0.081827  0.153029  0  4.070782  0
C  C153  1  0.55653221  0.74451350  0.68409265  1  0.37052  0  0.081837  0.153038  0  4.07079  0
C  C154  1  0.44346524  0.24451159  0.81590711  1  0.37052  0  0.081818  0.153006  0  4.070764  0
C  C155  1  0.05653071  0.75548901  0.31590690  1  0.37051  0  0.08185  0.15306  0  4.07079  0
C  C156  1  0.03192598  0.20083743  0.15744942  1  0.012993  0  -0.076981  -0.166762  0  3.920609  0
C  C157  1  0.46807686  0.79916265  0.65744987  1  0.013008  0  -0.076977  -0.166746  0  3.920815  0
C  C158  1  0.53191963  0.29916203  0.84255026  1  0.013007  0  -0.076965  -0.166722  0  3.920959  0
C  C159  1  0.96807546  0.70083988  0.34255045  1  0.013024  0  -0.07701  -0.166826  0  3.920895  0
C  C160  1  0.15882146  0.46621595  0.36961631  1  0.303602  0  -0.044135  -0.107006  0  3.886286  0
C  C161  1  0.34118160  0.53378265  0.86961633  1  0.303498  0  -0.04415  -0.107005  0  3.886171  0
C  C162  1  0.65881679  0.03378287  0.63038468  1  0.303656  0  -0.044202  -0.107051  0  3.886346  0
C  C163  1  0.84118001  0.96621530  0.13038348  1  0.303601  0  -0.044159  -0.10713  0  3.886288  0
C  C164  1  0.93948107  0.24713342  0.07421448  1  -0.06535  0  -0.070323  -0.106386  0  3.932565  0
C  C165  1  0.56052320  0.75287199  0.57421259  1  -0.065058  0  -0.070412  -0.106437  0  3.932585  0
C  C166  1  0.43947620  0.25286802  0.92578598  1  -0.065181  0  -0.070348  -0.106362  0  3.93251  0
C  C167  1  0.06052134  0.74713314  0.42578577  1  -0.06538  0  -0.070342  -0.106408  0  3.932571  0
C  C168  1  0.93900529  0.29291829  0.34622072  1  -0.052281  0  -0.072722  -0.152858  0  3.905605  0
C  C169  1  0.56099078  0.70708100  0.84622003  1  -0.052174  0  -0.072721  -0.152809  0  3.905612  0
C  C170  1  0.43900083  0.20708054  0.65378053  1  -0.052117  0  -0.072696  -0.152857  0  3.905505  0
C  C171  1  0.06099226  0.79292020  0.15377992  1  -0.052163  0  -0.072703  -0.152875  0  3.9057  0
C  C172  1  0.14199346  0.46299912  0.31035485  1  -0.103493  0  -0.014823  0.082202  0  3.984615  0
C  C173  1  0.35801024  0.53699821  0.81035450  1  -0.103556  0  -0.014796  0.082258  0  3.984639  0
C  C174  1  0.64198913  0.03700166  0.68964533  1  -0.103599  0  -0.014854  0.082142  0  3.98485  0
C  C175  1  0.85800995  0.96299842  0.18964454  1  -0.103512  0  -0.014867  0.082118  0  3.984885  0
C  C176  1  0.02430555  0.48791286  0.28726338  1  -0.034707  0  -0.087782  -0.123493  0  3.977994  0
C  C177  1  0.47569802  0.51208776  0.78726353  1  -0.034632  0  -0.087854  -0.123575  0  3.978101  0
C  C178  1  0.52430330  0.01208922  0.71273669  1  -0.034583  0  -0.087798  -0.123493  0  3.978037  0
C  C179  1  0.97569689  0.98791084  0.21273640  1  -0.034709  0  -0.087854  -0.123518  0  3.978149  0
C  C180  1  0.24345829  0.43433209  0.27768009  1  -0.018084  0  -0.090826  -0.12748  0  3.991514  0
C  C181  1  0.25654522  0.56566528  0.77768002  1  -0.018097  0  -0.090746  -0.12732  0  3.991525  0
C  C182  1  0.74345513  0.06566804  0.72231940  1  -0.018121  0  -0.090801  -0.127392  0  3.991437  0
C  C183  1  0.75654511  0.93433463  0.22231853  1  -0.018162  0  -0.090735  -0.127336  0  3.991607  0
C  C184  1  0.10396632  0.17851502  0.34863990  1  -0.039959  0  -0.072319  -0.160773  0  3.920605  0
C  C185  1  0.39602884  0.82148424  0.84863909  1  -0.04005  0  -0.072222  -0.160702  0  3.92049  0
C  C186  1  0.60396376  0.32148314  0.65136143  1  -0.039999  0  -0.072291  -0.16082  0  3.920745  0
C  C187  1  0.89603316  0.67851632  0.15136038  1  -0.039981  0  -0.072276  -0.160782  0  3.920622  0
C  C188  1  0.38205609  0.46763888  0.41130855  1  0.982596  0  0.220749  0.286918  0  3.927619  0
C  C189  1  0.11794623  0.53236033  0.91130758  1  0.982607  0  0.220642  0.286731  0  3.927858  0
C  C190  1  0.88205314  0.03236387  0.58869264  1  0.982524  0  0.220611  0.286745  0  3.927651  0
C  C191  1  0.61794538  0.96763630  0.08869163  1  0.982951  0  0.220661  0.286748  0  3.927486  0
C  C192  1  0.11102655  0.45943754  0.19979296  1  -0.052467  0  -0.015595  0.079619  0  3.981754  0
C  C193  1  0.38897652  0.54056120  0.69979382  1  -0.052621  0  -0.015572  0.079637  0  3.981799  0
C  C194  1  0.61102479  0.04056324  0.80020680  1  -0.052629  0  -0.015545  0.079754  0  3.981756  0
C  C195  1  0.88897589  0.95943806  0.30020643  1  -0.052623  0  -0.015539  0.079677  0  3.981781  0
C  C196  1  0.02171607  0.23993541  0.42974363  1  0.027229  0  -0.068855  -0.09835  0  3.929355  0
C  C197  1  0.47828441  0.76006313  0.92974450  1  0.027297  0  -0.06886  -0.098334  0  3.929463  0
C  C198  1  0.52170623  0.26006340  0.57025723  1  0.027402  0  -0.068809  -0.098209  0  3.929293  0
C  C199  1  0.97828732  0.73993482  0.07025584  1  0.027263  0  -0.068876  -0.098241  0  3.929393  0
C  C200  1  0.31602550  0.59262431  0.37435513  1  0.304372  0  -0.000161  -0.105033  0  3.943219  0
C  C201  1  0.18397856  0.40737428  0.87435504  1  0.304291  0  -2e-05  -0.104838  0  3.943174  0
C  C202  1  0.81602475  0.90737756  0.62564505  1  0.304085  0  -8.6e-05  -0.104886  0  3.943344  0
C  C203  1  0.68397591  0.09262323  0.12564439  1  0.304095  0  -0.000132  -0.104964  0  3.943207  0
C  C204  1  0.43819972  0.60370696  0.39476988  1  0.39397  0  -0.000784  -0.023869  0  4.023318  0
C  C205  1  0.06180737  0.39629030  0.89477127  1  0.393862  0  -0.000865  -0.023982  0  4.023382  0
C  C206  1  0.93819302  0.89629491  0.60522725  1  0.39369  0  -0.000759  -0.023993  0  4.023492  0
C  C207  1  0.56180364  0.10370590  0.10522805  1  0.393997  0  -0.000769  -0.02398  0  4.023346  0
C  C208  1  0.00904724  0.48623610  0.23242467  1  -0.040545  0  -0.08922  -0.126441  0  3.992967  0
C  C209  1  0.49095602  0.51376523  0.73242444  1  -0.040449  0  -0.089163  -0.126422  0  3.992936  0
C  C210  1  0.50904627  0.01376664  0.76757657  1  -0.040431  0  -0.089181  -0.126494  0  3.992949  0
C  C211  1  0.99095423  0.98623468  0.26757551  1  -0.040442  0  -0.089116  -0.126412  0  3.99285  0
C  C212  1  0.09689248  0.46075453  0.14029528  1  0.226326  0  -0.043157  -0.103547  0  3.887666  0
C  C213  1  0.40310831  0.53924622  0.64029536  1  0.225965  0  -0.043166  -0.103478  0  3.887637  0
C  C214  1  0.59689301  0.03924690  0.85970565  1  0.22618  0  -0.043149  -0.10357  0  3.887574  0
C  C215  1  0.90310898  0.96075499  0.35970491  1  0.226026  0  -0.043155  -0.103531  0  3.887644  0
C  C216  1  0.38174687  0.37525767  0.43033198  1  0.014203  0  -0.15319  -0.20117  0  3.992669  0
C  C217  1  0.11825361  0.62474284  0.93033018  1  0.014262  0  -0.153141  -0.201129  0  3.992705  0
C  C218  1  0.88174577  0.12474574  0.56966922  1  0.014244  0  -0.153179  -0.201366  0  3.992783  0
C  C219  1  0.61825653  0.87525379  0.06966863  1  0.01425  0  -0.153146  -0.201348  0  3.992814  0
C  C220  1  0.22812024  0.43252185  0.22308827  1  0.044568  0  -0.090054  -0.124641  0  3.984792  0
C  C221  1  0.27188199  0.56747752  0.72308861  1  0.044564  0  -0.090134  -0.12479  0  3.984834  0
C  C222  1  0.72811835  0.06747958  0.77691160  1  0.044617  0  -0.090103  -0.124812  0  3.984757  0
C  C223  1  0.77188123  0.93252500  0.27691153  1  0.04458  0  -0.090177  -0.124779  0  3.984832  0
C  C224  1  0.30170808  0.36229211  0.48094779  1  -0.036861  0  -0.247273  -0.350425  0  3.924575  0
C  C225  1  0.19829269  0.63770965  0.98094606  1  -0.036936  0  -0.247224  -0.350338  0  3.924473  0
C  C226  1  0.80170669  0.13771064  0.51905334  1  -0.036985  0  -0.247268  -0.350383  0  3.924647  0
C  C227  1  0.69829629  0.86228828  0.01905322  1  -0.037161  0  -0.247238  -0.350309  0  3.924509  0
C  C228  1  0.10472023  0.12781297  0.07288128  1  1.589447  0  0.206375  0.584687  0  4.222187  0
C  C229  1  0.39527532  0.87218981  0.57288243  1  1.590012  0  0.206326  0.584616  0  4.221979  0
C  C230  1  0.60471826  0.37218781  0.92711689  1  1.589403  0  0.206432  0.584705  0  4.222241  0
C  C231  1  0.89528119  0.62781403  0.42711704  1  1.589428  0  0.206311  0.584558  0  4.222274  0
C  C232  1  0.77442768  0.36569888  0.06800769  1  1.582288  0  0.20374  0.589184  0  4.218209  0
C  C233  1  0.72557947  0.63430589  0.56800797  1  1.582364  0  0.203707  0.589041  0  4.218206  0
C  C234  1  0.27442088  0.13430321  0.93199182  1  1.582108  0  0.20371  0.589096  0  4.218325  0
C  C235  1  0.22557961  0.86569532  0.43199252  1  1.582351  0  0.203657  0.589041  0  4.21831  0
C  C236  1  0.30373763  0.46346242  0.08620367  1  0.973317  0  0.221743  0.2878  0  3.925651  0
C  C237  1  0.19626286  0.53654100  0.58620316  1  0.973459  0  0.221735  0.287701  0  3.925576  0
C  C238  1  0.80373846  0.03653837  0.91379627  1  0.97332  0  0.221708  0.28765  0  3.925686  0
C  C239  1  0.69626481  0.96346021  0.41379770  1  0.97347  0  0.221759  0.287828  0  3.925527  0
C  C240  1  0.21928317  0.35574281  0.01888322  1  -0.081182  0  -0.246622  -0.348738  0  3.917305  0
C  C241  1  0.28071693  0.64426197  0.51888473  1  -0.081315  0  -0.246656  -0.348751  0  3.917308  0
C  C242  1  0.71928537  0.14425993  0.98111546  1  -0.081321  0  -0.246632  -0.348688  0  3.917395  0
C  C243  1  0.78072023  0.85574055  0.48111661  1  -0.081139  0  -0.246582  -0.348604  0  3.917153  0
C  C244  1  0.30236241  0.37032427  0.06861305  1  0.014147  0  -0.152718  -0.201084  0  3.981859  0
C  C245  1  0.19763895  0.62967981  0.56861330  1  0.014134  0  -0.152675  -0.200874  0  3.981907  0
C  C246  1  0.80236335  0.12967651  0.93138689  1  0.014118  0  -0.152659  -0.200921  0  3.98194  0
C  C247  1  0.69764099  0.87032140  0.43138677  1  0.013834  0  -0.152696  -0.201044  0  3.981851  0
C  C248  1  0.24252034  0.58985310  0.12277342  1  0.359916  0  -0.000269  -0.104691  0  3.945181  0
C  C249  1  0.25747549  0.41014963  0.62277420  1  0.35995  0  -0.000292  -0.104708  0  3.945254  0
C  C250  1  0.74251809  0.91014680  0.87722629  1  0.359914  0  -0.000381  -0.104938  0  3.945199  0
C  C251  1  0.75747524  0.08985246  0.37722728  1  0.359938  0  -0.000327  -0.104848  0  3.945289  0
C  C252  1  0.35858106  0.60124457  0.09725698  1  0.357013  0  0.000253  -0.022642  0  4.029078  0
C  C253  1  0.14141658  0.39875949  0.59725686  1  0.357088  0  0.000316  -0.022626  0  4.029005  0
C  C254  1  0.85858090  0.89875469  0.90274403  1  0.357032  0  0.000328  -0.022506  0  4.028956  0
C  C255  1  0.64141745  0.10124194  0.40274411  1  0.357003  0  0.000283  -0.022565  0  4.02902  0
N  N256  1  0.28149555  0.50697644  0.38528163  1  -1.215385  0  -0.238704  -0.004306  0  3.734447  0
N  N257  1  0.21850760  0.49302280  0.88528115  1  -1.215398  0  -0.238715  -0.004238  0  3.734522  0
N  N258  1  0.78149086  0.99302347  0.61471971  1  -1.215244  0  -0.238637  -0.004127  0  3.734572  0
N  N259  1  0.71850683  0.00697602  0.11471871  1  -1.215134  0  -0.238693  -0.00414  0  3.734355  0
N  N260  1  0.93697239  0.26361995  0.23968459  1  -0.516253  0  -0.14784  -0.129528  0  3.286087  0
N  N261  1  0.56302795  0.73637747  0.73968428  1  -0.516375  0  -0.147753  -0.129439  0  3.285929  0
N  N262  1  0.43696755  0.23637757  0.76031587  1  -0.516461  0  -0.14787  -0.129572  0  3.28587  0
N  N263  1  0.06303100  0.76362308  0.26031527  1  -0.51642  0  -0.147845  -0.129588  0  3.285908  0
N  N264  1  0.47806510  0.52597199  0.41765710  1  -1.228812  0  -0.362808  -0.355322  0  3.497995  0
N  N265  1  0.02194114  0.47402656  0.91765763  1  -1.22865  0  -0.362778  -0.355268  0  3.498116  0
N  N266  1  0.97805926  0.97402923  0.58234166  1  -1.22828  0  -0.36281  -0.35525  0  3.498077  0
N  N267  1  0.52193922  0.02597029  0.08234165  1  -1.22874  0  -0.362764  -0.355181  0  3.49799  0
N  N268  1  0.02758876  0.22517671  0.26427393  1  -0.470572  0  -0.146793  -0.12726  0  3.28635  0
N  N269  1  0.47241079  0.77482067  0.76427320  1  -0.470553  0  -0.146853  -0.127335  0  3.286339  0
N  N270  1  0.52758278  0.27482145  0.73572694  1  -0.470461  0  -0.146769  -0.127207  0  3.286116  0
N  N271  1  0.97241365  0.72517924  0.23572634  1  -0.470472  0  -0.146796  -0.127165  0  3.286329  0
N  N272  1  0.20847077  0.50309697  0.11522798  1  -1.21569  0  -0.239424  -0.008339  0  3.732636  0
N  N273  1  0.29152696  0.49690577  0.61522875  1  -1.215563  0  -0.239458  -0.008345  0  3.732691  0
N  N274  1  0.70847150  0.99690359  0.88477171  1  -1.215688  0  -0.239396  -0.008229  0  3.732627  0
N  N275  1  0.79152772  0.00309632  0.38477196  1  -1.215545  0  -0.239388  -0.008267  0  3.73256  0
N  N276  1  0.39546840  0.52267548  0.07470204  1  -1.213942  0  -0.363421  -0.35239  0  3.498561  0
N  N277  1  0.10453105  0.47732795  0.57470147  1  -1.213958  0  -0.363432  -0.352331  0  3.49842  0
N  N278  1  0.89546838  0.97732443  0.92529900  1  -1.213933  0  -0.363408  -0.352298  0  3.498502  0
N  N279  1  0.60453301  0.02267348  0.42529947  1  -1.21396  0  -0.363441  -0.352455  0  3.498576  0
O  O280  1  0.12797672  0.09676042  0.48129142  1  -1.169219  0  -0.329249  -0.568175  0  2.30611  0
O  O281  1  0.37202794  0.90323219  0.98129333  1  -1.169271  0  -0.329184  -0.568122  0  2.306262  0
O  O282  1  0.62796953  0.40323251  0.51870717  1  -1.169282  0  -0.329207  -0.568104  0  2.306199  0
O  O283  1  0.87202275  0.59676510  0.01870730  1  -1.169172  0  -0.329185  -0.568116  0  2.306136  0
O  O284  1  0.27826484  0.08296405  0.41545321  1  -1.159905  0  -0.332547  -0.550577  0  2.243074  0
O  O285  1  0.22174334  0.91703647  0.91545339  1  -1.159855  0  -0.332474  -0.550462  0  2.243146  0
O  O286  1  0.77825510  0.41703412  0.58454631  1  -1.159755  0  -0.332465  -0.550428  0  2.243077  0
O  O287  1  0.72173853  0.58296605  0.08454749  1  -1.159907  0  -0.332519  -0.550541  0  2.243145  0
O  O288  1  0.77749992  0.40567022  0.40809558  1  -1.159596  0  -0.332959  -0.549574  0  2.22931  0
O  O289  1  0.72250332  0.59432967  0.90809706  1  -1.159607  0  -0.332956  -0.549544  0  2.229315  0
O  O290  1  0.27749217  0.09432991  0.59190354  1  -1.159739  0  -0.33289  -0.549482  0  2.229411  0
O  O291  1  0.22250252  0.90566958  0.09190343  1  -1.159591  0  -0.332941  -0.549503  0  2.229317  0
O  O292  1  0.91898499  0.38633835  0.47633532  1  -1.173307  0  -0.333495  -0.581136  0  2.314332  0
O  O293  1  0.58101863  0.61366148  0.97633665  1  -1.173208  0  -0.333514  -0.581122  0  2.314275  0
O  O294  1  0.41897978  0.11366375  0.52366354  1  -1.173144  0  -0.333494  -0.581124  0  2.314266  0
O  O295  1  0.08101841  0.88633776  0.02366371  1  -1.173346  0  -0.333489  -0.581056  0  2.3143  0
O  O296  1  0.04505684  0.09139919  0.03463891  1  -1.17215  0  -0.33171  -0.579149  0  2.30377  0
O  O297  1  0.45493461  0.90860492  0.53464010  1  -1.172595  0  -0.331663  -0.579112  0  2.303651  0
O  O298  1  0.54505703  0.40860223  0.96536079  1  -1.172103  0  -0.331712  -0.579136  0  2.303674  0
O  O299  1  0.95494166  0.59139826  0.46536100  1  -1.172091  0  -0.331689  -0.579111  0  2.303722  0
O  O300  1  0.21992328  0.11313597  0.08854700  1  -1.155863  0  -0.328033  -0.542621  0  2.224892  0
O  O301  1  0.28007430  0.88686549  0.58855041  1  -1.15603  0  -0.328043  -0.542574  0  2.224783  0
O  O302  1  0.71991734  0.38686678  0.91145088  1  -1.155833  0  -0.328082  -0.542637  0  2.22503  0
O  O303  1  0.78007717  0.61313703  0.41145211  1  -1.15579  0  -0.328017  -0.542571  0  2.224895  0
O  O304  1  0.83018124  0.39470288  0.02666122  1  -1.182582  0  -0.337095  -0.593784  0  2.304982  0
O  O305  1  0.66982373  0.60530323  0.52665948  1  -1.18256  0  -0.33714  -0.593737  0  2.304645  0
O  O306  1  0.33017662  0.10529856  0.97333993  1  -1.182327  0  -0.337151  -0.593778  0  2.30474  0
O  O307  1  0.16982702  0.89469601  0.47334136  1  -1.182531  0  -0.337115  -0.593696  0  2.304731  0
O  O308  1  0.66083913  0.38453088  0.08421370  1  -1.150803  0  -0.333984  -0.550782  0  2.20382  0
O  O309  1  0.83916131  0.61547060  0.58421369  1  -1.150891  0  -0.333932  -0.55073  0  2.204114  0
O  O310  1  0.16083613  0.11547055  0.91578571  1  -1.150923  0  -0.333897  -0.550728  0  2.20409  0
O  O311  1  0.33916330  0.88452931  0.41578493  1  -1.150935  0  -0.333896  -0.550745  0  2.204131  0
