# generated using pymatgen
data_HoH14C15(NO4)2
_symmetry_space_group_name_H-M   'P 1'
_cell_length_a   8.58282482
_cell_length_b   10.21940081
_cell_length_c   10.84755703
_cell_angle_alpha   65.88686077
_cell_angle_beta   68.75271030
_cell_angle_gamma   78.43450242
_symmetry_Int_Tables_number   1
_chemical_formula_structural   HoH14C15(NO4)2
_chemical_formula_sum   'Ho2 H28 C30 N4 O16'
_cell_volume   807.85969325
_cell_formula_units_Z   2
loop_
 _symmetry_equiv_pos_site_id
 _symmetry_equiv_pos_as_xyz
  1  'x, y, z'
loop_
 _atom_site_type_symbol
 _atom_site_label
 _atom_site_symmetry_multiplicity
 _atom_site_fract_x
 _atom_site_fract_y
 _atom_site_fract_z
 _atom_site_occupancy
 _atom_site_hle17_bader_spin_density
 _atom_site_hle17_ddec_charge
 _atom_site_hle17_ddec_spin_density
 _atom_site_hle17_ddec_sum_bond_order
 _atom_site_hle17_magmom
 _atom_site_hse06_10hf_bader_spin_density
 _atom_site_hse06_10hf_ddec_charge
 _atom_site_hse06_10hf_ddec_spin_density
 _atom_site_hse06_10hf_ddec_sum_bond_order
 _atom_site_hse06_10hf_magmom
 _atom_site_hse06_bader_spin_density
 _atom_site_hse06_ddec_charge
 _atom_site_hse06_ddec_spin_density
 _atom_site_hse06_ddec_sum_bond_order
 _atom_site_hse06_magmom
 _atom_site_pbe_bader_spin_density
 _atom_site_pbe_cm5_charge
 _atom_site_pbe_ddec_charge
 _atom_site_pbe_ddec_spin_density
 _atom_site_pbe_ddec_sum_bond_order
 _atom_site_pbe_magmom
Ho  Ho0  1  0.65874679  0.43892320  0.14631476  1  0  2.240409  0  1.639775  0  0  2.100202  0  2.112222  0  0  2.230614  0  1.918706  0  0  1.530137  2.063321  0  2.144126  0
Ho  Ho1  1  0.34124876  0.56107701  0.85368423  1  0  2.240424  0  1.639746  0  0  2.100239  0  2.112161  0  0  2.230634  0  1.918674  0  0  1.530155  2.063357  0  2.144044  0
H  H2  1  0.92223732  0.58740452  0.87517700  1  0  0.450733  0  0.841391  0  0  0.422249  0  0.901027  0  0  0.433054  0  0.885466  0  0  0.306567  0.414768  0  0.912017  0
H  H3  1  0.07775953  0.41259459  0.12482572  1  0  0.450765  0  0.841341  0  0  0.422281  0  0.900975  0  0  0.433085  0  0.885418  0  0  0.306569  0.414801  0  0.911963  0
H  H4  1  0.75991706  0.57255075  0.84237642  1  0  0.435779  0  0.866858  0  0  0.405645  0  0.930249  0  0  0.416376  0  0.914864  0  0  0.300206  0.398204  0  0.941116  0
H  H5  1  0.24007989  0.42744731  0.15762483  1  0  0.435736  0  0.866924  0  0  0.405594  0  0.930317  0  0  0.416325  0  0.914931  0  0  0.300205  0.39816  0  0.941175  0
H  H6  1  0.22277580  0.64029591  0.47607158  1  0  0.106009  0  0.945366  0  0  0.114266  0  1.009004  0  0  0.118088  0  1.006375  0  0  0.108119  0.111681  0  1.010845  0
H  H7  1  0.77722810  0.35970863  0.52392711  1  0  0.106014  0  0.945338  0  0  0.114228  0  1.009028  0  0  0.118048  0  1.006401  0  0  0.108105  0.111647  0  1.010874  0
H  H8  1  0.07550540  0.32066874  0.38473649  1  0  0.089149  0  0.992801  0  0  0.098057  0  1.059249  0  0  0.100563  0  1.058516  0  0  0.102317  0.096472  0  1.059252  0
H  H9  1  0.92449528  0.67933048  0.61525590  1  0  0.089138  0  0.992811  0  0  0.098065  0  1.059239  0  0  0.100571  0  1.058515  0  0  0.102287  0.096479  0  1.059239  0
H  H10  1  0.71984885  0.80359335  0.97946626  1  0  0.102651  0  0.968301  0  0  0.109219  0  1.036352  0  0  0.113089  0  1.033408  0  0  0.1122  0.106001  0  1.039425  0
H  H11  1  0.28015077  0.19640256  0.02053689  1  0  0.102645  0  0.968327  0  0  0.109226  0  1.036369  0  0  0.113094  0  1.033424  0  0  0.112203  0.106005  0  1.039437  0
H  H12  1  0.21366968  0.97682470  0.00747368  1  0  0.095243  0  0.96379  0  0  0.105171  0  1.0283  0  0  0.108536  0  1.026284  0  0  0.104607  0.102865  0  1.029447  0
H  H13  1  0.78632610  0.02317226  0.99252923  1  0  0.095235  0  0.963827  0  0  0.105157  0  1.028341  0  0  0.108491  0  1.02636  0  0  0.104622  0.102853  0  1.029491  0
H  H14  1  0.16433647  0.13567891  0.25095739  1  0  0.099708  0  0.967656  0  0  0.10834  0  1.031846  0  0  0.111694  0  1.029567  0  0  0.10518  0.105886  0  1.033564  0
H  H15  1  0.83566890  0.86432354  0.74903613  1  0  0.099674  0  0.967677  0  0  0.108253  0  1.031943  0  0  0.111605  0  1.029664  0  0  0.10517  0.105807  0  1.03366  0
H  H16  1  0.69285846  0.05591503  0.58504946  1  0  0.10852  0  0.938952  0  0  0.118486  0  0.997025  0  0  0.122637  0  0.994127  0  0  0.109187  0.115496  0  0.999138  0
H  H17  1  0.30714182  0.94408845  0.41494603  1  0  0.108452  0  0.93901  0  0  0.118429  0  0.997064  0  0  0.122578  0  0.994169  0  0  0.109185  0.115435  0  0.999175  0
H  H18  1  0.68871538  0.82051728  0.44287233  1  0  0.079768  0  0.919422  0  0  0.094864  0  0.978633  0  0  0.095543  0  0.978776  0  0  0.10973  0.094286  0  0.978602  0
H  H19  1  0.31128515  0.17948296  0.55712616  1  0  0.079731  0  0.919428  0  0  0.094854  0  0.978602  0  0  0.095532  0  0.978746  0  0  0.109725  0.09428  0  0.978577  0
H  H20  1  0.62965675  0.93209241  0.28883790  1  0  0.06559  0  0.92347  0  0  0.080674  0  0.984526  0  0  0.081304  0  0.984292  0  0  0.104511  0.080115  0  0.984762  0
H  H21  1  0.37034261  0.06790674  0.71116225  1  0  0.065582  0  0.923423  0  0  0.080672  0  0.984469  0  0  0.081303  0  0.984234  0  0  0.10451  0.080118  0  0.984703  0
H  H22  1  0.91627462  0.97525862  0.17250590  1  0  0.069814  0  0.925445  0  0  0.083774  0  0.988715  0  0  0.084564  0  0.988135  0  0  0.104906  0.083141  0  0.989244  0
H  H23  1  0.08372323  0.02474375  0.82749255  1  0  0.069792  0  0.925456  0  0  0.083762  0  0.988731  0  0  0.084551  0  0.988154  0  0  0.104894  0.083129  0  0.989258  0
H  H24  1  0.97974161  0.82514810  0.30681175  1  0  0.054529  0  0.947863  0  0  0.067749  0  1.013879  0  0  0.067173  0  1.016657  0  0  0.095826  0.067974  0  1.012334  0
H  H25  1  0.02025890  0.17485213  0.69318860  1  0  0.054593  0  0.947826  0  0  0.067798  0  1.013865  0  0  0.067222  0  1.016641  0  0  0.095858  0.068026  0  1.012321  0
H  H26  1  0.56895961  0.66486525  0.35729747  1  0  0.334634  0  0.874586  0  0  0.319942  0  0.928478  0  0  0.328082  0  0.92146  0  0  0.326074  0.314315  0  0.933201  0
H  H27  1  0.43103992  0.33513174  0.64270437  1  0  0.334683  0  0.874564  0  0  0.319985  0  0.928458  0  0  0.328124  0  0.921439  0  0  0.32609  0.31436  0  0.933171  0
H  H28  1  0.04346946  0.74783940  0.09507990  1  0  0.322308  0  0.876237  0  0  0.306917  0  0.934104  0  0  0.314149  0  0.928301  0  0  0.321433  0.301936  0  0.93794  0
H  H29  1  0.95653103  0.25216081  0.90492230  1  0  0.322312  0  0.876257  0  0  0.306917  0  0.934125  0  0  0.31415  0  0.928321  0  0  0.321429  0.301935  0  0.937959  0
C  C30  1  0.34101303  0.45767640  0.33476585  1  0  0.646443  0  3.909021  0  0  0.599957  0  4.198888  0  0  0.633046  0  4.197943  0  0  0.19791  0.576932  0  4.203929  0
C  C31  1  0.65898454  0.54232919  0.66523238  1  0  0.646492  0  3.909272  0  0  0.600006  0  4.19912  0  0  0.633096  0  4.198168  0  0  0.197976  0.576967  0  4.20417  0
C  C32  1  0.16534747  0.47957536  0.42070571  1  0  -0.050944  0  3.741434  0  0  -0.029065  0  3.971635  0  0  -0.034604  0  3.991685  0  0  -0.012527  -0.024789  0  3.957048  0
C  C33  1  0.83464642  0.52042909  0.57929675  1  0  -0.051008  0  3.741735  0  0  -0.0291  0  3.971897  0  0  -0.034644  0  3.99195  0  0  -0.012569  -0.024819  0  3.957308  0
C  C34  1  0.12437455  0.58000515  0.48663617  1  0  -0.062019  0  3.707404  0  0  -0.086641  0  3.959687  0  0  -0.086912  0  3.977594  0  0  -0.077881  -0.086409  0  3.946969  0
C  C35  1  0.87562550  0.42000042  0.51336505  1  0  -0.062121  0  3.707631  0  0  -0.086731  0  3.959922  0  0  -0.086999  0  3.977829  0  0  -0.077917  -0.086505  0  3.947217  0
C  C36  1  0.04066197  0.39983301  0.43467220  1  0  -0.068171  0  3.72308  0  0  -0.09125  0  3.971986  0  0  -0.091466  0  3.991164  0  0  -0.081331  -0.090656  0  3.957801  0
C  C37  1  0.95933467  0.60016938  0.56532289  1  0  -0.068214  0  3.723071  0  0  -0.091333  0  3.972012  0  0  -0.091553  0  3.991188  0  0  -0.081341  -0.090737  0  3.95782  0
C  C38  1  0.42611099  0.74684982  0.98115261  1  0  0.70991  0  3.874036  0  0  0.664918  0  4.15992  0  0  0.700715  0  4.154231  0  0  0.225664  0.640873  0  4.167589  0
C  C39  1  0.57389197  0.25315039  0.01885167  1  0  0.709929  0  3.873983  0  0  0.664914  0  4.15988  0  0  0.700711  0  4.154191  0  0  0.225674  0.640856  0  4.16756  0
C  C40  1  0.46270109  0.87698671  0.99290061  1  0  -0.059232  0  3.746607  0  0  -0.03628  0  3.974162  0  0  -0.041507  0  3.993018  0  0  -0.011072  -0.032336  0  3.959895  0
C  C41  1  0.53730082  0.12301135  0.00710293  1  0  -0.059269  0  3.746647  0  0  -0.036235  0  3.974118  0  0  -0.041462  0  3.992967  0  0  -0.01112  -0.032284  0  3.959846  0
C  C42  1  0.62412472  0.88996243  0.98872441  1  0  -0.074059  0  3.735872  0  0  -0.097369  0  3.986253  0  0  -0.098369  0  4.005648  0  0  -0.080043  -0.096634  0  3.972927  0
C  C43  1  0.37587489  0.11003348  0.01127874  1  0  -0.074084  0  3.735925  0  0  -0.097448  0  3.986323  0  0  -0.09845  0  4.005732  0  0  -0.080057  -0.096709  0  3.972983  0
C  C44  1  0.33878280  0.98745404  0.00438714  1  0  -0.071861  0  3.740292  0  0  -0.094476  0  3.988157  0  0  -0.095153  0  4.007639  0  0  -0.082569  -0.093486  0  3.974238  0
C  C45  1  0.66121649  0.01254620  0.99561078  1  0  -0.071849  0  3.740367  0  0  -0.094491  0  3.988206  0  0  -0.095142  0  4.007696  0  0  -0.082572  -0.0935  0  3.97429  0
C  C46  1  0.83396954  0.22416874  0.31280104  1  0  0.636525  0  3.929552  0  0  0.591997  0  4.218868  0  0  0.624176  0  4.220481  0  0  0.196594  0.569328  0  4.223486  0
C  C47  1  0.16603097  0.77583148  0.68719931  1  0  0.636417  0  3.929461  0  0  0.591928  0  4.218834  0  0  0.624111  0  4.22044  0  0  0.196574  0.569247  0  4.223464  0
C  C48  1  0.92001201  0.10720703  0.40835351  1  0  -0.054507  0  3.741497  0  0  -0.030201  0  3.969325  0  0  -0.035924  0  3.990522  0  0  -0.011248  -0.026536  0  3.954658  0
C  C49  1  0.07999010  0.89279006  0.59163835  1  0  -0.054318  0  3.741118  0  0  -0.030229  0  3.96923  0  0  -0.03596  0  3.99043  0  0  -0.011226  -0.026553  0  3.954558  0
C  C50  1  0.09310796  0.07572254  0.36006030  1  0  -0.074528  0  3.728236  0  0  -0.098247  0  3.979803  0  0  -0.098672  0  3.998605  0  0  -0.082315  -0.097609  0  3.966856  0
C  C51  1  0.90689321  0.92428525  0.63993331  1  0  -0.074483  0  3.728363  0  0  -0.098101  0  3.979991  0  0  -0.09852  0  3.998797  0  0  -0.082315  -0.097473  0  3.967053  0
C  C52  1  0.82726786  0.03053231  0.54900312  1  0  -0.062839  0  3.707156  0  0  -0.084787  0  3.953451  0  0  -0.085502  0  3.971934  0  0  -0.075205  -0.084106  0  3.940826  0
C  C53  1  0.17273466  0.96947442  0.45098960  1  0  -0.062741  0  3.706941  0  0  -0.084641  0  3.953328  0  0  -0.08535  0  3.971811  0  0  -0.075187  -0.08396  0  3.940692  0
C  C54  1  0.80419559  0.68112419  0.20966565  1  0  0.752928  0  3.900246  0  0  0.683223  0  4.206221  0  0  0.718451  0  4.202481  0  0  0.343006  0.659582  0  4.2093  0
C  C55  1  0.19580270  0.31887280  0.79033562  1  0  0.752943  0  3.900281  0  0  0.683203  0  4.206294  0  0  0.718429  0  4.202554  0  0  0.343016  0.659554  0  4.20937  0
C  C56  1  0.71066190  0.83871091  0.33111664  1  0  0.050401  0  3.584089  0  0  -0.008488  0  3.849794  0  0  -0.004089  0  3.860178  0  0  -0.046925  -0.011285  0  3.842562  0
C  C57  1  0.28933602  0.16129037  0.66888404  1  0  0.050458  0  3.584018  0  0  -0.008428  0  3.849708  0  0  -0.00403  0  3.860092  0  0  -0.046892  -0.011238  0  3.842489  0
C  C58  1  0.89733224  0.86162278  0.24001129  1  0  0.038116  0  3.609149  0  0  -0.020629  0  3.87717  0  0  -0.016905  0  3.889018  0  0  -0.052982  -0.023068  0  3.869023  0
C  C59  1  0.10266693  0.13837851  0.75998903  1  0  0.038109  0  3.609161  0  0  -0.020684  0  3.877274  0  0  -0.016958  0  3.889119  0  0  -0.053022  -0.023123  0  3.86913  0
N  N60  1  0.67985475  0.71212533  0.31502885  1  0  -0.48565  0  3.228111  0  0  -0.425811  0  3.478942  0  0  -0.446877  0  3.484076  0  0  -0.421871  -0.411401  0  3.474618  0
N  N61  1  0.32014591  0.28787272  0.68497505  1  0  -0.485706  0  3.228198  0  0  -0.425851  0  3.479037  0  0  -0.446918  0  3.484175  0  0  -0.421864  -0.41143  0  3.474693  0
N  N62  1  0.92831390  0.77251456  0.15561318  1  0  -0.483439  0  3.183922  0  0  -0.424568  0  3.43634  0  0  -0.443861  0  3.43894  0  0  -0.426309  -0.410603  0  3.432964  0
N  N63  1  0.07168686  0.22748242  0.84439016  1  0  -0.483501  0  3.184038  0  0  -0.424582  0  3.436455  0  0  -0.443877  0  3.439057  0  0  -0.426306  -0.41062  0  3.433077  0
O  O64  1  0.37211302  0.37687918  0.26206025  1  0  -0.715556  0  2.017848  0  0  -0.657883  0  2.248202  0  0  -0.692285  0  2.238898  0  0  -0.376316  -0.639875  0  2.253425  0
O  O65  1  0.62789014  0.62311890  0.73794293  1  0  -0.715611  0  2.017955  0  0  -0.65793  0  2.248303  0  0  -0.692332  0  2.239005  0  0  -0.376324  -0.639925  0  2.25354  0
O  O66  1  0.82739323  0.52646802  0.90879080  1  0  -0.916612  0  1.867315  0  0  -0.873411  0  2.069216  0  0  -0.903009  0  2.030925  0  0  -0.653546  -0.85999  0  2.091404  0
O  O67  1  0.17260630  0.47352898  0.09121011  1  0  -0.916617  0  1.867315  0  0  -0.873418  0  2.069275  0  0  -0.903003  0  2.030959  0  0  -0.653562  -0.859995  0  2.091435  0
O  O68  1  0.45852431  0.51958402  0.33038671  1  0  -0.681746  0  1.991527  0  0  -0.637995  0  2.232524  0  0  -0.670185  0  2.222808  0  0  -0.363159  -0.621266  0  2.238042  0
O  O69  1  0.54148045  0.48040975  0.66961857  1  0  -0.681745  0  1.991564  0  0  -0.637977  0  2.232501  0  0  -0.670161  0  2.222783  0  0  -0.363197  -0.621239  0  2.238013  0
O  O70  1  0.50956497  0.62961724  0.02532145  1  0  -0.784908  0  2.155621  0  0  -0.728167  0  2.415157  0  0  -0.77017  0  2.405238  0  0  -0.4037  -0.709983  0  2.421771  0
O  O71  1  0.49044296  0.37038413  0.97467546  1  0  -0.784863  0  2.155566  0  0  -0.72813  0  2.415108  0  0  -0.770132  0  2.405188  0  0  -0.403645  -0.709939  0  2.421717  0
O  O72  1  0.31541299  0.75867791  0.92354025  1  0  -0.714054  0  1.96762  0  0  -0.668155  0  2.213405  0  0  -0.70227  0  2.199877  0  0  -0.38376  -0.651218  0  2.22026  0
O  O73  1  0.68459043  0.24131693  0.07646500  1  0  -0.714089  0  1.967594  0  0  -0.668185  0  2.21339  0  0  -0.702298  0  2.199859  0  0  -0.383779  -0.651244  0  2.220248  0
O  O74  1  0.67652845  0.25046455  0.36070611  1  0  -0.686802  0  1.950441  0  0  -0.644199  0  2.184605  0  0  -0.677403  0  2.175267  0  0  -0.384274  -0.627621  0  2.190066  0
O  O75  1  0.32347092  0.74953461  0.63929312  1  0  -0.68678  0  1.950472  0  0  -0.644172  0  2.184633  0  0  -0.677374  0  2.175292  0  0  -0.384262  -0.627589  0  2.190094  0
O  O76  1  0.91807446  0.29741591  0.18475510  1  0  -0.694025  0  1.987318  0  0  -0.638773  0  2.22049  0  0  -0.671254  0  2.210319  0  0  -0.361376  -0.621802  0  2.22742  0
O  O77  1  0.08193007  0.70258113  0.81524533  1  0  -0.694025  0  1.987336  0  0  -0.63877  0  2.220513  0  0  -0.671249  0  2.210341  0  0  -0.361405  -0.621802  0  2.227454  0
O  O78  1  0.80683970  0.58442940  0.16474267  1  0  -0.748169  0  2.078134  0  0  -0.699171  0  2.352985  0  0  -0.73535  0  2.336602  0  0  -0.415709  -0.682428  0  2.361041  0
O  O79  1  0.19315607  0.41556756  0.83526117  1  0  -0.748151  0  2.07808  0  0  -0.69916  0  2.352948  0  0  -0.735335  0  2.336567  0  0  -0.415741  -0.682409  0  2.360986  0
