# generated using pymatgen
data_ZnH28C20N2O7
_symmetry_space_group_name_H-M   'P 1'
_cell_length_a   5.69189347
_cell_length_b   11.49759390
_cell_length_c   16.93140000
_cell_angle_alpha   90.00000000
_cell_angle_beta   90.00000000
_cell_angle_gamma   97.96090016
_symmetry_Int_Tables_number   1
_chemical_formula_structural   ZnH28C20N2O7
_chemical_formula_sum   'Zn2 H56 C40 N4 O14'
_cell_volume   1097.36454195
_cell_formula_units_Z   2
loop_
 _symmetry_equiv_pos_site_id
 _symmetry_equiv_pos_as_xyz
  1  'x, y, z'
loop_
 _atom_site_type_symbol
 _atom_site_label
 _atom_site_symmetry_multiplicity
 _atom_site_fract_x
 _atom_site_fract_y
 _atom_site_fract_z
 _atom_site_occupancy
 _atom_site_hle17_bader_spin_density
 _atom_site_hle17_ddec_charge
 _atom_site_hle17_ddec_spin_density
 _atom_site_hle17_ddec_sum_bond_order
 _atom_site_hle17_magmom
 _atom_site_hse06_10hf_bader_spin_density
 _atom_site_hse06_10hf_ddec_charge
 _atom_site_hse06_10hf_ddec_spin_density
 _atom_site_hse06_10hf_ddec_sum_bond_order
 _atom_site_hse06_10hf_magmom
 _atom_site_hse06_bader_spin_density
 _atom_site_hse06_ddec_charge
 _atom_site_hse06_ddec_spin_density
 _atom_site_hse06_ddec_sum_bond_order
 _atom_site_hse06_magmom
 _atom_site_pbe_bader_charge
 _atom_site_pbe_bader_spin_density
 _atom_site_pbe_cm5_charge
 _atom_site_pbe_ddec_charge
 _atom_site_pbe_ddec_spin_density
 _atom_site_pbe_ddec_sum_bond_order
 _atom_site_pbe_magmom
Zn  Zn0  1  0.79037866  0.73048334  0.65502144  1  0  1.025653  0  1.864836  0  0  0.847282  0  2.313009  0  0  0.89294  0  2.261846  0  1.318517  0  0.672563  0.815475  0  2.347738  0
Zn  Zn1  1  0.20962548  0.26951759  0.15502144  1  0  1.025704  0  1.864834  0  0  0.847314  0  2.313054  0  0  0.892972  0  2.261888  0  1.318508  0  0.672574  0.815506  0  2.347783  0
H  H2  1  0.26225270  0.73846715  0.66166944  1  0  0.426479  0  0.877169  0  0  0.394213  0  0.943033  0  0  0.4054  0  0.926795  0  0.645792  0  0.292581  0.386309  0  0.954495  0
H  H3  1  0.73774490  0.26153553  0.16166767  1  0  0.426463  0  0.877192  0  0  0.394196  0  0.943056  0  0  0.405381  0  0.926822  0  0.645751  0  0.292577  0.386293  0  0.954517  0
H  H4  1  0.12580373  0.72443598  0.74782889  1  0  0.428704  0  0.864867  0  0  0.396678  0  0.933237  0  0  0.408464  0  0.915915  0  0.673365  0  0.292718  0.388304  0  0.945537  0
H  H5  1  0.87419363  0.27556582  0.24782711  1  0  0.428624  0  0.864966  0  0  0.396667  0  0.933219  0  0  0.408446  0  0.915905  0  0.673381  0  0.292743  0.388291  0  0.945527  0
H  H6  1  0.10135302  0.95404065  0.59248851  1  0  0.085216  0  0.931335  0  0  0.094374  0  0.992574  0  0  0.096881  0  0.990942  0  0.096105  0  0.120205  0.092355  0  0.99427  0
H  H7  1  0.89864684  0.04596379  0.09248969  1  0  0.085193  0  0.931326  0  0  0.094342  0  0.992584  0  0  0.096849  0  0.990952  0  0.096072  0  0.120189  0.092323  0  0.99428  0
H  H8  1  0.11681457  0.16992498  0.59090034  1  0  0.110678  0  0.984171  0  0  0.116613  0  1.052491  0  0  0.120507  0  1.05024  0  0.124414  0  0.107993  0.113742  0  1.054441  0
H  H9  1  0.88318680  0.83007858  0.09089798  1  0  0.110705  0  0.984211  0  0  0.11666  0  1.052471  0  0  0.120539  0  1.050262  0  0.124402  0  0.107992  0.113787  0  1.054424  0
H  H10  1  0.47648798  0.12407097  0.73277225  1  0  0.104589  0  0.950928  0  0  0.118204  0  1.004636  0  0  0.121212  0  1.004146  0  0.068596  0  0.110187  0.115947  0  1.005446  0
H  H11  1  0.52351592  0.87592908  0.23276929  1  0  0.104579  0  0.950957  0  0  0.118206  0  1.004646  0  0  0.121215  0  1.004155  0  0.068614  0  0.110198  0.11595  0  1.005455  0
H  H12  1  0.47941229  0.91013363  0.72234665  1  0  0.089407  0  0.960897  0  0  0.095705  0  1.027529  0  0  0.099116  0  1.023982  0  0.122295  0  0.118058  0.093101  0  1.030357  0
H  H13  1  0.52059361  0.08986730  0.22234724  1  0  0.089372  0  0.960974  0  0  0.095677  0  1.027592  0  0  0.099087  0  1.024049  0  0.122262  0  0.118028  0.093073  0  1.03042  0
H  H14  1  0.10207065  0.55297238  0.59117852  1  0  0.087986  0  0.940646  0  0  0.094455  0  1.006024  0  0  0.097722  0  1.002893  0  0.129485  0  0.119912  0.091974  0  1.008457  0
H  H15  1  0.89794735  0.44702153  0.09117734  1  0  0.087981  0  0.940622  0  0  0.094453  0  1.005988  0  0  0.097715  0  1.002864  0  0.129364  0  0.119901  0.091989  0  1.008405  0
H  H16  1  0.12198856  0.34082566  0.59192920  1  0  0.116879  0  0.987234  0  0  0.125116  0  1.049591  0  0  0.128798  0  1.04796  0  0.109785  0  0.108971  0.12226  0  1.051341  0
H  H17  1  0.87802466  0.65917000  0.09192329  1  0  0.116937  0  0.987117  0  0  0.12514  0  1.049511  0  0  0.128849  0  1.04784  0  0.109834  0  0.108985  0.122283  0  1.051262  0
H  H18  1  0.46926078  0.29794439  0.72816306  1  0  0.099982  0  0.973028  0  0  0.111325  0  1.03474  0  0  0.114108  0  1.034344  0  0.09183  0  0.107936  0.109257  0  1.03531  0
H  H19  1  0.53073606  0.70206181  0.22816424  1  0  0.100102  0  0.972965  0  0  0.111374  0  1.034744  0  0  0.114154  0  1.034352  0  0.09182  0  0.107943  0.10931  0  1.035314  0
H  H20  1  0.48199025  0.51359868  0.72175426  1  0  0.082917  0  0.933798  0  0  0.091984  0  0.994894  0  0  0.094508  0  0.993087  0  0.108547  0  0.119769  0.089897  0  0.996707  0
H  H21  1  0.51801713  0.48640752  0.22176311  1  0  0.08289  0  0.933708  0  0  0.091983  0  0.994828  0  0  0.094515  0  0.993023  0  0.108474  0  0.119732  0.089895  0  0.99664  0
H  H22  1  0.45788501  0.68153890  0.90952254  1  0  0.0588  0  0.923029  0  0  0.069284  0  0.982707  0  0  0.070852  0  0.981541  0  0.030687  0  0.106039  0.068122  0  0.983764  0
H  H23  1  0.54211439  0.31845763  0.40952195  1  0  0.058837  0  0.923028  0  0  0.069327  0  0.982691  0  0  0.070896  0  0.981524  0  0.030773  0  0.106029  0.068164  0  0.983752  0
H  H24  1  0.91829089  0.68516943  0.94221151  1  0  0.355544  0  0.896191  0  0  0.332836  0  0.970816  0  0  0.343589  0  0.957791  0  0.632096  0  0.295049  0.325129  0  0.980172  0
H  H25  1  0.08170725  0.31482887  0.44221447  1  0  0.355608  0  0.896125  0  0  0.332895  0  0.970761  0  0  0.343647  0  0.957737  0  0.632096  0  0.295059  0.325184  0  0.980126  0
H  H26  1  0.47598001  0.87645074  0.85721559  1  0  0.046041  0  0.919868  0  0  0.062704  0  0.974019  0  0  0.063119  0  0.9745  0  0.024787  0  0.094368  0.06236  0  0.973796  0
H  H27  1  0.52400910  0.12354668  0.35721263  1  0  0.04606  0  0.919861  0  0  0.062698  0  0.974045  0  0  0.063115  0  0.974523  0  0.024936  0  0.09437  0.062355  0  0.973822  0
H  H28  1  0.79218595  0.04100014  0.90035319  1  0  0.103338  0  0.974271  0  0  0.123739  0  1.039161  0  0  0.125628  0  1.038771  0  0.048732  0  0.082826  0.122364  0  1.03945  0
H  H29  1  0.20779662  0.95899903  0.40035260  1  0  0.103338  0  0.974353  0  0  0.123757  0  1.039208  0  0  0.125646  0  1.038817  0  0.048816  0  0.082836  0.122381  0  1.039499  0
H  H30  1  0.90938280  0.93610495  0.83951298  1  0  0.093759  0  0.959775  0  0  0.114183  0  1.022204  0  0  0.115457  0  1.022709  0  -0.003743  0  0.080475  0.113284  0  1.0218  0
H  H31  1  0.09060578  0.06389685  0.33951239  1  0  0.093736  0  0.959844  0  0  0.114174  0  1.022254  0  0  0.115448  0  1.022759  0  -0.003772  0  0.080446  0.113276  0  1.021849  0
H  H32  1  0.95340126  0.93511170  0.94328703  1  0  0.089911  0  0.974188  0  0  0.109626  0  1.043573  0  0  0.110832  0  1.044003  0  0.02309  0  0.080156  0.108782  0  1.04325  0
H  H33  1  0.04659308  0.06489186  0.44328644  1  0  0.089953  0  0.974122  0  0  0.109653  0  1.043533  0  0  0.11086  0  1.043962  0  0.023348  0  0.080159  0.108811  0  1.043209  0
H  H34  1  0.43273183  0.98390333  0.98445019  1  0  0.092422  0  0.972639  0  0  0.111026  0  1.040949  0  0  0.112143  0  1.041617  0  0.002662  0  0.08087  0.11022  0  1.040455  0
H  H35  1  0.56726079  0.01609409  0.48444842  1  0  0.092416  0  0.972735  0  0  0.111083  0  1.040955  0  0  0.112198  0  1.041624  0  0.002676  0  0.080914  0.110276  0  1.040462  0
H  H36  1  0.57084635  0.87718492  0.03550799  1  0  0.086564  0  0.974761  0  0  0.107792  0  1.039824  0  0  0.108519  0  1.041046  0  -0.004932  0  0.078582  0.107204  0  1.039118  0
H  H37  1  0.42914827  0.12281337  0.53550563  1  0  0.086432  0  0.974666  0  0  0.107703  0  1.039716  0  0  0.108426  0  1.040941  0  -0.004914  0  0.078531  0.107114  0  1.039012  0
H  H38  1  0.29408622  0.83513532  0.98808427  1  0  0.090133  0  0.967222  0  0  0.109451  0  1.034682  0  0  0.110727  0  1.034925  0  -0.002087  0  0.081375  0.108474  0  1.034601  0
H  H39  1  0.70590615  0.16486122  0.48808073  1  0  0.090026  0  0.967245  0  0  0.109332  0  1.034757  0  0  0.110618  0  1.034988  0  -0.002023  0  0.081334  0.108356  0  1.034675  0
H  H40  1  0.76650750  0.85837189  0.46027263  1  0  0.053739  0  0.918469  0  0  0.065058  0  0.97821  0  0  0.066576  0  0.977294  0  0.076601  0  0.108373  0.063878  0  0.979015  0
H  H41  1  0.23349464  0.14162816  0.96027145  1  0  0.053687  0  0.918542  0  0  0.065086  0  0.978136  0  0  0.066596  0  0.97723  0  0.076468  0  0.108385  0.063906  0  0.978943  0
H  H42  1  0.06421726  0.76148506  0.51296939  1  0  0.383829  0  0.926084  0  0  0.354755  0  1.00042  0  0  0.366915  0  0.983738  0  0.656621  0  0.292722  0.345671  0  1.010043  0
H  H43  1  0.93578537  0.23851675  0.01296821  1  0  0.383839  0  0.926033  0  0  0.354762  0  1.000375  0  0  0.366918  0  0.983721  0  0.656622  0  0.292754  0.34568  0  1.009992  0
H  H44  1  0.53308969  0.71190655  0.37420946  1  0  0.039295  0  0.934547  0  0  0.053412  0  0.994176  0  0  0.054129  0  0.994316  0  0.030425  0  0.090978  0.052732  0  0.994398  0
H  H45  1  0.46690767  0.28809525  0.87420769  1  0  0.039329  0  0.934503  0  0  0.053429  0  0.994142  0  0  0.054147  0  0.994281  0  0.03041  0  0.090993  0.05275  0  0.99436  0
H  H46  1  0.92856124  0.80952230  0.32983274  1  0  0.088635  0  0.961151  0  0  0.108095  0  1.028192  0  0  0.109165  0  1.028758  0  0.008571  0  0.079682  0.10733  0  1.027729  0
H  H47  1  0.07144997  0.19047248  0.82983037  1  0  0.088693  0  0.961094  0  0  0.108135  0  1.028156  0  0  0.109206  0  1.028721  0  0.008487  0  0.0797  0.107368  0  1.027697  0
H  H48  1  0.87838901  0.66184766  0.29464368  1  0  0.085702  0  0.971668  0  0  0.105379  0  1.038466  0  0  0.106116  0  1.039983  0  0.020141  0  0.078109  0.104936  0  1.037262  0
H  H49  1  0.12160990  0.33814712  0.79464073  1  0  0.085725  0  0.971655  0  0  0.1054  0  1.038462  0  0  0.106135  0  1.039981  0  0.020649  0  0.078094  0.104957  0  1.037259  0
H  H50  1  0.06989237  0.69911453  0.37582716  1  0  0.110639  0  0.956683  0  0  0.131911  0  1.016562  0  0  0.133908  0  1.016064  0  0.079904  0  0.088176  0.130242  0  1.017344  0
H  H51  1  0.93010356  0.30087585  0.87582244  1  0  0.110651  0  0.956641  0  0  0.131984  0  1.016466  0  0  0.133983  0  1.015963  0  0.079991  0  0.08821  0.130324  0  1.01724  0
H  H52  1  0.48816612  0.53285432  0.45880730  1  0  0.102131  0  0.94435  0  0  0.121995  0  1.006368  0  0  0.123927  0  1.005635  0  0.040281  0  0.085323  0.120546  0  1.006984  0
H  H53  1  0.51182875  0.46714485  0.95880612  1  0  0.102066  0  0.94427  0  0  0.121959  0  1.006273  0  0  0.123891  0  1.005539  0  0.040333  0  0.085302  0.120511  0  1.006889  0
H  H54  1  0.80056404  0.53202266  0.45712522  1  0  0.10014  0  0.951987  0  0  0.120089  0  1.015729  0  0  0.121868  0  1.015312  0  0.026419  0  0.083928  0.118756  0  1.01612  0
H  H55  1  0.19943108  0.46797739  0.95712404  1  0  0.100138  0  0.951928  0  0  0.120073  0  1.015701  0  0  0.121849  0  1.015288  0  0.026569  0  0.083936  0.118748  0  1.016083  0
H  H56  1  0.63345086  0.50537687  0.36918211  1  0  0.095008  0  0.958622  0  0  0.117111  0  1.020896  0  0  0.11828  0  1.021007  0  0.019811  0  0.08535  0.116238  0  1.020833  0
H  H57  1  0.36654625  0.49462406  0.86918093  1  0  0.094931  0  0.95867  0  0  0.117109  0  1.02087  0  0  0.118281  0  1.020977  0  0.019781  0  0.085347  0.116225  0  1.020821  0
C  C58  1  0.96567874  0.99565115  0.62278075  1  0  0.134338  0  3.703082  0  0  0.105318  0  3.955285  0  0  0.111625  0  3.973733  0  0.479515  0  0.051896  0.10125  0  3.943132  0
C  C59  1  0.03432614  0.00435241  0.12278016  1  0  0.134438  0  3.702941  0  0  0.105412  0  3.955128  0  0  0.111721  0  3.973575  0  0.479533  0  0.051921  0.101343  0  3.942974  0
C  C60  1  0.97595347  0.11707163  0.62371393  1  0  -0.164789  0  3.701826  0  0  -0.184531  0  3.952725  0  0  -0.192268  0  3.973698  0  -0.007812  0  -0.079377  -0.179423  0  3.938896  0
C  C61  1  0.02404590  0.88293105  0.12371157  1  0  -0.164897  0  3.70175  0  0  -0.184638  0  3.95263  0  0  -0.192383  0  3.973598  0  -0.007799  0  -0.079381  -0.179529  0  3.938802  0
C  C62  1  0.79870968  0.16871569  0.66283887  1  0  0.095164  0  3.754099  0  0  0.107063  0  3.982766  0  0  0.110847  0  4.004788  0  0.005635  0  0.017821  0.104658  0  3.967489  0
C  C63  1  0.20129295  0.83128612  0.16283473  1  0  0.095193  0  3.75398  0  0  0.107118  0  3.982602  0  0  0.110904  0  4.004622  0  0.005676  0  0.017848  0.104714  0  3.967324  0
C  C64  1  0.61994242  0.09199169  0.70044769  1  0  -0.155512  0  3.692702  0  0  -0.172593  0  3.936199  0  0  -0.180276  0  3.95756  0  -0.081929  0  -0.078279  -0.167654  0  3.922237  0
C  C65  1  0.38006123  0.90800748  0.20044474  1  0  -0.155523  0  3.692533  0  0  -0.17261  0  3.936023  0  0  -0.180293  0  3.95738  0  -0.081936  0  -0.078334  -0.167671  0  3.92206  0
C  C66  1  0.62027983  0.97131418  0.69550894  1  0  0.13678  0  3.688491  0  0  0.10683  0  3.940632  0  0  0.113351  0  3.958466  0  0.522646  0  0.052735  0.102743  0  3.928735  0
C  C67  1  0.37972657  0.02868851  0.19550835  1  0  0.136808  0  3.688463  0  0  0.106837  0  3.940611  0  0  0.113359  0  3.958446  0  0.52267  0  0.052763  0.10275  0  3.928714  0
C  C68  1  0.96557748  0.49306787  0.62133492  1  0  0.131872  0  3.701682  0  0  0.10268  0  3.954288  0  0  0.109149  0  3.971646  0  0.454936  0  0.051045  0.098644  0  3.942738  0
C  C69  1  0.03443822  0.50693042  0.12133314  1  0  0.131915  0  3.701512  0  0  0.102723  0  3.954143  0  0  0.109194  0  3.971509  0  0.454966  0  0.051113  0.098671  0  3.942588  0
C  C70  1  0.97618445  0.37308673  0.62285162  1  0  -0.157126  0  3.683985  0  0  -0.175961  0  3.927635  0  0  -0.183877  0  3.949083  0  0.006589  0  -0.078766  -0.170815  0  3.91375  0
C  C71  1  0.02382447  0.62691244  0.12284867  1  0  -0.157251  0  3.683975  0  0  -0.176061  0  3.927655  0  0  -0.183988  0  3.949078  0  0.006503  0  -0.078829  -0.170916  0  3.913777  0
C  C72  1  0.79707222  0.29746576  0.66136941  1  0  0.09628  0  3.743402  0  0  0.109018  0  3.971228  0  0  0.112858  0  3.993076  0  -0.065082  0  0.015727  0.106549  0  3.956071  0
C  C73  1  0.20293217  0.70253604  0.16136646  1  0  0.096378  0  3.743501  0  0  0.109111  0  3.971286  0  0  0.112952  0  3.993135  0  -0.065185  0  0.015756  0.106643  0  3.956127  0
C  C74  1  0.61522157  0.34978692  0.69715263  1  0  -0.153021  0  3.69246  0  0  -0.171314  0  3.936764  0  0  -0.178857  0  3.95825  0  -0.009077  0  -0.077425  -0.166261  0  3.922434  0
C  C75  1  0.38477653  0.65021752  0.19715381  1  0  -0.153153  0  3.692556  0  0  -0.17138  0  3.936887  0  0  -0.178922  0  3.958376  0  -0.008965  0  -0.077384  -0.166332  0  3.922558  0
C  C76  1  0.61940687  0.47075780  0.69354572  1  0  0.142592  0  3.69618  0  0  0.112124  0  3.947337  0  0  0.118731  0  3.96538  0  0.488997  0  0.054041  0.107899  0  3.935378  0
C  C77  1  0.38059878  0.52924224  0.19355044  1  0  0.142576  0  3.696095  0  0  0.112049  0  3.947238  0  0  0.118645  0  3.965291  0  0.488952  0  0.054006  0.107825  0  3.935275  0
C  C78  1  0.75126326  0.70842796  0.82815065  1  0  0.625018  0  3.878428  0  0  0.57214  0  4.184738  0  0  0.604217  0  4.17986  0  1.568378  0  0.20327  0.550412  0  4.187195  0
C  C79  1  0.24873283  0.29157560  0.32815125  1  0  0.625075  0  3.878378  0  0  0.572183  0  4.184721  0  0  0.604257  0  4.179846  0  1.567893  0  0.203333  0.550456  0  4.187173  0
C  C80  1  0.63299224  0.73588609  0.90589851  1  0  0.06566  0  3.626817  0  0  0.045499  0  3.875828  0  0  0.046437  0  3.884173  0  0.473772  0  -0.011572  0.044682  0  3.870114  0
C  C81  1  0.36700765  0.26411220  0.40589792  1  0  0.065593  0  3.626903  0  0  0.045419  0  3.875944  0  0  0.04636  0  3.884287  0  0.473651  0  -0.011579  0.044603  0  3.870228  0
C  C82  1  0.59410303  0.86601584  0.90752862  1  0  0.069579  0  3.65089  0  0  0.076041  0  3.885953  0  0  0.075638  0  3.904048  0  0.04054  0  -0.093191  0.076356  0  3.873572  0
C  C83  1  0.40589184  0.13398333  0.40752802  1  0  0.069702  0  3.650955  0  0  0.076168  0  3.886039  0  0  0.075763  0  3.904135  0  0.040311  0  -0.093165  0.07648  0  3.873663  0
C  C84  1  0.82568340  0.94941951  0.89675514  1  0  -0.326162  0  3.694613  0  0  -0.405772  0  3.934838  0  0  -0.408772  0  3.945223  0  -0.069624  0  -0.256365  -0.403432  0  3.927613  0
C  C85  1  0.17431347  0.05058054  0.39675396  1  0  -0.326259  0  3.694766  0  0  -0.4059  0  3.934997  0  0  -0.408898  0  3.945379  0  -0.069951  0  -0.256375  -0.403561  0  3.927772  0
C  C86  1  0.46520500  0.89199331  0.98311244  1  0  -0.307307  0  3.691065  0  0  -0.386675  0  3.9337  0  0  -0.389479  0  3.945309  0  0.002673  0  -0.252052  -0.384401  0  3.925511  0
C  C87  1  0.53478913  0.10800323  0.48310949  1  0  -0.307139  0  3.691009  0  0  -0.38655  0  3.9336  0  0  -0.389375  0  3.945234  0  0.002651  0  -0.252022  -0.384276  0  3.925414  0
C  C88  1  0.48140764  0.75810219  0.52175307  1  0  0.644052  0  3.832683  0  0  0.585074  0  4.146072  0  0  0.617947  0  4.139043  0  1.583352  0  0.21712  0.562612  0  4.150423  0
C  C89  1  0.51859397  0.24190225  0.02174894  1  0  0.644106  0  3.832552  0  0  0.585094  0  4.145977  0  0  0.617966  0  4.138943  0  1.58323  0  0.217103  0.562634  0  4.150332  0
C  C90  1  0.71996809  0.76587084  0.47896984  1  0  0.079983  0  3.613421  0  0  0.056677  0  3.859023  0  0  0.058165  0  3.867584  0  0.425725  0  -0.002688  0.055359  0  3.85339  0
C  C91  1  0.28002751  0.23413097  0.97896925  1  0  0.079983  0  3.613514  0  0  0.056724  0  3.858999  0  0  0.058219  0  3.867557  0  0.425852  0  -0.002625  0.055401  0  3.853371  0
C  C92  1  0.69249525  0.68830640  0.40377228  1  0  0.058851  0  3.655753  0  0  0.065046  0  3.893527  0  0  0.06454  0  3.911583  0  0.01237  0  -0.095183  0.065616  0  3.880966  0
C  C93  1  0.30750689  0.31169365  0.90377051  1  0  0.058831  0  3.655636  0  0  0.065023  0  3.893417  0  0  0.064514  0  3.911474  0  0.012355  0  -0.095216  0.065595  0  3.880859  0
C  C94  1  0.90409658  0.71673056  0.34798599  1  0  -0.31939  0  3.694067  0  0  -0.399083  0  3.938935  0  0  -0.401864  0  3.949232  0  -0.103163  0  -0.251791  -0.396789  0  3.931661  0
C  C95  1  0.09590433  0.28326510  0.84798422  1  0  -0.319527  0  3.693952  0  0  -0.39928  0  3.938834  0  0  -0.402062  0  3.949128  0  -0.103712  0  -0.251853  -0.396987  0  3.931543  0
C  C96  1  0.65011666  0.55744335  0.42377063  1  0  -0.307413  0  3.680684  0  0  -0.386525  0  3.922479  0  0  -0.389144  0  3.932807  0  -0.055348  0  -0.249412  -0.384481  0  3.915414  0
C  C97  1  0.34987695  0.44255758  0.92377004  1  0  -0.307255  0  3.680476  0  0  -0.38646  0  3.922299  0  0  -0.389079  0  3.932631  0  -0.055523  0  -0.249392  -0.384417  0  3.915237  0
N  N98  1  0.78974750  0.92306704  0.65714767  1  0  -0.312937  0  3.238877  0  0  -0.240577  0  3.499323  0  0  -0.257758  0  3.516778  0  -1.223445  0  -0.315283  -0.228967  0  3.487215  0
N  N99  1  0.21025538  0.07693565  0.15714708  1  0  -0.313  0  3.238991  0  0  -0.24062  0  3.499419  0  0  -0.257801  0  3.516873  0  -1.223496  0  -0.315273  -0.229011  0  3.487312  0
N  N100  1  0.79102160  0.54194205  0.65611408  1  0  -0.311465  0  3.270254  0  0  -0.238986  0  3.535195  0  0  -0.255601  0  3.551019  0  -1.242762  0  -0.31503  -0.227825  0  3.524236  0
N  N101  1  0.20898756  0.45805800  0.15611586  1  0  -0.311433  0  3.270144  0  0  -0.238955  0  3.535125  0  0  -0.255572  0  3.550953  0  -1.242514  0  -0.315028  -0.227788  0  3.52416  0
O  O102  1  0.13975503  0.76639777  0.69614562  1  0  -0.834815  0  1.951768  0  0  -0.776692  0  2.166748  0  0  -0.798497  0  2.131037  0  -1.294534  0  -0.579207  -0.761296  0  2.191549  0
O  O103  1  0.86024433  0.23360492  0.19614326  1  0  -0.834721  0  1.951864  0  0  -0.776626  0  2.16681  0  0  -0.798421  0  2.131119  0  -1.294489  0  -0.579226  -0.761239  0  2.191614  0
O  O104  1  0.63252576  0.72066670  0.76523264  1  0  -0.647364  0  2.066147  0  0  -0.582051  0  2.336184  0  0  -0.610077  0  2.324684  0  -1.18979  0  -0.327095  -0.562191  0  2.343054  0
O  O105  1  0.36746960  0.27933422  0.26523324  1  0  -0.647402  0  2.066067  0  0  -0.582048  0  2.336093  0  0  -0.610076  0  2.324597  0  -1.189741  0  -0.327097  -0.562191  0  2.342966  0
O  O106  1  0.95787608  0.67978424  0.83252714  1  0  -0.626157  0  1.928252  0  0  -0.5703  0  2.138409  0  0  -0.594572  0  2.128228  0  -1.181596  0  -0.321584  -0.553339  0  2.144997  0
O  O107  1  0.04211879  0.32021493  0.33252950  1  0  -0.626163  0  1.928309  0  0  -0.570338  0  2.138465  0  0  -0.594605  0  2.128286  0  -1.181126  0  -0.321623  -0.553375  0  2.145054  0
O  O108  1  0.77772810  0.70682347  0.97012710  1  0  -0.559322  0  2.051938  0  0  -0.515723  0  2.267037  0  0  -0.530307  0  2.255664  0  -1.176021  0  -0.411117  -0.505101  0  2.27482  0
O  O109  1  0.22227682  0.29317395  0.47012887  1  0  -0.559392  0  2.051929  0  0  -0.515784  0  2.26705  0  0  -0.530369  0  2.255669  0  -1.176006  0  -0.41113  -0.505162  0  2.274838  0
O  O110  1  0.46436503  0.71579790  0.59199712  1  0  -0.642944  0  2.08615  0  0  -0.566524  0  2.335996  0  0  -0.594685  0  2.323871  0  -1.189841  0  -0.311934  -0.546952  0  2.343814  0
O  O111  1  0.53563536  0.28420215  0.09199535  1  0  -0.642957  0  2.086048  0  0  -0.566543  0  2.335923  0  0  -0.594702  0  2.323792  0  -1.189778  0  -0.311916  -0.546956  0  2.343708  0
O  O112  1  0.31444768  0.79341504  0.48371724  1  0  -0.595456  0  2.015174  0  0  -0.547184  0  2.249404  0  0  -0.571419  0  2.239776  0  -1.193149  0  -0.306777  -0.529874  0  2.255114  0
O  O113  1  0.68555042  0.20658940  0.98371369  1  0  -0.595454  0  2.015102  0  0  -0.547196  0  2.249376  0  0  -0.571431  0  2.239754  0  -1.193048  0  -0.306785  -0.529891  0  2.255085  0
O  O114  1  0.89380210  0.73458107  0.53241315  1  0  -0.593086  0  2.223072  0  0  -0.527405  0  2.477568  0  0  -0.547441  0  2.462063  0  -1.180743  0  -0.392805  -0.512863  0  2.486259  0
O  O115  1  0.10619804  0.26541810  0.03241256  1  0  -0.593105  0  2.223145  0  0  -0.527443  0  2.477616  0  0  -0.547473  0  2.46212  0  -1.180713  0  -0.392869  -0.512905  0  2.486312  0
