# generated using pymatgen
data_NiH20C20(NO4)2
_symmetry_space_group_name_H-M   'P 1'
_cell_length_a   7.29341525
_cell_length_b   10.75316250
_cell_length_c   12.62080141
_cell_angle_alpha   88.05392206
_cell_angle_beta   73.15035115
_cell_angle_gamma   82.69425346
_symmetry_Int_Tables_number   1
_chemical_formula_structural   NiH20C20(NO4)2
_chemical_formula_sum   'Ni2 H40 C40 N4 O16'
_cell_volume   939.62601920
_cell_formula_units_Z   2
loop_
 _symmetry_equiv_pos_site_id
 _symmetry_equiv_pos_as_xyz
  1  'x, y, z'
loop_
 _atom_site_type_symbol
 _atom_site_label
 _atom_site_symmetry_multiplicity
 _atom_site_fract_x
 _atom_site_fract_y
 _atom_site_fract_z
 _atom_site_occupancy
 _atom_site_hle17_ddec_charge
 _atom_site_hle17_ddec_spin_density
 _atom_site_hle17_ddec_sum_bond_order
 _atom_site_hle17_magmom
 _atom_site_hse06_10hf_ddec_charge
 _atom_site_hse06_10hf_ddec_spin_density
 _atom_site_hse06_10hf_ddec_sum_bond_order
 _atom_site_hse06_10hf_magmom
 _atom_site_hse06_ddec_charge
 _atom_site_hse06_ddec_spin_density
 _atom_site_hse06_ddec_sum_bond_order
 _atom_site_hse06_magmom
 _atom_site_pbe_cm5_charge
 _atom_site_pbe_ddec_charge
 _atom_site_pbe_ddec_spin_density
 _atom_site_pbe_ddec_sum_bond_order
 _atom_site_pbe_magmom
Ni  Ni0  1  0.60896544  0.16199865  0.58697533  1  0.996789  -1.779383  1.819334  -1.558  1.003513  -1.838761  2.198893  -1.673  1.078935  -1.883585  2.139312  -1.747  0.623395  0.93755  -1.797847  2.254957  -1.607
Ni  Ni1  1  0.39086537  0.83775430  0.41335425  1  0.995221  -1.778418  1.82176  -1.557  1.002409  -1.838259  2.20086  -1.672  1.077953  -1.883174  2.141175  -1.746  0.623406  0.9364  -1.797268  2.256988  -1.607
H  H2  1  0.62404553  0.08413412  0.38293246  1  0.431778  1.5e-05  0.838971  0.0  0.40561  -0.000364  0.910424  -0.001  0.415611  -0.000193  0.898238  0.0  0.305473  0.398227  -0.000538  0.918403  -0.001
H  H3  1  0.37558124  0.91623358  0.61683052  1  0.431835  7e-06  0.838633  0.0  0.405752  -0.000374  0.909768  -0.001  0.415748  -0.0002  0.897861  0.0  0.305835  0.398381  -0.000548  0.917688  -0.001
H  H4  1  0.83984850  0.09771960  0.38040101  1  0.433745  -3e-06  0.858768  0.0  0.406278  -0.000371  0.918789  -0.001  0.41704  -0.000218  0.903197  0.0  0.300522  0.398331  -0.000513  0.930255  -0.001
H  H5  1  0.15987679  0.90197298  0.61923936  1  0.43368  3e-06  0.859633  0.0  0.406099  -0.000365  0.919467  -0.001  0.416907  -0.000213  0.903819  0.0  0.300545  0.398099  -0.000506  0.930997  -0.001
H  H6  1  0.65779243  0.38950466  0.49018820  1  0.431541  -0.000227  0.865921  -0.001  0.40585  -0.000549  0.920783  -0.001  0.417183  -0.000379  0.904436  -0.001  0.295779  0.397509  -0.000704  0.932731  -0.002
H  H7  1  0.34211713  0.61051083  0.51091001  1  0.432528  -0.00021  0.864332  -0.001  0.406454  -0.000538  0.920086  -0.001  0.417803  -0.000369  0.903683  -0.001  0.29537  0.398097  -0.000693  0.932078  -0.002
H  H8  1  0.44394570  0.40118652  0.57293235  1  0.416848  -0.000168  0.891575  -0.001  0.387025  -0.000513  0.954277  -0.001  0.399636  -0.000347  0.93605  -0.001  0.286997  0.377803  -0.000655  0.96751  -0.001
H  H9  1  0.55583114  0.59854616  0.42831159  1  0.416662  -0.000169  0.891672  -0.001  0.387233  -0.000513  0.953713  -0.001  0.399789  -0.000347  0.935572  -0.001  0.28693  0.378031  -0.000656  0.966917  -0.001
H  H10  1  0.92953851  0.23902528  0.60704733  1  0.427434  0.000569  0.874578  0.001  0.399527  -4e-05  0.934334  0.0  0.410846  8.3e-05  0.91811  0.0  0.294678  0.391337  -0.000161  0.945967  0.0
H  H11  1  0.07085733  0.76113200  0.39294154  1  0.427561  0.000606  0.874484  0.001  0.399635  -1.2e-05  0.934299  0.0  0.410926  0.000108  0.918113  0.0  0.29484  0.39147  -0.000132  0.945899  0.0
H  H12  1  0.33250985  0.11150393  0.50878472  1  0.414678  0.000451  0.885036  0.001  0.389246  -0.000132  0.948442  0.0  0.399758  2.8e-05  0.933389  0.0  0.296365  0.38147  -0.000293  0.959468  0.0
H  H13  1  0.66711034  0.88840250  0.49126447  1  0.414166  0.000473  0.885894  0.001  0.388876  -0.000117  0.949074  0.0  0.399369  4.2e-05  0.934039  0.0  0.296247  0.381132  -0.000277  0.960072  0.0
H  H14  1  0.23881120  0.22347720  0.59507257  1  0.413764  0.000338  0.891283  0.001  0.384443  -0.00014  0.957545  0.0  0.396625  -3e-06  0.939929  0.0  0.290162  0.375544  -0.00028  0.970329  0.0
H  H15  1  0.76094677  0.77631512  0.40518443  1  0.413717  0.000352  0.891275  0.001  0.384472  -0.000132  0.957668  0.0  0.396659  5e-06  0.940052  0.0  0.290179  0.375561  -0.000272  0.970458  0.0
H  H16  1  0.18411703  0.70892469  0.78689315  1  0.099736  8e-06  0.947976  0.0  0.110587  -8e-06  1.00905  0.0  0.113326  -4e-06  1.007847  0.0  0.1031  0.108588  -1.3e-05  1.010048  0.0
H  H17  1  0.81610029  0.29122455  0.21215051  1  0.098886  3e-06  0.94859  0.0  0.110569  -8e-06  1.008649  0.0  0.113313  -4e-06  1.007445  0.0  0.103111  0.108574  -1.3e-05  1.009601  0.0
H  H18  1  0.42129923  0.56381044  0.80478956  1  0.089092  3e-06  0.973839  0.0  0.095621  1.8e-05  1.043748  0.0  0.098526  1.6e-05  1.043321  0.0  0.095962  0.093671  2e-05  1.04399  0.0
H  H19  1  0.57851504  0.43636716  0.19434753  1  0.088351  0.0  0.975202  0.0  0.095036  1.8e-05  1.045069  0.0  0.098003  1.6e-05  1.04462  0.0  0.095675  0.093056  2e-05  1.045327  0.0
H  H20  1  0.96038084  0.35292297  0.86291117  1  0.113922  -3e-05  0.950683  0.0  0.123012  -2.1e-05  1.012034  0.0  0.125802  -2.1e-05  1.011207  0.0  0.11304  0.120901  -2e-05  1.012829  0.0
H  H21  1  0.03911042  0.64751143  0.13719270  1  0.114313  -3.2e-05  0.950139  0.0  0.123348  -2.1e-05  1.011477  0.0  0.126153  -2e-05  1.010644  0.0  0.113137  0.121199  -1.9e-05  1.012348  0.0
H  H22  1  0.57336530  0.93830591  0.86234061  1  0.084261  4.2e-05  0.971047  0.0  0.094984  2.3e-05  1.037469  0.0  0.097301  2e-05  1.036421  0.0  0.098041  0.093306  2.7e-05  1.038218  0.0
H  H23  1  0.42682149  0.06159430  0.13702434  1  0.084334  4.2e-05  0.970868  0.0  0.094693  2.3e-05  1.0377  0.0  0.096972  1.9e-05  1.03681  0.0  0.097784  0.093025  2.7e-05  1.038421  0.0
H  H24  1  0.91172950  0.83683987  0.90938791  1  0.085115  2.8e-05  0.967395  0.0  0.095554  2.2e-05  1.031989  0.0  0.098454  1.6e-05  1.030492  0.0  0.09558  0.093501  2.7e-05  1.033103  0.0
H  H25  1  0.08848365  0.16315478  0.08987459  1  0.085002  2.6e-05  0.96758  0.0  0.095647  2.2e-05  1.031937  0.0  0.098491  1.7e-05  1.030506  0.0  0.095662  0.093613  2.7e-05  1.033052  0.0
H  H26  1  0.30886531  0.49079384  0.04738154  1  0.097957  -2.5e-05  0.970169  0.0  0.105945  -2.9e-05  1.038366  0.0  0.108456  -2.3e-05  1.037728  0.0  0.104207  0.104089  -3.8e-05  1.038998  0.0
H  H27  1  0.69074821  0.50972301  0.95268622  1  0.098219  -2.3e-05  0.969538  0.0  0.10624  -2.9e-05  1.037744  0.0  0.108764  -2.3e-05  1.037087  0.0  0.104277  0.104368  -3.8e-05  1.038389  0.0
H  H28  1  0.30316185  0.06676743  0.98428957  1  0.076104  4e-06  0.998696  0.0  0.08471  3e-06  1.068824  0.0  0.087191  1e-06  1.068115  0.0  0.0927  0.082991  4e-06  1.069325  0.0
H  H29  1  0.69713252  0.93277325  0.01542125  1  0.07699  9e-06  0.998401  0.0  0.085753  3e-06  1.0683  0.0  0.088247  1e-06  1.067598  0.0  0.093044  0.084031  5e-06  1.068765  0.0
H  H30  1  0.49257260  0.29962679  0.00443499  1  0.115389  -0.000394  0.977388  -0.001  0.12375  -0.000342  1.040431  0.0  0.12578  -0.000249  1.040799  0.0  0.121366  0.122236  -0.000439  1.040347  0.0
H  H31  1  0.50715455  0.70142113  0.99588465  1  0.115063  -0.000395  0.977479  -0.001  0.123485  -0.000344  1.040454  0.0  0.125508  -0.00025  1.040816  0.0  0.12093  0.121981  -0.000441  1.040367  0.0
H  H32  1  0.23381140  0.29881581  0.74341256  1  0.099856  0.00012  1.002038  -0.001  0.10504  8.2e-05  1.067336  0.0  0.108147  8.8e-05  1.063673  0.0  0.137916  0.102647  8e-05  1.070189  0.0
H  H33  1  0.76551577  0.70051837  0.25727034  1  0.09991  0.000121  1.000862  -0.001  0.105149  8.3e-05  1.066061  0.0  0.108235  8.9e-05  1.062413  0.0  0.138009  0.102757  8.2e-05  1.068908  0.0
H  H34  1  0.04697188  0.71260791  0.61041475  1  0.114066  0.000192  0.961068  0.0  0.124624  0.000124  1.023586  0.0  0.127871  0.00011  1.020949  0.0  0.112796  0.122192  0.00013  1.025559  0.0
H  H35  1  0.95366875  0.28710636  0.38960077  1  0.114062  0.000179  0.961204  0.0  0.124343  0.000121  1.024006  0.0  0.127699  0.000108  1.021258  0.0  0.11251  0.121842  0.000127  1.026084  0.0
H  H36  1  0.70737657  0.41013383  0.72359498  1  0.09314  0.00019  0.986578  0.0  0.09826  0.000123  1.058412  0.0  0.101331  0.000115  1.056109  0.0  0.100096  0.096048  0.000125  1.060075  0.0
H  H37  1  0.29266995  0.58987378  0.27648114  1  0.092877  0.00019  0.986459  0.0  0.097711  0.000123  1.058712  0.0  0.100858  0.000114  1.056323  0.0  0.099939  0.095521  0.000126  1.060342  0.0
H  H38  1  0.73554412  0.15381701  0.83033633  1  0.113657  4e-06  0.937063  0.0  0.123801  -0.00013  0.992111  0.0  0.126312  -7.5e-05  0.990967  0.0  0.124871  0.121887  -0.000189  0.993202  -0.001
H  H39  1  0.26412194  0.84656743  0.17059955  1  0.114419  -1e-06  0.936669  0.0  0.12412  -0.000131  0.992222  0.0  0.126659  -7.6e-05  0.991036  0.0  0.124925  0.122192  -0.00019  0.993318  -0.001
H  H40  1  0.92193828  0.08825085  0.61711853  1  0.41163  0.000917  0.898777  0.002  0.379933  0.000166  0.965291  0.0  0.392518  0.000315  0.947125  0.0  0.287861  0.370938  -6e-06  0.978168  0.0
H  H41  1  0.07887521  0.91180878  0.38232431  1  0.412091  0.000922  0.898007  0.002  0.380398  0.000168  0.964838  0.0  0.392963  0.000316  0.946685  0.0  0.28769  0.371412  -3e-06  0.97772  0.0
C  C42  1  0.08226693  0.96161489  0.96114769  1  0.044789  1.2e-05  3.780339  0.0  0.061368  5.4e-05  4.0071  0.0  0.061716  5.5e-05  4.030821  0.0  -0.011147  0.061192  4.8e-05  3.990839  0.0
C  C43  1  0.91804885  0.03804802  0.03840513  1  0.046866  1.9e-05  3.777841  0.0  0.062791  5.2e-05  4.00529  0.0  0.063143  5.3e-05  4.028982  0.0  -0.010754  0.062609  4.6e-05  3.989045  0.0
C  C44  1  0.89828298  0.55090803  0.66570468  1  -0.083667  0.000785  3.771952  0.0  -0.061404  0.000405  4.015199  0.0  -0.071481  0.000497  4.038618  0.0  -0.025533  -0.055044  0.000313  3.999485  0.0
C  C45  1  0.10187793  0.44906795  0.33442589  1  -0.083289  0.000745  3.771797  0.0  -0.06074  0.0004  4.014538  0.0  -0.070812  0.000491  4.038026  0.0  -0.025332  -0.054393  0.000306  3.998797  0.0
C  C46  1  0.21111329  0.78553799  0.83254672  1  -0.095735  -0.00037  3.739556  0.0  -0.115045  -0.00019  3.986214  0.0  -0.116025  -0.00012  4.005722  0.0  -0.088534  -0.114337  -0.000269  3.973154  0.0
C  C47  1  0.78906634  0.21443197  0.16671412  1  -0.095046  -0.000344  3.740112  0.0  -0.114584  -0.000189  3.987051  0.0  -0.115588  -0.000123  4.006519  0.0  -0.088204  -0.113846  -0.00027  3.973986  0.0
C  C48  1  0.55817141  0.59655728  0.76017090  1  -0.118114  0.001101  3.723883  0.001  -0.134247  0.00031  3.977477  0.0  -0.139279  0.000432  3.996315  0.0  -0.092955  -0.130984  0.000201  3.964708  0.0
C  C49  1  0.44181556  0.40353179  0.23916431  1  -0.118243  0.001079  3.725104  0.001  -0.134385  0.000312  3.978442  0.0  -0.139499  0.000429  3.997283  0.0  -0.093059  -0.131077  0.000201  3.965706  0.0
C  C50  1  0.40155818  0.81126446  0.81653377  1  0.033721  -0.000439  3.802607  0.0  0.053275  -0.000307  4.029283  0.0  0.052204  -0.000209  4.051948  0.0  -0.012834  0.053747  -0.000427  4.014203  0.0
C  C51  1  0.59862058  0.18873916  0.18270474  1  0.033034  -0.000453  3.803629  0.0  0.0513  -0.000307  4.031962  0.0  0.050324  -0.000207  4.054496  0.0  -0.014159  0.051749  -0.000426  4.016931  0.0
C  C52  1  0.74672957  0.76757168  0.69208260  1  -0.114397  -0.002861  3.701413  -0.004  -0.093559  -0.001512  3.938861  -0.002  -0.103063  -0.000815  3.959949  -0.001  -0.018031  -0.087737  -0.002301  3.925326  -0.003
C  C53  1  0.25361685  0.23242265  0.30726591  1  -0.11354  -0.002884  3.701263  -0.004  -0.092781  -0.001515  3.938331  -0.002  -0.102254  -0.000819  3.959414  -0.001  -0.017149  -0.086901  -0.002309  3.924693  -0.003
C  C54  1  0.97945776  0.41756891  0.92232210  1  -0.124111  0.000299  3.728504  0.0  -0.145161  0.000173  3.98034  0.0  -0.148702  0.000114  4.002237  0.0  -0.082664  -0.142836  0.000279  3.965862  0.0
C  C55  1  0.02025278  0.58278987  0.07772305  1  -0.12458  0.000314  3.729494  0.0  -0.145555  0.000174  3.981211  0.0  -0.149078  0.000116  4.003062  0.0  -0.082719  -0.143255  0.000284  3.96676  0.0
C  C56  1  0.56861978  0.72633646  0.75219277  1  0.062619  -0.001303  3.739841  -0.001  0.065154  -0.000802  3.970117  -0.001  0.069444  -0.000605  3.991919  -0.001  0.002384  0.06244  -0.001067  3.955533  -0.001
C  C57  1  0.43154413  0.27373879  0.24695314  1  0.061878  -0.001277  3.740984  -0.001  0.064754  -0.000795  3.97154  -0.001  0.069014  -0.000597  3.993309  -0.001  0.002233  0.061995  -0.001057  3.956997  -0.001
C  C58  1  0.42800483  0.91542406  0.87213650  1  -0.103741  0.000191  3.763103  0.0  -0.126475  3.4e-05  4.013712  0.0  -0.128287  4.7e-05  4.035493  0.0  -0.094286  -0.125065  1.6e-05  3.998901  0.0
C  C59  1  0.57222932  0.08439600  0.12726688  1  -0.101861  0.000211  3.761586  0.0  -0.123704  3.8e-05  4.012011  0.0  -0.125572  4.8e-05  4.033777  0.0  -0.092383  -0.122281  1.8e-05  3.99718  0.0
C  C60  1  0.05608926  0.85934403  0.90228545  1  -0.095961  -9.3e-05  3.739769  0.0  -0.11807  -0.000135  3.991798  0.0  -0.120303  -9.8e-05  4.011908  0.0  -0.092255  -0.11648  -0.000191  3.978068  0.0
C  C61  1  0.94415039  0.14046955  0.09712596  1  -0.096212  -9.5e-05  3.738886  0.0  -0.118354  -0.00013  3.991376  0.0  -0.120532  -9.4e-05  4.011496  0.0  -0.092501  -0.116808  -0.000184  3.97762  0.0
C  C62  1  0.15435903  0.41117908  0.94845178  1  0.172766  -0.000335  3.780427  -0.001  0.164648  -0.000226  4.026097  0.0  0.169752  -0.000194  4.048087  0.0  0.096772  0.161025  -0.000182  4.011511  0.0
C  C63  1  0.84536282  0.58911693  0.05160226  1  0.173514  -0.000333  3.780453  -0.001  0.165509  -0.000228  4.025941  0.0  0.170594  -0.000198  4.047944  0.0  0.098013  0.161918  -0.000187  4.011315  0.0
C  C64  1  0.17364882  0.49393032  0.02650962  1  -0.128992  -8e-06  3.748888  0.0  -0.148442  -1.5e-05  4.000242  0.0  -0.151348  -1e-05  4.021319  0.0  -0.086447  -0.146521  -2.3e-05  3.986236  0.0
C  C65  1  0.82607074  0.50644328  0.97348920  1  -0.128821  -1.6e-05  3.747287  0.0  -0.148348  -1.5e-05  3.998744  0.0  -0.15125  -8e-06  4.0198  0.0  -0.086244  -0.146424  -2.1e-05  3.984748  0.0
C  C66  1  0.27286343  0.98821773  0.94263634  1  -0.107385  -0.000252  3.756384  0.0  -0.127633  -0.000116  4.005699  0.0  -0.130924  -6.9e-05  4.028221  0.0  -0.096822  -0.125282  -0.000188  3.990256  0.0
C  C67  1  0.72740464  0.01143931  0.05693952  1  -0.110415  -0.000267  3.755388  0.0  -0.13081  -0.000113  4.004916  0.0  -0.134142  -6.6e-05  4.027465  0.0  -0.098152  -0.128416  -0.000184  3.989467  0.0
C  C68  1  0.47760664  0.27963944  0.92408014  1  -0.073763  -0.003502  3.657932  -0.004  -0.111256  -0.001588  3.914611  -0.002  -0.110126  -0.001389  3.932599  -0.002  -0.000861  -0.112093  -0.001902  3.902967  -0.002
C  C69  1  0.52199952  0.72074649  0.07640034  1  -0.074042  -0.003521  3.659055  -0.004  -0.111495  -0.001589  3.915767  -0.002  -0.110338  -0.001392  3.933709  -0.002  -0.000519  -0.11236  -0.001901  3.904171  -0.002
C  C70  1  0.76740146  0.90283770  0.66242475  1  0.674492  0.004168  3.848076  0.003  0.61954  0.000737  4.155683  0.001  0.655911  0.000797  4.146031  0.0  0.224021  0.594098  0.000753  4.161405  0.001
C  C71  1  0.23313092  0.09714991  0.33712180  1  0.674669  0.004146  3.849142  0.003  0.620391  0.000728  4.155743  0.001  0.656741  0.000794  4.146098  0.0  0.224307  0.594983  0.000736  4.161395  0.001
C  C72  1  0.33815485  0.27658851  0.78959645  1  0.18738  0.01305  3.595397  0.007  0.133455  0.004673  3.861106  0.002  0.149122  0.005029  3.87155  0.003  0.150865  0.122612  0.004947  3.853638  0.002
C  C73  1  0.66139502  0.72294300  0.21097318  1  0.186185  0.013201  3.594445  0.007  0.132705  0.00474  3.859855  0.002  0.148408  0.005086  3.870258  0.003  0.150446  0.121852  0.005029  3.852414  0.002
C  C74  1  0.90965812  0.67978083  0.65303726  1  -0.057837  -0.001251  3.691726  -0.001  -0.095353  -0.000848  3.939704  -0.001  -0.09154  -0.000616  3.957999  -0.001  -0.075561  -0.097605  -0.001174  3.927603  -0.001
C  C75  1  0.09072285  0.32014045  0.34676516  1  -0.057979  -0.001224  3.691977  -0.001  -0.095446  -0.000856  3.940006  -0.001  -0.091751  -0.000619  3.958278  -0.001  -0.075699  -0.097677  -0.001184  3.927928  -0.001
C  C76  1  0.07657850  0.45845439  0.63262869  1  0.658293  -0.000114  3.895963  0.0  0.597487  -0.000258  4.204575  0.0  0.630739  -0.000144  4.198479  0.0  0.213435  0.575166  -0.000389  4.20773  -0.001
C  C77  1  0.92353410  0.54143960  0.36829767  1  0.657575  -0.000126  3.896499  0.0  0.596992  -0.000256  4.204858  0.0  0.630206  -0.000142  4.198779  0.0  0.212931  0.57469  -0.000387  4.207998  -0.001
C  C78  1  0.71873582  0.50997878  0.71627923  1  -0.040674  -0.001104  3.741755  -0.001  -0.068835  -0.00067  3.994669  -0.001  -0.064456  -0.000496  4.011411  0.0  -0.083724  -0.071514  -0.000933  3.983386  -0.001
C  C79  1  0.28130204  0.49001384  0.28350165  1  -0.040863  -0.001091  3.742007  -0.001  -0.069047  -0.000669  3.995227  -0.001  -0.064762  -0.000493  4.012008  0.0  -0.084044  -0.071696  -0.000932  3.983875  -0.001
C  C80  1  0.59575956  0.20684913  0.83744281  1  0.015382  0.002437  3.721969  0.001  -0.013217  0.000259  3.996685  -0.001  -0.009504  0.000808  4.014294  0.0  0.008949  -0.016111  -0.000111  3.984559  -0.001
C  C81  1  0.40391392  0.79335973  0.16317345  1  0.014579  0.002514  3.720696  0.001  -0.013644  0.000287  3.995267  -0.001  -0.009924  0.000835  4.012852  0.0  0.008978  -0.016538  -8e-05  3.983168  -0.001
N  N82  1  0.31350628  0.32392639  0.89252841  1  -0.095669  -0.000647  3.597021  -0.002  -0.006435  -0.000528  3.807879  -0.001  -0.021233  -0.000351  3.832245  -0.001  -0.226662  0.003244  -0.000686  3.791767  -0.002
N  N83  1  0.68606389  0.67607477  0.10788087  1  -0.095347  -0.000653  3.596662  -0.002  -0.006242  -0.000525  3.807124  -0.001  -0.02103  -0.00035  3.831471  -0.001  -0.227268  0.003415  -0.000681  3.791032  -0.002
N  N84  1  0.50733252  0.20670856  0.75405525  1  -0.349185  -0.046629  3.27124  -0.077  -0.318151  -0.030018  3.582558  -0.05  -0.344765  -0.023124  3.599817  -0.041  -0.345292  -0.297595  -0.035895  3.569738  -0.057
N  N85  1  0.49240567  0.79299567  0.24656756  1  -0.347916  -0.046606  3.273187  -0.077  -0.317079  -0.029963  3.58415  -0.05  -0.34372  -0.023111  3.601412  -0.041  -0.34547  -0.296522  -0.035793  3.571361  -0.057
O  O86  1  0.05767719  0.34124204  0.64325813  1  -0.664674  -0.000595  2.040966  -0.001  -0.594199  -0.00044  2.261251  -0.001  -0.620478  -0.000236  2.250548  0.0  -0.319204  -0.575981  -0.000702  2.268376  -0.001
O  O87  1  0.94238924  0.65862879  0.35731202  1  -0.664724  -0.000591  2.041935  -0.001  -0.594379  -0.000437  2.262247  -0.001  -0.620575  -0.000235  2.251512  0.0  -0.319117  -0.576174  -0.000698  2.269356  -0.001
O  O88  1  0.90715095  0.95091307  0.67819523  1  -0.615919  0.001398  1.991161  0.0  -0.554661  0.000574  2.207011  0.0  -0.58009  0.000867  2.196313  0.0  -0.300296  -0.536847  0.000233  2.214153  -0.001
O  O89  1  0.09371066  0.04889002  0.32115377  1  -0.616648  0.001391  1.990056  0.0  -0.555796  0.00057  2.205809  0.0  -0.581172  0.000863  2.195048  0.0  -0.301373  -0.537989  0.000224  2.212979  -0.001
O  O90  1  0.64136308  0.96105032  0.61867579  1  -0.652732  -0.037401  2.080412  -0.067  -0.607678  -0.023721  2.335688  -0.043  -0.642831  -0.017303  2.325547  -0.033  -0.301929  -0.579739  -0.030089  2.341388  -0.051
O  O91  1  0.35888183  0.03910762  0.38115387  1  -0.652287  -0.037377  2.078807  -0.067  -0.607226  -0.023727  2.333237  -0.043  -0.642509  -0.017291  2.32336  -0.033  -0.301231  -0.579286  -0.03013  2.338877  -0.051
O  O92  1  0.23986313  0.49911372  0.60256089  1  -0.62953  -0.001705  2.013375  -0.003  -0.565439  -0.001015  2.233561  -0.001  -0.590879  -0.000598  2.223222  -0.001  -0.306806  -0.547819  -0.001544  2.24049  -0.002
O  O93  1  0.76029615  0.50079610  0.39921864  1  -0.628087  -0.001693  2.013781  -0.003  -0.564492  -0.001014  2.2336  -0.001  -0.589883  -0.000598  2.223293  -0.001  -0.306277  -0.546875  -0.001542  2.240494  -0.002
O  O94  1  0.70319375  0.13224944  0.41310012  1  -0.812084  -0.029576  1.940882  -0.052  -0.780671  -0.022095  2.156603  -0.038  -0.806636  -0.016798  2.126053  -0.031  -0.571898  -0.759511  -0.026905  2.177684  -0.044
O  O95  1  0.29681119  0.86778604  0.58666890  1  -0.812059  -0.0297  1.945068  -0.052  -0.780606  -0.022148  2.161654  -0.038  -0.806644  -0.016863  2.131242  -0.031  -0.57232  -0.75938  -0.026933  2.182844  -0.044
O  O96  1  0.57608068  0.35290600  0.55793909  1  -0.832566  -0.037396  1.964201  -0.066  -0.802143  -0.026519  2.172225  -0.047  -0.832302  -0.019803  2.138422  -0.037  -0.584966  -0.777464  -0.032522  2.19623  -0.054
O  O97  1  0.42371222  0.64671662  0.44293971  1  -0.833091  -0.037411  1.961902  -0.066  -0.803066  -0.026547  2.169222  -0.047  -0.833219  -0.019814  2.135551  -0.037  -0.584416  -0.778407  -0.03258  2.193264  -0.054
O  O98  1  0.89570655  0.16554595  0.57403767  1  -0.804807  -0.045231  1.948299  -0.077  -0.776854  -0.030042  2.159436  -0.051  -0.807152  -0.022321  2.125701  -0.041  -0.578799  -0.75234  -0.036942  2.182908  -0.06
O  O99  1  0.10404598  0.83478305  0.42599603  1  -0.805169  -0.045325  1.947347  -0.078  -0.777452  -0.030121  2.158756  -0.052  -0.807815  -0.022382  2.125284  -0.041  -0.578802  -0.752947  -0.037029  2.182149  -0.06
O  O100  1  0.32916435  0.14343890  0.58215800  1  -0.808527  -0.035672  1.949052  -0.062  -0.777132  -0.025515  2.156207  -0.044  -0.803889  -0.019192  2.121198  -0.035  -0.579747  -0.755198  -0.031274  2.181321  -0.051
O  O101  1  0.67082669  0.85644670  0.41784397  1  -0.807843  -0.035922  1.949467  -0.062  -0.776811  -0.025688  2.156399  -0.044  -0.803623  -0.019321  2.121496  -0.035  -0.579843  -0.754887  -0.031485  2.181495  -0.051
