# generated using pymatgen
data_AlH12(C5O3)6
_symmetry_space_group_name_H-M   'P 1'
_cell_length_a   4.08971401
_cell_length_b   29.33480834
_cell_length_c   29.33489291
_cell_angle_alpha   119.99894201
_cell_angle_beta   90.00076104
_cell_angle_gamma   90.00037872
_symmetry_Int_Tables_number   1
_chemical_formula_structural   AlH12(C5O3)6
_chemical_formula_sum   'Al2 H24 C60 O36'
_cell_volume   3047.86665961
_cell_formula_units_Z   2
loop_
 _symmetry_equiv_pos_site_id
 _symmetry_equiv_pos_as_xyz
  1  'x, y, z'
loop_
 _atom_site_type_symbol
 _atom_site_label
 _atom_site_symmetry_multiplicity
 _atom_site_fract_x
 _atom_site_fract_y
 _atom_site_fract_z
 _atom_site_occupancy
 _atom_site_pbe_bader_charge
 _atom_site_pbe_bader_spin_density
 _atom_site_pbe_cm5_charge
 _atom_site_pbe_ddec_charge
 _atom_site_pbe_ddec_spin_density
 _atom_site_pbe_ddec_sum_bond_order
 _atom_site_pbe_magmom
Al  Al0  1  0.00000608  0.50000147  0.49999854  1  2.511246  0  0.44383  1.615859  0  2.490851  0
Al  Al1  1  0.99951170  0.16666179  0.83333909  1  2.510379  0  0.445636  1.616134  0  2.487247  0
H  H2  1  0.52679326  0.21582962  0.63671904  1  0.091165  0  0.127856  0.14388  0  0.956314  0
H  H3  1  0.47294909  0.36330151  0.78418158  1  0.090657  0  0.127834  0.142475  0  0.957819  0
H  H4  1  0.47261137  0.30344892  0.54915463  1  0.11806  0  0.127618  0.140177  0  0.960495  0
H  H5  1  0.52721977  0.45083814  0.69655697  1  0.117995  0  0.127704  0.140353  0  0.960307  0
H  H6  1  0.52685112  0.92087798  0.78417365  1  0.137259  0  0.127836  0.143912  0  0.95629  0
H  H7  1  0.47297242  0.92087777  0.63670140  1  0.135044  0  0.127797  0.142417  0  0.957781  0
H  H8  1  0.47258966  0.74570619  0.69655124  1  0.119353  0  0.127624  0.14019  0  0.960603  0
H  H9  1  0.52724912  0.74571495  0.54915963  1  0.119838  0  0.127685  0.140322  0  0.960358  0
H  H10  1  0.52678020  0.36328210  0.07911115  1  0.135317  0  0.127871  0.143901  0  0.956134  0
H  H11  1  0.47294411  0.21582183  0.07913695  1  0.136916  0  0.127833  0.14252  0  0.957673  0
H  H12  1  0.47260583  0.45085172  0.25429537  1  0.119839  0  0.12769  0.140325  0  0.960474  0
H  H13  1  0.52723208  0.30345104  0.25428712  1  0.119473  0  0.127641  0.140248  0  0.960321  0
H  H14  1  0.92665469  0.15254502  0.71440474  1  0.617279  0  0.320652  0.347815  0  0.929458  0
H  H15  1  0.07268509  0.28565136  0.84748026  1  0.613437  0  0.320708  0.347703  0  0.929749  0
H  H16  1  0.07288544  0.38095190  0.48579907  1  0.60207  0  0.320811  0.347808  0  0.928923  0
H  H17  1  0.92703773  0.51417760  0.61903817  1  0.602546  0  0.320897  0.347887  0  0.928954  0
H  H18  1  0.92660748  0.06184073  0.84746824  1  0.625292  0  0.320656  0.34765  0  0.929626  0
H  H19  1  0.07269797  0.06182376  0.71434881  1  0.613351  0  0.320671  0.347716  0  0.929735  0
H  H20  1  0.07284323  0.60484521  0.61904071  1  0.616778  0  0.320783  0.347785  0  0.928731  0
H  H21  1  0.92706538  0.60486090  0.48582181  1  0.61668  0  0.320884  0.347801  0  0.928916  0
H  H22  1  0.92661705  0.28560763  0.93815338  1  0.607892  0  0.320603  0.347524  0  0.929756  0
H  H23  1  0.07259087  0.15251251  0.93817816  1  0.628789  0  0.320705  0.347695  0  0.929627  0
H  H24  1  0.07286230  0.51420389  0.39515644  1  0.616316  0  0.320775  0.347774  0  0.928855  0
H  H25  1  0.92705580  0.38097065  0.39514480  1  0.616274  0  0.320849  0.347744  0  0.928979  0
C  C26  1  0.49996526  0.45873897  0.41746503  1  1.542732  0  0.272262  0.64645  0  4.081564  0
C  C27  1  0.49998333  0.45872812  0.54126555  1  1.576496  0  0.272345  0.646632  0  4.081251  0
C  C28  1  0.49998626  0.58253995  0.54126932  1  1.542923  0  0.272487  0.646912  0  4.081256  0
C  C29  1  0.49954912  0.20798852  0.79203847  1  1.524727  0  0.272086  0.646847  0  4.082032  0
C  C30  1  0.49955597  0.08404041  0.79201689  1  1.522288  0  0.27205  0.647033  0  4.082491  0
C  C31  1  0.49954030  0.20795752  0.91595936  1  1.520678  0  0.271971  0.646635  0  4.082356  0
C  C32  1  0.49973914  0.23764537  0.76237020  1  0.085897  0  -0.01769  -0.118024  0  3.957452  0
C  C33  1  0.52223134  0.21068001  0.70688765  1  -0.090717  0  -0.01364  -0.072258  0  4.022698  0
C  C34  1  0.51581705  0.23820251  0.67955824  1  0.013134  0  -0.057947  -0.115937  0  3.869889  0
C  C35  1  0.49989920  0.29350537  0.70650985  1  0.224966  0  0.011557  0.149192  0  4.108688  0
C  C36  1  0.48392578  0.32045909  0.76181111  1  0.011957  0  -0.057891  -0.114251  0  3.869109  0
C  C37  1  0.47740520  0.29312669  0.78933218  1  -0.090726  0  -0.013674  -0.072574  0  4.022424  0
C  C38  1  0.50001102  0.32134594  0.67866875  1  -0.346288  0  -0.029242  -0.086488  0  4.079185  0
C  C39  1  0.49988820  0.34533563  0.65466829  1  0.035883  0  -0.027502  -0.086496  0  4.076111  0
C  C40  1  0.49993156  0.37317268  0.62682800  1  0.27719  0  0.011644  0.153284  0  4.102858  0
C  C41  1  0.48376581  0.34626163  0.57155010  1  -0.122778  0  -0.058288  -0.113632  0  3.868559  0
C  C42  1  0.47735884  0.37358034  0.54401337  1  0.051867  0  -0.014086  -0.073894  0  4.022165  0
C  C43  1  0.49996203  0.42905361  0.57094330  1  -0.075619  0  -0.017067  -0.116042  0  3.953663  0
C  C44  1  0.52251209  0.45598174  0.62642093  1  0.051877  0  -0.014075  -0.073992  0  4.022211  0
C  C45  1  0.51609663  0.42844817  0.65374161  1  -0.122907  0  -0.05839  -0.113845  0  3.868799  0
C  C46  1  0.49972433  0.02471859  0.76235988  1  -0.065653  0  -0.017543  -0.118076  0  3.958189  0
C  C47  1  0.52223913  0.99620419  0.78932468  1  0.054729  0  -0.013845  -0.072471  0  4.022799  0
C  C48  1  0.51584978  0.94134785  0.76179969  1  -0.05317  0  -0.057764  -0.115701  0  3.869731  0
C  C49  1  0.49992118  0.91300699  0.70650079  1  0.050352  0  0.011428  0.148806  0  4.10914  0
C  C50  1  0.48396836  0.94135390  0.67954548  1  0.066232  0  -0.057718  -0.114024  0  3.869091  0
C  C51  1  0.47745949  0.99621200  0.70688052  1  -0.025432  0  -0.013746  -0.072548  0  4.022566  0
C  C52  1  0.49994789  0.85732289  0.67865819  1  -0.139507  0  -0.029274  -0.086367  0  4.078705  0
C  C53  1  0.49990405  0.80933211  0.65466196  1  -0.174608  0  -0.027475  -0.086465  0  4.075787  0
C  C54  1  0.49995766  0.75365393  0.62682844  1  0.126288  0  0.011685  0.1532  0  4.102757  0
C  C55  1  0.48377131  0.72528728  0.65373998  1  -0.060405  0  -0.058326  -0.113609  0  3.86827  0
C  C56  1  0.47735752  0.67042788  0.62641781  1  -0.042865  0  -0.01406  -0.073976  0  4.021954  0
C  C57  1  0.49995727  0.64188831  0.57094343  1  0.03749  0  -0.017063  -0.11604  0  3.953923  0
C  C58  1  0.52254261  0.67043505  0.54401476  1  -0.09778  0  -0.01413  -0.074007  0  4.022298  0
C  C59  1  0.51611688  0.72529200  0.57155138  1  0.065187  0  -0.058305  -0.113684  0  3.868592  0
C  C60  1  0.49969295  0.23763088  0.97528239  1  -0.065575  0  -0.017395  -0.117866  0  3.957795  0
C  C61  1  0.52219032  0.29311244  0.00379611  1  -0.025025  0  -0.013816  -0.072336  0  4.022674  0
C  C62  1  0.51577012  0.32044124  0.05864937  1  0.06527  0  -0.057883  -0.115927  0  3.869608  0
C  C63  1  0.49987729  0.29348993  0.08699948  1  -0.011191  0  0.01157  0.149176  0  4.108656  0
C  C64  1  0.48388575  0.23818800  0.05865536  1  -0.053717  0  -0.057917  -0.114294  0  3.868596  0
C  C65  1  0.47733927  0.21066732  0.00380032  1  0.054854  0  -0.013924  -0.072843  0  4.022424  0
C  C66  1  0.49995393  0.32133544  0.14267846  1  -0.283489  0  -0.02931  -0.086577  0  4.078705  0
C  C67  1  0.49987118  0.34533289  0.19066993  1  0.032628  0  -0.027463  -0.085375  0  4.076804  0
C  C68  1  0.49996005  0.37317533  0.24634584  1  0.126694  0  0.011661  0.150148  0  4.107607  0
C  C69  1  0.48377819  0.42845555  0.27471431  1  0.064741  0  -0.058383  -0.1129  0  3.869078  0
C  C70  1  0.47733355  0.45598991  0.32957200  1  -0.09748  0  -0.014096  -0.073737  0  4.02158  0
C  C71  1  0.49993486  0.42905826  0.35811458  1  0.038004  0  -0.017082  -0.116088  0  3.953933  0
C  C72  1  0.52252302  0.37358195  0.32956656  1  -0.042646  0  -0.014078  -0.073884  0  4.021914  0
C  C73  1  0.51612814  0.34626548  0.27471184  1  -0.060806  0  -0.058255  -0.112637  0  3.869371  0
C  C74  1  0.54748444  0.15187422  0.67386352  1  1.551181  0  0.229208  0.556789  0  4.13341  0
C  C75  1  0.45211114  0.32616709  0.84813792  1  1.551536  0  0.229199  0.55719  0  4.133474  0
C  C76  1  0.45207723  0.34048567  0.48521949  1  1.534817  0  0.230469  0.557963  0  4.133183  0
C  C77  1  0.54783955  0.51477143  0.65951243  1  1.535377  0  0.230543  0.558391  0  4.132775  0
C  C78  1  0.54740891  0.02198341  0.84813068  1  1.592902  0  0.229113  0.556441  0  4.134101  0
C  C79  1  0.45210795  0.02197434  0.67383474  1  1.550925  0  0.229207  0.557305  0  4.133567  0
C  C80  1  0.45205597  0.64472647  0.65950734  1  1.572849  0  0.230412  0.557888  0  4.133515  0
C  C81  1  0.54785885  0.64474253  0.48522635  1  1.573017  0  0.23039  0.558134  0  4.132688  0
C  C82  1  0.54741978  0.32613542  0.97801023  1  1.551619  0  0.229123  0.55667  0  4.133678  0
C  C83  1  0.45205447  0.15185876  0.97803134  1  1.590576  0  0.229234  0.557383  0  4.133264  0
C  C84  1  0.45205321  0.51478797  0.35527279  1  1.57285  0  0.230503  0.557858  0  4.133032  0
C  C85  1  0.54786019  0.34049191  0.35526473  1  1.572226  0  0.230514  0.558182  0  4.132748  0
O  O86  1  0.73709557  0.55897056  0.54929352  1  -1.25884  0  -0.233137  -0.59765  0  2.409895  0
O  O87  1  0.73705949  0.49033379  0.44103102  1  -1.262958  0  -0.233045  -0.597375  0  2.409925  0
O  O88  1  0.73708380  0.45070399  0.50967059  1  -1.256714  0  -0.233058  -0.597557  0  2.409688  0
O  O89  1  0.26290162  0.55897185  0.50967666  1  -1.262771  0  -0.233203  -0.597765  0  2.410391  0
O  O90  1  0.26289942  0.49032168  0.54929121  1  -1.256663  0  -0.233118  -0.597544  0  2.410174  0
O  O91  1  0.26286403  0.45071023  0.44103128  1  -1.258661  0  -0.23303  -0.597529  0  2.410148  0
O  O92  1  0.73680442  0.17638979  0.89240919  1  -1.260496  0  -0.233331  -0.597139  0  2.407867  0
O  O93  1  0.73678988  0.21600583  0.82361021  1  -1.257038  0  -0.23325  -0.597221  0  2.4079  0
O  O94  1  0.73679767  0.10759319  0.78399631  1  -1.256936  0  -0.233353  -0.597413  0  2.408231  0
O  O95  1  0.26224894  0.21598105  0.89241608  1  -1.25708  0  -0.232988  -0.597505  0  2.407537  0
O  O96  1  0.26228226  0.10758758  0.82358689  1  -1.261659  0  -0.2331  -0.597733  0  2.407596  0
O  O97  1  0.26224778  0.17642133  0.78401580  1  -1.257101  0  -0.233204  -0.597727  0  2.407518  0
O  O98  1  0.76015236  0.12815953  0.69077187  1  -1.101682  0  -0.318913  -0.434104  0  2.360858  0
O  O99  1  0.38016714  0.12716264  0.63492853  1  -1.071798  0  -0.246815  -0.39395  0  2.061789  0
O  O100  1  0.23919478  0.30929622  0.87185648  1  -1.097984  0  -0.319224  -0.434361  0  2.360753  0
O  O101  1  0.61954303  0.36508734  0.87285205  1  -1.071719  0  -0.246687  -0.393976  0  2.061938  0
O  O102  1  0.23949930  0.35732421  0.46144208  1  -1.092322  0  -0.319269  -0.434407  0  2.359077  0
O  O103  1  0.61924821  0.30151910  0.46058942  1  -1.074244  0  -0.247605  -0.394301  0  2.0612  0
O  O104  1  0.76046054  0.53853983  0.64266814  1  -1.092159  0  -0.319398  -0.434755  0  2.35901  0
O  O105  1  0.38074227  0.53941108  0.69848638  1  -1.074877  0  -0.247625  -0.394404  0  2.061155  0
O  O106  1  0.76013002  0.06259465  0.87185482  1  -1.106977  0  -0.318736  -0.433652  0  2.361124  0
O  O107  1  0.38005329  0.00775695  0.87283335  1  -1.071872  0  -0.246852  -0.393845  0  2.062573  0
O  O108  1  0.23915839  0.06255640  0.69070168  1  -1.098441  0  -0.319134  -0.434357  0  2.360846  0
O  O109  1  0.61950379  0.00777380  0.63491555  1  -1.070218  0  -0.246742  -0.394072  0  2.062007  0
O  O110  1  0.23946234  0.60411345  0.64266677  1  -1.108977  0  -0.319251  -0.434319  0  2.358759  0
O  O111  1  0.61923121  0.65905880  0.69847498  1  -1.076164  0  -0.247599  -0.39431  0  2.061323  0
O  O112  1  0.76048777  0.60413165  0.46145941  1  -1.102417  0  -0.319401  -0.43463  0  2.35894  0
O  O113  1  0.38075098  0.65908062  0.46058837  1  -1.077816  0  -0.247449  -0.394228  0  2.060866  0
O  O114  1  0.76014872  0.30924206  0.93739883  1  -1.092231  0  -0.31874  -0.433692  0  2.361272  0
O  O115  1  0.38014317  0.36507253  0.99223595  1  -1.072105  0  -0.246787  -0.393886  0  2.062211  0
O  O116  1  0.23914958  0.12814079  0.93743925  1  -1.108955  0  -0.319243  -0.434452  0  2.360705  0
O  O117  1  0.61955771  0.12714360  0.99222575  1  -1.071354  0  -0.24664  -0.393971  0  2.061827  0
O  O118  1  0.23948581  0.53856415  0.39589069  1  -1.103311  0  -0.319299  -0.434338  0  2.358819  0
O  O119  1  0.61927019  0.53941553  0.34093579  1  -1.077349  0  -0.247598  -0.394264  0  2.06128  0
O  O120  1  0.76047884  0.35734042  0.39587786  1  -1.107446  0  -0.319297  -0.43447  0  2.359004  0
O  O121  1  0.38073688  0.30151951  0.34093157  1  -1.076487  0  -0.247643  -0.394356  0  2.060989  0
