# generated using pymatgen
data_AlP2H5(CO)6
_symmetry_space_group_name_H-M   'P 1'
_cell_length_a   8.82959964
_cell_length_b   9.90233886
_cell_length_c   9.93053576
_cell_angle_alpha   105.38519592
_cell_angle_beta   89.99996404
_cell_angle_gamma   90.00006673
_symmetry_Int_Tables_number   1
_chemical_formula_structural   AlP2H5(CO)6
_chemical_formula_sum   'Al4 P8 H20 C24 O24'
_cell_volume   837.14826438
_cell_formula_units_Z   4
loop_
 _symmetry_equiv_pos_site_id
 _symmetry_equiv_pos_as_xyz
  1  'x, y, z'
loop_
 _atom_site_type_symbol
 _atom_site_label
 _atom_site_symmetry_multiplicity
 _atom_site_fract_x
 _atom_site_fract_y
 _atom_site_fract_z
 _atom_site_occupancy
 _atom_site_pbe_bader_spin_density
 _atom_site_pbe_cm5_charge
 _atom_site_pbe_ddec_charge
 _atom_site_pbe_ddec_spin_density
 _atom_site_pbe_ddec_sum_bond_order
 _atom_site_pbe_magmom
Al  Al0  1  0.09065842  0.01729352  0.81914532  1  0  0.493724  1.761925  0  2.420576  0
Al  Al1  1  0.59065913  0.98270577  0.68085462  1  0  0.493741  1.761998  0  2.420478  0
Al  Al2  1  0.90934080  0.98270711  0.18085410  1  0  0.493738  1.761837  0  2.42065  0
Al  Al3  1  0.40934122  0.01729486  0.31914479  1  0  0.493732  1.761895  0  2.420576  0
P  P4  1  0.80047030  0.86186527  0.87155346  1  0  0.451595  1.407524  0  5.245101  0
P  P5  1  0.30047102  0.13813526  0.62844568  1  0  0.45163  1.407527  0  5.24502  0
P  P6  1  0.19952891  0.13813745  0.12844550  1  0  0.45161  1.407478  0  5.245113  0
P  P7  1  0.69952933  0.86186327  0.37155318  1  0  0.451644  1.40754  0  5.245059  0
P  P8  1  0.80093875  0.22117672  0.88605453  1  0  0.436445  1.36203  0  5.196671  0
P  P9  1  0.30093920  0.77882277  0.61394433  1  0  0.436414  1.361938  0  5.196788  0
P  P10  1  0.19906160  0.77882495  0.11394314  1  0  0.436478  1.362074  0  5.196606  0
P  P11  1  0.69906228  0.22117472  0.38605526  1  0  0.436444  1.362013  0  5.196706  0
H  H12  1  0.72613947  0.17826008  0.08633361  1  0  0.333752  0.420557  0  0.898428  0
H  H13  1  0.22613976  0.82174067  0.41366707  1  0  0.333752  0.42057  0  0.898402  0
H  H14  1  0.27386088  0.82173950  0.91366250  1  0  0.333751  0.420531  0  0.898455  0
H  H15  1  0.77386059  0.17825996  0.58633637  1  0  0.333758  0.42056  0  0.898415  0
H  H16  1  0.61069746  0.70558986  0.01067645  1  0  0.113523  0.119047  0  0.99537  0
H  H17  1  0.11069926  0.29440764  0.48932647  1  0  0.113515  0.119038  0  0.995374  0
H  H18  1  0.38929949  0.29441182  0.98932425  1  0  0.11351  0.119012  0  0.995422  0
H  H19  1  0.88930108  0.70559090  0.51067642  1  0  0.113523  0.119058  0  0.99537  0
H  H20  1  0.61768968  0.45846454  0.02370353  1  0  0.103089  0.094564  0  1.060374  0
H  H21  1  0.11768729  0.54153296  0.47629636  1  0  0.1031  0.094588  0  1.060309  0
H  H22  1  0.38230840  0.54153713  0.97629515  1  0  0.10308  0.094549  0  1.060365  0
H  H23  1  0.88230966  0.45846558  0.52370552  1  0  0.103063  0.094544  0  1.060336  0
H  H24  1  0.01176269  0.38123540  0.75872968  1  0  0.106652  0.106932  0  1.022615  0
H  H25  1  0.51176174  0.61876591  0.74127083  1  0  0.106654  0.106939  0  1.022616  0
H  H26  1  0.98823879  0.61876942  0.24127084  1  0  0.106671  0.106987  0  1.022586  0
H  H27  1  0.48823974  0.38123053  0.25872849  1  0  0.106672  0.106968  0  1.022609  0
H  H28  1  0.00835727  0.62989622  0.74943873  1  0  0.105876  0.104049  0  1.025562  0
H  H29  1  0.50836165  0.37010614  0.75056206  1  0  0.105875  0.104021  0  1.025604  0
H  H30  1  0.99163968  0.37010965  0.25056105  1  0  0.105893  0.104069  0  1.025587  0
H  H31  1  0.49164323  0.62989031  0.24943827  1  0  0.105901  0.104068  0  1.025586  0
C  C32  1  0.80581471  0.68130460  0.87385034  1  0  -0.01088  -0.195931  0  3.979638  0
C  C33  1  0.30581453  0.31869594  0.62614880  1  0  -0.010915  -0.195871  0  3.979657  0
C  C34  1  0.19418451  0.31869812  0.12614862  1  0  -0.010949  -0.195951  0  3.979734  0
C  C35  1  0.69418581  0.68130155  0.37385079  1  0  -0.010924  -0.195894  0  3.979705  0
C  C36  1  0.69707019  0.63396620  0.95367284  1  0  -0.07262  -0.059589  0  3.94813  0
C  C37  1  0.19707240  0.36603319  0.54632807  1  0  -0.072601  -0.059627  0  3.948163  0
C  C38  1  0.30292902  0.36603443  0.04632758  1  0  -0.072603  -0.05959  0  3.948187  0
C  C39  1  0.80292908  0.63396744  0.45367436  1  0  -0.072635  -0.059676  0  3.948268  0
C  C40  1  0.69999662  0.49542153  0.96019358  1  0  -0.07908  -0.067116  0  3.985042  0
C  C41  1  0.19999789  0.50457787  0.53980935  1  0  -0.079077  -0.067086  0  3.984969  0
C  C42  1  0.30000033  0.50458015  0.03980611  1  0  -0.079048  -0.067048  0  3.984947  0
C  C43  1  0.79999906  0.49542067  0.46019455  1  0  -0.079015  -0.067039  0  3.984919  0
C  C44  1  0.81054859  0.40266510  0.88714054  1  0  -0.018499  -0.201453  0  3.983131  0
C  C45  1  0.31054767  0.59733441  0.61286135  1  0  -0.018492  -0.201433  0  3.983153  0
C  C46  1  0.18945062  0.59733658  0.11285814  1  0  -0.018501  -0.201451  0  3.983148  0
C  C47  1  0.68945042  0.40266204  0.38714100  1  0  -0.018476  -0.201431  0  3.983029  0
C  C48  1  0.92261489  0.45153092  0.81191203  1  0  -0.072355  -0.044663  0  3.937482  0
C  C49  1  0.42261498  0.54846868  0.68808781  1  0  -0.072363  -0.044688  0  3.937531  0
C  C50  1  0.07738546  0.54847285  0.18808721  1  0  -0.072405  -0.0448  0  3.937587  0
C  C51  1  0.57738537  0.45152776  0.31191050  1  0  -0.072414  -0.044773  0  3.93758  0
C  C52  1  0.92017999  0.59058929  0.80582854  1  0  -0.073357  -0.049516  0  3.949595  0
C  C53  1  0.42018102  0.40941240  0.69417286  1  0  -0.073357  -0.049534  0  3.949592  0
C  C54  1  0.07981922  0.40941553  0.19417198  1  0  -0.073334  -0.049493  0  3.949619  0
C  C55  1  0.57982159  0.59058509  0.30582774  1  0  -0.073347  -0.049511  0  3.949625  0
O  O56  1  0.93843697  0.89065262  0.78910387  1  0  -0.289038  -0.827083  0  2.313514  0
O  O57  1  0.43843646  0.10934490  0.71089541  1  0  -0.289045  -0.827109  0  2.313522  0
O  O58  1  0.06156338  0.10934801  0.21089554  1  0  -0.289021  -0.827021  0  2.313542  0
O  O59  1  0.56156276  0.89065259  0.28910419  1  0  -0.289029  -0.82706  0  2.313488  0
O  O60  1  0.79919541  0.94991974  0.02415711  1  0  -0.290632  -0.832866  0  2.363423  0
O  O61  1  0.29919689  0.05008003  0.47584227  1  0  -0.290628  -0.832885  0  2.363427  0
O  O62  1  0.20080494  0.05008298  0.97584185  1  0  -0.290621  -0.832895  0  2.363424  0
O  O63  1  0.70080459  0.94991746  0.52415732  1  0  -0.290614  -0.832903  0  2.363403  0
O  O64  1  0.65138658  0.88864402  0.80281844  1  0  -0.292527  -0.811058  0  2.259195  0
O  O65  1  0.15138721  0.11135428  0.69718120  1  0  -0.292547  -0.81107  0  2.259151  0
O  O66  1  0.34861264  0.11135871  0.19718253  1  0  -0.292564  -0.811029  0  2.259166  0
O  O67  1  0.84861314  0.88864320  0.30281638  1  0  -0.292621  -0.811068  0  2.259182  0
O  O68  1  0.69116285  0.22152591  0.01194688  1  0  -0.365729  -0.651075  0  2.25359  0
O  O69  1  0.19116416  0.77847166  0.48805299  1  0  -0.365719  -0.651047  0  2.253583  0
O  O70  1  0.30883863  0.77847576  0.98805281  1  0  -0.365749  -0.651069  0  2.25362  0
O  O71  1  0.80883845  0.22152478  0.51194633  1  0  -0.365751  -0.651091  0  2.253588  0
O  O72  1  0.72401680  0.14132736  0.74929316  1  0  -0.290803  -0.809923  0  2.339388  0
O  O73  1  0.22401499  0.85867206  0.75070472  1  0  -0.290795  -0.809886  0  2.339368  0
O  O74  1  0.27598355  0.85867432  0.25070452  1  0  -0.290786  -0.809914  0  2.339344  0
O  O75  1  0.77598423  0.14132543  0.24929386  1  0  -0.290776  -0.80987  0  2.339399  0
O  O76  1  0.95766722  0.16578477  0.90507942  1  0  -0.289138  -0.826326  0  2.381583  0
O  O77  1  0.45766662  0.83421487  0.59491940  1  0  -0.289126  -0.826316  0  2.381563  0
O  O78  1  0.04233313  0.83421691  0.09491826  1  0  -0.289166  -0.826368  0  2.381633  0
O  O79  1  0.54233373  0.16578367  0.40508047  1  0  -0.289135  -0.826337  0  2.381657  0
