# generated using pymatgen
data_CuH8C7N3O4
_symmetry_space_group_name_H-M   'P 1'
_cell_length_a   10.04333685
_cell_length_b   10.01747631
_cell_length_c   16.68792769
_cell_angle_alpha   89.97320013
_cell_angle_beta   90.01076685
_cell_angle_gamma   120.35159834
_symmetry_Int_Tables_number   1
_chemical_formula_structural   CuH8C7N3O4
_chemical_formula_sum   'Cu6 H48 C42 N18 O24'
_cell_volume   1448.83770131
_cell_formula_units_Z   6
loop_
 _symmetry_equiv_pos_site_id
 _symmetry_equiv_pos_as_xyz
  1  'x, y, z'
loop_
 _atom_site_type_symbol
 _atom_site_label
 _atom_site_symmetry_multiplicity
 _atom_site_fract_x
 _atom_site_fract_y
 _atom_site_fract_z
 _atom_site_occupancy
 _atom_site_pbe_bader_charge
 _atom_site_pbe_bader_spin_density
 _atom_site_pbe_cm5_charge
 _atom_site_pbe_ddec_charge
 _atom_site_pbe_ddec_spin_density
 _atom_site_pbe_ddec_sum_bond_order
 _atom_site_pbe_magmom
Cu  Cu0  1  0.38973552  0.15109767  0.19391075  1  1.069961  0.585503  0.735939  0.786437  0.749264  2.254973  0.585
Cu  Cu1  1  0.84899489  0.24116533  0.52761310  1  1.059024  0.581045  0.733374  0.766765  0.744694  2.265808  0.581
Cu  Cu2  1  0.75828227  0.60932820  0.86060583  1  1.040687  0.507057  0.724694  0.744462  0.650118  2.270301  0.506
Cu  Cu3  1  0.24041742  0.84800711  0.47214551  1  1.069057  0.585299  0.735556  0.782719  0.749899  2.25755  0.585
Cu  Cu4  1  0.60887761  0.75871007  0.13901836  1  1.045201  -0.507321  0.726598  0.750666  -0.712818  2.269754  -0.507
Cu  Cu5  1  0.15116245  0.38943283  0.80567357  1  1.07595  0.587696  0.737766  0.796125  0.751771  2.245567  0.587
H  H6  1  0.49385579  0.13326140  0.90042228  1  0.536201  0.000597  0.307451  0.278847  0.000433  1.008469  0.001
H  H7  1  0.86809235  0.36148896  0.23411188  1  0.547274  0.000578  0.306884  0.277942  0.000445  1.010832  0.001
H  H8  1  0.63904711  0.50691944  0.56763701  1  0.557546  0.000435  0.307772  0.279319  0.000338  1.0081  0.0
H  H9  1  0.36142543  0.86775026  0.76595133  1  0.546628  0.000587  0.305968  0.276686  0.000462  1.013843  0.001
H  H10  1  0.50684603  0.63895630  0.43214377  1  0.546005  -0.000522  0.307184  0.278368  -0.000364  1.011129  -0.001
H  H11  1  0.13350899  0.49318406  0.09940112  1  0.536008  0.000643  0.30732  0.278863  0.000416  1.009724  0.001
H  H12  1  0.12056087  0.70126036  0.21550143  1  0.083404  0.005654  0.111826  0.075528  0.003075  1.00203  0.003
H  H13  1  0.29584241  0.41353942  0.54852137  1  0.068212  0.008266  0.111856  0.0754  0.004393  1.00419  0.005
H  H14  1  0.58605601  0.88269765  0.88152601  1  0.076727  0.006193  0.111874  0.075096  0.003035  1.006393  0.004
H  H15  1  0.41653850  0.29686885  0.45094806  1  0.072539  0.008113  0.111448  0.074824  0.004319  1.002886  0.005
H  H16  1  0.88254346  0.58688669  0.11833650  1  0.070301  -0.003618  0.111872  0.074893  -0.001896  1.006901  -0.003
H  H17  1  0.70195930  0.12133972  0.78418494  1  0.085556  0.007827  0.111475  0.07443  0.00423  1.00421  0.004
H  H18  1  0.10545370  0.71342798  0.06877120  1  0.050569  -0.000259  0.102178  0.109838  -0.000155  1.005061  0.0
H  H19  1  0.28245988  0.38640392  0.40169376  1  0.044909  9.6e-05  0.103299  0.113007  5e-05  0.999736  0.0
H  H20  1  0.61172638  0.89615768  0.73514971  1  0.059649  0.000107  0.103885  0.113634  7.4e-05  1.001801  0.0
H  H21  1  0.38848449  0.28323612  0.59775810  1  0.060592  0.000108  0.103448  0.112568  5.5e-05  1.000343  0.0
H  H22  1  0.89566612  0.61310989  0.26474477  1  0.045996  0.000371  0.104021  0.11411  0.000184  0.998812  0.0
H  H23  1  0.71425395  0.10602810  0.93094123  1  0.057892  -1e-06  0.102671  0.110801  -1.8e-05  1.004554  0.0
H  H24  1  0.07325381  0.85423003  0.11442544  1  0.036612  -0.000455  0.107241  0.124177  -0.000244  0.971107  0.0
H  H25  1  0.14075963  0.21296381  0.44755772  1  0.039838  0.000274  0.10718  0.124233  0.000118  0.968716  0.0
H  H26  1  0.78551258  0.93056845  0.78060512  1  0.060357  0.000297  0.106924  0.123788  0.000146  0.971834  0.0
H  H27  1  0.21567454  0.14127563  0.55182128  1  0.057711  0.000266  0.107392  0.124683  0.000116  0.969006  0.0
H  H28  1  0.92944593  0.78700279  0.21911118  1  0.051693  0.000547  0.106696  0.12359  0.000235  0.969693  0.0
H  H29  1  0.85421366  0.07313322  0.88519759  1  0.040123  0.000186  0.107202  0.124277  9.1e-05  0.970772  0.0
H  H30  1  0.28928275  0.84243922  0.93229615  1  0.148367  0.00096  0.116892  0.125295  0.000475  1.06137  0.001
H  H31  1  0.15498516  0.43851705  0.26514133  1  0.147682  0.001052  0.115863  0.121025  0.000544  1.060695  0.001
H  H32  1  0.55535481  0.71159394  0.59911685  1  0.154357  0.000864  0.117321  0.123816  0.000459  1.060772  0.001
H  H33  1  0.43753785  0.15513033  0.73476682  1  0.145483  0.000995  0.11583  0.121166  0.000517  1.057892  0.001
H  H34  1  0.71499635  0.56035223  0.40119134  1  0.1443  -0.00084  0.11642  0.122212  -0.000426  1.060068  -0.001
H  H35  1  0.84347460  0.28858166  0.06751115  1  0.155097  0.001  0.116452  0.123616  0.000508  1.060792  0.001
H  H36  1  0.55382428  0.29890496  0.02035162  1  0.170116  0.000454  0.136805  0.104056  0.000121  1.008886  0.0
H  H37  1  0.70243073  0.25917809  0.35446430  1  0.167296  0.000436  0.135576  0.104025  9.3e-05  1.012786  0.0
H  H38  1  0.74481900  0.44789765  0.68754360  1  0.16252  0.000371  0.13696  0.104957  7.6e-05  1.008867  0.0
H  H39  1  0.26064195  0.70164665  0.64544186  1  0.166582  0.000465  0.135213  0.103442  0.000104  1.01494  0.0
H  H40  1  0.44502183  0.74173124  0.31176431  1  0.154719  -0.000331  0.135981  0.103786  -8.1e-05  1.0128  0.0
H  H41  1  0.29862126  0.55437473  0.97924104  1  0.168298  0.000388  0.13671  0.103738  4.9e-05  1.009383  0.0
H  H42  1  0.09171545  0.18892752  0.19836078  1  0.607733  -8.2e-05  0.29462  0.383317  -4.4e-05  0.932717  0.0
H  H43  1  0.78107978  0.90467001  0.55357076  1  0.591834  -3e-05  0.298774  0.373479  -2.7e-05  0.944256  0.0
H  H44  1  0.09661066  0.86897515  0.89235774  1  0.605492  -5e-06  0.300307  0.372094  -1e-05  0.947131  0.0
H  H45  1  0.90300591  0.80443150  0.46412801  1  0.605319  -0.00011  0.296385  0.381441  -4.9e-05  0.933784  0.0
H  H46  1  0.87459473  0.09697591  0.11093625  1  0.602227  4.1e-05  0.299043  0.371997  3.1e-05  0.946839  0.0
H  H47  1  0.17912364  0.08148511  0.80947380  1  0.618539  -0.00013  0.290272  0.386562  -4.3e-05  0.932552  0.0
H  H48  1  0.24789184  0.32963946  0.16927252  1  0.598894  -7.6e-05  0.307603  0.401882  -7.3e-05  0.902905  0.0
H  H49  1  0.67325807  0.92416869  0.49464789  1  0.608883  -3e-06  0.310448  0.405069  -2.6e-05  0.89415  0.0
H  H50  1  0.07441999  0.76006332  0.82181974  1  0.620904  7e-06  0.314838  0.408845  -1.8e-05  0.883348  0.0
H  H51  1  0.91912650  0.66820267  0.49822385  1  0.606841  -2.1e-05  0.306743  0.401369  -2.8e-05  0.903773  0.0
H  H52  1  0.75258977  0.07416635  0.17424346  1  0.635253  5.5e-05  0.311986  0.406492  5.9e-05  0.889476  0.0
H  H53  1  0.32608958  0.24128839  0.82990611  1  0.606115  -3.8e-05  0.306256  0.399684  -3.1e-05  0.905663  0.0
C  C54  1  0.21807234  0.79764525  0.18417313  1  0.318783  -0.004369  0.00534  0.034717  -0.002688  3.888918  -0.005
C  C55  1  0.20084632  0.41619141  0.51734145  1  0.321659  0.011883  0.005401  0.032912  0.009049  3.890132  0.008
C  C56  1  0.58305974  0.78457993  0.85058448  1  0.345201  0.009926  0.005568  0.034086  0.007257  3.884664  0.007
C  C57  1  0.41847721  0.20122374  0.48215319  1  0.340349  0.011736  0.005744  0.034261  0.008969  3.887885  0.008
C  C58  1  0.78450138  0.58373025  0.14919250  1  0.334008  0.007479  0.004393  0.03249  0.004774  3.885142  0.007
C  C59  1  0.79831721  0.21885279  0.81548192  1  0.313141  0.010404  0.006239  0.035782  0.008021  3.886589  0.007
C  C60  1  0.16150925  0.82231184  0.10254506  1  0.017764  0.003851  -0.150679  -0.251622  0.002424  3.945345  0.003
C  C61  1  0.17414953  0.33415752  0.43571291  1  0.031081  0.003927  -0.149139  -0.248593  0.002514  3.938897  0.003
C  C62  1  0.66475536  0.84100364  0.76895272  1  -0.021268  0.003389  -0.149952  -0.251198  0.002218  3.946072  0.003
C  C63  1  0.33649268  0.17466896  0.56373874  1  -0.004861  0.003965  -0.148931  -0.247515  0.002535  3.940186  0.003
C  C64  1  0.84035814  0.66580969  0.23079097  1  0.02184  -0.003249  -0.148526  -0.248673  -0.00235  3.941978  -0.003
C  C65  1  0.82278669  0.16190973  0.89708636  1  0.005626  0.003892  -0.150788  -0.251343  0.002494  3.944165  0.003
C  C66  1  0.28460284  0.94434922  0.05206063  1  0.448252  0.000525  0.078715  0.186544  0.000704  4.001773  0.001
C  C67  1  0.05346771  0.33705698  0.38552611  1  0.441333  0.000693  0.077714  0.18504  0.00082  3.995503  0.001
C  C68  1  0.66274921  0.71783815  0.71868767  1  0.441937  0.000523  0.077108  0.185275  0.000633  4.003837  0.001
C  C69  1  0.33912092  0.05369346  0.61403915  1  0.43245  0.000659  0.076545  0.183282  0.000808  3.998043  0.001
C  C70  1  0.71697696  0.66306291  0.28094561  1  0.412826  -0.000312  0.076063  0.184104  -0.00074  4.002003  0.0
C  C71  1  0.94479042  0.28508978  0.94751477  1  0.446664  0.000614  0.078512  0.185579  0.000789  4.002801  0.001
C  C72  1  0.32435617  0.93826013  0.97361863  1  0.290015  0.005667  -0.010577  -0.13637  0.003854  3.916357  0.004
C  C73  1  0.05993310  0.38281179  0.30711719  1  0.313392  0.006462  -0.005901  -0.117824  0.004396  3.906113  0.005
C  C74  1  0.61552023  0.67663443  0.64052889  1  0.297058  0.00532  -0.006799  -0.127181  0.003636  3.909411  0.004
C  C75  1  0.38356060  0.06005490  0.69262758  1  0.321401  0.0063  -0.005846  -0.115105  0.004277  3.906831  0.005
C  C76  1  0.67690246  0.61696363  0.35927174  1  0.347395  -0.004863  -0.005244  -0.119683  -0.003658  3.907334  -0.004
C  C77  1  0.93895395  0.32441216  0.02607205  1  0.291835  0.005942  -0.009729  -0.132058  0.003985  3.915731  0.004
C  C78  1  0.46852470  0.17671135  0.01976902  1  0.986201  3.7e-05  0.148913  0.171412  0.000849  3.908747  0.001
C  C79  1  0.82340196  0.29329172  0.35370723  1  0.981585  0.000424  0.143533  0.162545  0.001153  3.913735  0.002
C  C80  1  0.70899208  0.53331088  0.68681509  1  0.997354  0.00056  0.147749  0.169557  0.001098  3.90942  0.002
C  C81  1  0.29473948  0.82294320  0.64608814  1  0.991597  -1.4e-05  0.142671  0.161266  0.000835  3.915432  0.001
C  C82  1  0.53129085  0.70721946  0.31258379  1  0.998566  -0.000407  0.144522  0.165301  -0.001393  3.911059  -0.001
C  C83  1  0.17669587  0.46903538  0.97980459  1  0.988046  -0.0003  0.148527  0.17176  0.000627  3.909316  0.001
C  C84  1  0.27568950  0.92309034  0.31137515  1  1.384547  -0.001334  0.208415  0.359923  0.001241  4.191278  0.0
C  C85  1  0.07611814  0.35059287  0.64486508  1  1.347152  -0.000802  0.207858  0.358069  0.001665  4.191162  0.0
C  C86  1  0.65012535  0.72649291  0.97827336  1  1.372223  0.001171  0.208122  0.353436  0.000547  4.200466  0.003
C  C87  1  0.35148795  0.07606105  0.35471988  1  1.3246  -0.000957  0.20836  0.358813  0.001563  4.190826  0.0
C  C88  1  0.72647275  0.65069500  0.02140221  1  1.335518  -0.000804  0.208122  0.354068  -0.000921  4.202176  -0.003
C  C89  1  0.92356804  0.27492585  0.68824192  1  1.352818  -0.001029  0.208382  0.358914  0.001459  4.189094  0.0
C  C90  1  0.33503906  0.74392196  0.16952486  1  1.578071  0.001281  0.208926  0.569075  2e-05  4.140497  0.003
C  C91  1  0.25721452  0.58837225  0.50292599  1  1.584185  -0.00116  0.209301  0.567617  -0.000264  4.146432  -0.003
C  C92  1  0.41118013  0.66747137  0.83647918  1  1.577572  -0.000931  0.208217  0.563791  -0.000153  4.154077  -0.003
C  C93  1  0.59000718  0.25700620  0.49679153  1  1.572416  -0.00116  0.210599  0.570171  -0.000282  4.140246  -0.003
C  C94  1  0.66778833  0.41139567  0.16333722  1  1.579856  -0.001406  0.208338  0.564915  -0.000386  4.150992  -0.003
C  C95  1  0.74509950  0.33633343  0.83025126  1  1.584009  -0.001113  0.208347  0.569175  -0.000327  4.1381  -0.003
N  N96  1  0.27881651  0.93623533  0.23269682  1  -1.183264  0.09818  -0.403988  -0.427698  0.063493  3.558885  0.082
N  N97  1  0.06276515  0.33965111  0.56621619  1  -1.182621  0.10011  -0.404839  -0.424342  0.064865  3.560923  0.083
N  N98  1  0.65896799  0.72291683  0.89968104  1  -1.165637  0.079737  -0.398802  -0.412095  0.052013  3.555527  0.067
N  N99  1  0.34160781  0.06277050  0.43335709  1  -1.172625  0.098903  -0.404203  -0.426654  0.06418  3.559798  0.082
N  N100  1  0.72277487  0.65950636  0.09996832  1  -1.157922  -0.078449  -0.397788  -0.41121  -0.056125  3.553009  -0.067
N  N101  1  0.93652876  0.27942252  0.76688391  1  -1.172011  0.098492  -0.403446  -0.427449  0.063893  3.555976  0.082
N  N102  1  0.37678647  0.09355464  0.08001069  1  -1.183603  0.093349  -0.374363  -0.333258  0.061986  3.575094  0.08
N  N103  1  0.90529348  0.28274014  0.41378505  1  -1.199236  0.095627  -0.377597  -0.336251  0.063437  3.585244  0.082
N  N104  1  0.71958262  0.62636577  0.74679913  1  -1.19482  0.080137  -0.379616  -0.33998  0.053259  3.587618  0.069
N  N105  1  0.28537018  0.90522740  0.58581677  1  -1.195405  0.096221  -0.375848  -0.334059  0.063749  3.584017  0.083
N  N106  1  0.62407149  0.71791938  0.25257959  1  -1.195874  -0.080436  -0.379704  -0.338749  -0.058449  3.589021  -0.069
N  N107  1  0.09355945  0.37755389  0.91948773  1  -1.188164  0.0945  -0.374514  -0.3359  0.062799  3.579953  0.081
N  N108  1  0.43987797  0.08624827  0.95486100  1  -1.293432  0.003104  -0.384933  -0.201731  0.001647  3.716724  0.002
N  N109  1  0.91390050  0.35359110  0.28861254  1  -1.304569  0.003879  -0.38548  -0.203879  0.002107  3.721378  0.002
N  N110  1  0.64651350  0.56087901  0.62209489  1  -1.317059  0.00332  -0.383093  -0.198745  0.001803  3.716059  0.002
N  N111  1  0.35399539  0.91360804  0.71133844  1  -1.319789  0.003807  -0.386895  -0.206715  0.002085  3.723353  0.002
N  N112  1  0.56045969  0.64644867  0.37760939  1  -1.308723  -0.00255  -0.384613  -0.201521  -0.001504  3.719555  -0.002
N  N113  1  0.08656421  0.43999249  0.04480481  1  -1.292885  0.00354  -0.385529  -0.203541  0.001928  3.719148  0.002
O  O114  1  0.47734607  0.84819003  0.16476514  1  -1.121547  -0.078161  -0.318578  -0.512172  -0.055218  2.338692  -0.071
O  O115  1  0.15427783  0.62695628  0.49843825  1  -1.120927  0.089956  -0.315254  -0.503381  0.057728  2.3391  0.082
O  O116  1  0.37229334  0.52521095  0.83187285  1  -1.116854  0.08941  -0.31487  -0.499933  0.057451  2.329058  0.081
O  O117  1  0.62846746  0.15363946  0.50104985  1  -1.110765  0.09044  -0.317968  -0.511176  0.058015  2.346611  0.082
O  O118  1  0.52580658  0.37241347  0.16749023  1  -1.11754  0.089378  -0.315137  -0.502132  0.057467  2.335  0.081
O  O119  1  0.84916269  0.47910663  0.83453950  1  -1.125786  0.078031  -0.319789  -0.51364  0.050143  2.336602  0.071
O  O120  1  0.28329090  0.60039824  0.16135432  1  -1.20877  0.00139  -0.325671  -0.59258  0.00105  2.234456  0.0
O  O121  1  0.40079018  0.67994475  0.49497064  1  -1.195618  0.001922  -0.327311  -0.596164  0.000849  2.239911  0.002
O  O122  1  0.32037195  0.71951242  0.82898266  1  -1.212705  0.002502  -0.327367  -0.594787  0.001218  2.238844  0.003
O  O123  1  0.68161424  0.40074801  0.50530412  1  -1.206541  0.002064  -0.326179  -0.594235  0.000934  2.233315  0.002
O  O124  1  0.71966978  0.32039649  0.17121035  1  -1.213448  0.000214  -0.326867  -0.594417  -0.000323  2.235624  0.001
O  O125  1  0.60209034  0.28455429  0.83897580  1  -1.202913  0.002408  -0.325399  -0.591276  0.001217  2.22994  0.002
O  O126  1  0.22050951  0.79798034  0.35268546  1  -1.130371  0.093613  -0.319946  -0.487306  0.060029  2.29109  0.084
O  O127  1  0.20097767  0.42015258  0.68616774  1  -1.120958  0.094937  -0.317693  -0.484675  0.060743  2.28753  0.085
O  O128  1  0.58262141  0.78256820  0.02004241  1  -1.117099  -0.071158  -0.313484  -0.470858  -0.050453  2.296162  -0.065
O  O129  1  0.42037420  0.20126118  0.31328630  1  -1.111204  0.095837  -0.31969  -0.486721  0.061311  2.28843  0.085
O  O130  1  0.78309237  0.58366378  0.97959574  1  -1.116396  0.073196  -0.313662  -0.471166  0.047192  2.295052  0.066
O  O131  1  0.79869379  0.21843680  0.64677801  1  -1.112754  0.095088  -0.321661  -0.486994  0.060833  2.289047  0.085
O  O132  1  0.18553055  0.21697155  0.16803372  1  -1.195154  -0.001559  -0.589718  -0.771357  -0.001024  1.983559  0.0
O  O133  1  0.78128914  0.95473061  0.50330396  1  -1.188956  -0.001533  -0.581601  -0.755815  -0.001023  1.957659  0.0
O  O134  1  0.05273010  0.84072996  0.83852269  1  -1.212723  -0.001289  -0.57319  -0.750414  -0.000865  1.962068  0.0
O  O135  1  0.96682502  0.78066912  0.49866784  1  -1.200755  -0.001479  -0.587237  -0.767388  -0.000979  1.976963  0.0
O  O136  1  0.83223620  0.04813235  0.16264938  1  -1.225146  0.001332  -0.579061  -0.753362  0.000789  1.959123  0.0
O  O137  1  0.21365192  0.18504247  0.83078847  1  -1.216706  -0.001418  -0.593841  -0.780432  -0.000939  1.986558  0.0
