# generated using pymatgen
data_CrH5C8O5
_symmetry_space_group_name_H-M   'P 1'
_cell_length_a   6.89634836
_cell_length_b   11.23727786
_cell_length_c   11.23731521
_cell_angle_alpha   70.24671241
_cell_angle_beta   72.14072081
_cell_angle_gamma   72.14111411
_symmetry_Int_Tables_number   1
_chemical_formula_structural   CrH5C8O5
_chemical_formula_sum   'Cr2 H10 C16 O10'
_cell_volume   759.81120447
_cell_formula_units_Z   2
loop_
 _symmetry_equiv_pos_site_id
 _symmetry_equiv_pos_as_xyz
  1  'x, y, z'
loop_
 _atom_site_type_symbol
 _atom_site_label
 _atom_site_symmetry_multiplicity
 _atom_site_fract_x
 _atom_site_fract_y
 _atom_site_fract_z
 _atom_site_occupancy
 _atom_site_pbe_bader_charge
 _atom_site_pbe_bader_spin_density
 _atom_site_pbe_cm5_charge
 _atom_site_pbe_ddec_charge
 _atom_site_pbe_ddec_spin_density
 _atom_site_pbe_ddec_sum_bond_order
 _atom_site_pbe_magmom
Cr  Cr0  1  0.49999346  0.50001203  0.00001889  1  1.815598  2.740924  1.039763  1.573316  2.839249  2.69741  2.773
Cr  Cr1  1  0.00003036  0.49992710  0.00001353  1  1.815344  2.741059  1.039564  1.573278  2.839275  2.697105  2.773
H  H2  1  0.62802243  0.11625698  0.00510054  1  0.104841  0.00022  0.107386  0.113007  -0.000133  1.003327  0.0
H  H3  1  0.87196331  0.49490160  0.38373875  1  0.104582  0.00022  0.107423  0.113052  -0.000134  1.003328  0.0
H  H4  1  0.75040741  0.50524089  0.61637779  1  0.096149  0.000226  0.107328  0.112354  -0.000133  1.003543  0.0
H  H5  1  0.74958535  0.88361834  0.99476049  1  0.096036  0.000226  0.107295  0.112294  -0.000134  1.003549  0.0
H  H6  1  0.37197756  0.88375381  0.99486478  1  0.104687  0.00022  0.107343  0.112948  -0.000133  1.003573  0.0
H  H7  1  0.12800624  0.50514177  0.61625012  1  0.104598  0.000221  0.107337  0.11297  -0.000133  1.003536  0.0
H  H8  1  0.24959609  0.49480536  0.38361355  1  0.0963  0.000225  0.107285  0.11231  -0.000134  1.003685  0.0
H  H9  1  0.25039090  0.11638667  0.00520316  1  0.096358  0.000225  0.107332  0.112427  -0.000135  1.003602  0.0
H  H10  1  0.24999668  0.35524795  0.14482834  1  0.604406  0.009334  0.32697  0.431463  0.004833  0.848598  0.008
H  H11  1  0.74997544  0.64482477  0.85528217  1  0.603621  0.009334  0.327067  0.43176  0.00482  0.848261  0.008
C  C12  1  0.70964715  0.49700358  0.43590735  1  -0.109699  0.004211  -0.080447  -0.093624  0.003013  3.970219  0.002
C  C13  1  0.79034065  0.06408935  0.00299716  1  -0.109524  0.004213  -0.080365  -0.093595  0.003015  3.970233  0.002
C  C14  1  0.85756847  0.93586912  0.99686587  1  0.068222  0.004133  -0.07987  -0.090743  0.002994  3.969056  0.002
C  C15  1  0.64242636  0.50313513  0.56412975  1  0.068344  0.004137  -0.079966  -0.090943  0.002996  3.968799  0.002
C  C16  1  0.29033125  0.50304471  0.56407558  1  -0.109354  0.004208  -0.080326  -0.093437  0.003012  3.970105  0.002
C  C17  1  0.20966039  0.93591866  0.99695907  1  -0.109028  0.004207  -0.080374  -0.093502  0.003011  3.97011  0.002
C  C18  1  0.14242161  0.06414380  0.00308458  1  0.068206  0.004138  -0.079946  -0.090947  0.002996  3.968653  0.002
C  C19  1  0.35757083  0.49691996  0.43585099  1  0.068601  0.004137  -0.079845  -0.090806  0.002996  3.968591  0.002
C  C20  1  0.56766167  0.49370526  0.37108649  1  -0.041089  -0.001506  -0.012201  -0.029838  -0.003305  3.956664  -0.003
C  C21  1  0.63936320  0.48831017  0.23307030  1  1.536724  0.026324  0.236423  0.628667  0.022298  4.112165  0.023
C  C22  1  0.93233888  0.12890360  0.00629731  1  -0.04118  -0.001509  -0.01214  -0.029794  -0.003308  3.956597  -0.003
C  C23  1  0.86060977  0.26691890  0.01169047  1  1.536726  0.026327  0.236479  0.628938  0.022301  4.11155  0.023
C  C24  1  0.06764743  0.87109073  0.99366883  1  -0.045736  -0.001519  -0.012024  -0.029592  -0.003306  3.956145  -0.003
C  C25  1  0.13938293  0.73301724  0.98828724  1  1.539434  0.026382  0.236449  0.628644  0.022331  4.11079  0.023
C  C26  1  0.43233297  0.50633618  0.62890185  1  -0.045351  -0.001521  -0.012082  -0.029632  -0.003308  3.955976  -0.003
C  C27  1  0.36062661  0.51171124  0.76696999  1  1.539365  0.02638  0.236579  0.628608  0.022333  4.111151  0.023
O  O28  1  0.50157911  0.48600073  0.18023763  1  -1.146574  0.0251  -0.324612  -0.582539  0.010859  2.363418  -0.007
O  O29  1  0.99844394  0.31971289  0.01401942  1  -1.146507  0.02511  -0.324639  -0.582761  0.010851  2.362916  -0.007
O  O30  1  0.33228740  0.68019216  0.98597635  1  -1.141609  0.025267  -0.32459  -0.581754  0.010987  2.362069  -0.007
O  O31  1  0.16771695  0.51399233  0.81981695  1  -1.141546  0.025249  -0.324693  -0.581842  0.010985  2.361984  -0.007
O  O32  1  0.49835734  0.51402879  0.81984740  1  -1.144758  0.025152  -0.324778  -0.582583  0.010895  2.363209  -0.007
O  O33  1  0.00164710  0.68011841  0.98598565  1  -1.144497  0.025124  -0.324833  -0.582882  0.010892  2.362752  -0.007
O  O34  1  0.66772058  0.31979701  0.01401499  1  -1.141666  0.025247  -0.324524  -0.581783  0.010975  2.361762  -0.007
O  O35  1  0.83228631  0.48596424  0.18022508  1  -1.141301  0.025192  -0.324526  -0.581791  0.010956  2.361337  -0.007
O  O36  1  0.75004224  0.56976061  0.93019933  1  -1.154022  0.081678  -0.625725  -0.956123  0.062705  2.202341  0.016
O  O37  1  0.25004279  0.43020159  0.06978280  1  -1.154701  0.081704  -0.625518  -0.955525  0.062713  2.202609  0.016
