# generated using pymatgen
data_CaH8C15SO8
_symmetry_space_group_name_H-M   'P 1'
_cell_length_a   5.53228747
_cell_length_b   12.05148629
_cell_length_c   22.66384993
_cell_angle_alpha   96.40588706
_cell_angle_beta   89.99909025
_cell_angle_gamma   89.99945455
_symmetry_Int_Tables_number   1
_chemical_formula_structural   CaH8C15SO8
_chemical_formula_sum   'Ca4 H32 C60 S4 O32'
_cell_volume   1501.61639310
_cell_formula_units_Z   4
loop_
 _symmetry_equiv_pos_site_id
 _symmetry_equiv_pos_as_xyz
  1  'x, y, z'
loop_
 _atom_site_type_symbol
 _atom_site_label
 _atom_site_symmetry_multiplicity
 _atom_site_fract_x
 _atom_site_fract_y
 _atom_site_fract_z
 _atom_site_occupancy
 _atom_site_pbe_bader_charge
 _atom_site_pbe_bader_spin_density
 _atom_site_pbe_cm5_charge
 _atom_site_pbe_ddec_charge
 _atom_site_pbe_ddec_spin_density
 _atom_site_pbe_ddec_sum_bond_order
 _atom_site_pbe_magmom
Ca  Ca0  1  0.79621651  0.60575599  0.04268863  1  1.659991  0  0.910749  1.431532  0  1.450847  0
Ca  Ca1  1  0.29622548  0.89425076  0.45730975  1  1.660063  0  0.910705  1.431465  0  1.45097  0
Ca  Ca2  1  0.20375503  0.39424985  0.95731046  1  1.660002  0  0.91071  1.431438  0  1.450986  0
Ca  Ca3  1  0.70378944  0.10574610  0.54268639  1  1.659996  0  0.910739  1.431579  0  1.450781  0
H  H4  1  0.26821857  0.10456300  0.12076483  1  0.107701  0  0.106464  0.114921  0  1.021174  0
H  H5  1  0.76822612  0.39544695  0.37923559  1  0.10764  0  0.106461  0.114848  0  1.021341  0
H  H6  1  0.73178008  0.89543454  0.87923313  1  0.107685  0  0.106482  0.11493  0  1.021295  0
H  H7  1  0.23177976  0.60456220  0.62076422  1  0.10773  0  0.106463  0.114884  0  1.021217  0
H  H8  1  0.29796774  0.96799819  0.20637783  1  0.132975  0  0.103704  0.109422  0  1.045917  0
H  H9  1  0.79794478  0.53200496  0.29362334  1  0.133053  0  0.103632  0.109303  0  1.046113  0
H  H10  1  0.70204537  0.03199260  0.79362046  1  0.132889  0  0.103686  0.109398  0  1.045928  0
H  H11  1  0.20204302  0.46800673  0.70637623  1  0.132928  0  0.103672  0.109376  0  1.045964  0
H  H12  1  0.61726399  0.80483971  0.16192128  1  0.129893  0  0.116174  0.120711  0  1.020754  0
H  H13  1  0.11723746  0.69517750  0.33807955  1  0.130191  0  0.116175  0.120698  0  1.020927  0
H  H14  1  0.38273647  0.19516628  0.83807606  1  0.129863  0  0.1162  0.120664  0  1.020794  0
H  H15  1  0.88274312  0.30482911  0.66192049  1  0.130177  0  0.116196  0.120705  0  1.020777  0
H  H16  1  0.13783380  0.28892219  0.09216281  1  0.135334  0  0.116231  0.118669  0  1.010417  0
H  H17  1  0.63786704  0.21108986  0.40783772  1  0.135372  0  0.116273  0.118711  0  1.01039  0
H  H18  1  0.86219016  0.71108286  0.90783577  1  0.135431  0  0.116243  0.118736  0  1.010303  0
H  H19  1  0.36216054  0.78891834  0.59216333  1  0.135347  0  0.116266  0.118692  0  1.010483  0
H  H20  1  0.51610546  0.81712289  0.27035891  1  0.102232  0  0.101762  0.103616  0  1.053429  0
H  H21  1  0.01609268  0.68288709  0.22964196  1  0.102102  0  0.101781  0.103644  0  1.053369  0
H  H22  1  0.48389319  0.18288391  0.72963894  1  0.102229  0  0.101804  0.103632  0  1.053417  0
H  H23  1  0.98388428  0.31710435  0.77035859  1  0.102142  0  0.101779  0.103665  0  1.053323  0
H  H24  1  0.20061429  0.97273025  0.31449007  1  0.137841  0  0.11484  0.116967  0  1.00505  0
H  H25  1  0.70058673  0.52725925  0.18550749  1  0.137729  0  0.114865  0.116909  0  1.005102  0
H  H26  1  0.79941871  0.02724891  0.68550680  1  0.137656  0  0.114829  0.116834  0  1.005216  0
H  H27  1  0.29939746  0.47274664  0.81449117  1  0.137823  0  0.114844  0.116911  0  1.005098  0
H  H28  1  0.60132884  0.95740134  0.05157675  1  0.145776  0  0.109817  0.119618  0  1.053261  0
H  H29  1  0.10132502  0.54260224  0.44842702  1  0.145876  0  0.109823  0.119668  0  1.05323  0
H  H30  1  0.39865174  0.04261915  0.94842797  1  0.146227  0  0.109811  0.119781  0  1.052936  0
H  H31  1  0.89867002  0.45739462  0.55156911  1  0.145853  0  0.109798  0.11967  0  1.053177  0
H  H32  1  0.47011918  0.14452442  0.02466303  1  0.110392  0  0.110362  0.107019  0  1.037915  0
H  H33  1  0.97013136  0.35547543  0.47533969  1  0.110442  0  0.110361  0.106983  0  1.038009  0
H  H34  1  0.52988309  0.85549546  0.97533899  1  0.109553  0  0.110363  0.107084  0  1.037916  0
H  H35  1  0.02988356  0.64452048  0.52465769  1  0.109992  0  0.110367  0.107023  0  1.037945  0
C  C36  1  0.78899908  0.90129736  0.36400123  1  1.644088  0  0.232227  0.629468  0  4.204325  0
C  C37  1  0.28898958  0.59870505  0.13599905  1  1.643971  0  0.232171  0.629258  0  4.204542  0
C  C38  1  0.21100138  0.09869101  0.63599597  1  1.643858  0  0.232292  0.629445  0  4.204482  0
C  C39  1  0.71098015  0.40130228  0.86400237  1  1.644073  0  0.232319  0.6297  0  4.204084  0
C  C40  1  0.71022253  0.33586390  0.03601273  1  1.594746  0  0.248122  0.631611  0  4.173669  0
C  C41  1  0.21025386  0.16414131  0.46398634  1  1.594493  0  0.248134  0.63163  0  4.17363  0
C  C42  1  0.28977974  0.66414362  0.96398650  1  1.591509  0  0.248286  0.631863  0  4.173517  0
C  C43  1  0.78977009  0.83586047  0.53601109  1  1.594612  0  0.248181  0.631721  0  4.173594  0
C  C44  1  0.09409540  0.11297844  0.09931164  1  -0.060622  0  -0.084134  -0.099322  0  3.976897  0
C  C45  1  0.59410456  0.38703199  0.40068992  1  -0.060971  0  -0.084204  -0.09935  0  3.977038  0
C  C46  1  0.90590325  0.88702904  0.90068803  1  -0.060239  0  -0.084168  -0.09935  0  3.97702  0
C  C47  1  0.40589771  0.61297408  0.59930654  1  -0.061251  0  -0.084177  -0.099383  0  3.977051  0
C  C48  1  0.12700270  0.93539990  0.22075601  1  -0.037265  0  -0.089266  -0.111509  0  3.999523  0
C  C49  1  0.62697712  0.56459969  0.27924417  1  -0.037277  0  -0.089157  -0.1112  0  3.999233  0
C  C50  1  0.87301403  0.06458836  0.77924250  1  -0.037208  0  -0.089252  -0.11141  0  3.999473  0
C  C51  1  0.37301068  0.43541032  0.72075526  1  -0.037046  0  -0.08926  -0.11149  0  3.999448  0
C  C52  1  0.74235044  0.84249794  0.19546672  1  -0.034549  0  -0.074937  -0.082639  0  3.959404  0
C  C53  1  0.24232419  0.65750699  0.30453539  1  -0.034895  0  -0.07487  -0.082461  0  3.959151  0
C  C54  1  0.25765725  0.15749877  0.80453117  1  -0.034767  0  -0.074872  -0.082454  0  3.959312  0
C  C55  1  0.75766000  0.34249784  0.69546583  1  -0.035114  0  -0.074909  -0.082556  0  3.959284  0
C  C56  1  0.96216310  0.88643611  0.17879876  1  -0.24278  0  -0.020034  -0.088212  0  4.002621  0
C  C57  1  0.46213620  0.61356819  0.32120235  1  -0.242681  0  -0.020145  -0.088506  0  4.002402  0
C  C58  1  0.03784821  0.11355552  0.82119960  1  -0.242403  0  -0.020163  -0.088428  0  4.002759  0
C  C59  1  0.53785161  0.38644096  0.67879746  1  -0.242369  0  -0.020104  -0.088302  0  4.002596  0
C  C60  1  0.01932902  0.21661844  0.08387452  1  0.01881  0  -0.073053  -0.090189  0  3.93752  0
C  C61  1  0.51935231  0.28339132  0.41612790  1  0.019239  0  -0.073013  -0.090148  0  3.93737  0
C  C62  1  0.98068409  0.78338912  0.91612427  1  0.018578  0  -0.073038  -0.090184  0  3.937261  0
C  C63  1  0.48066080  0.71661381  0.58386980  1  0.018945  0  -0.073033  -0.090185  0  3.93744  0
C  C64  1  0.68681022  0.84950350  0.25576436  1  -0.023689  0  -0.082828  -0.094164  0  3.947456  0
C  C65  1  0.18678920  0.65049995  0.24423754  1  -0.024044  0  -0.082848  -0.094167  0  3.947466  0
C  C66  1  0.31319928  0.15049320  0.74423353  1  -0.023865  0  -0.082896  -0.094219  0  3.947453  0
C  C67  1  0.81319318  0.34950067  0.75576377  1  -0.02381  0  -0.082873  -0.094225  0  3.947316  0
C  C68  1  0.84930587  0.89740380  0.29866202  1  -0.028118  0  -0.006267  -0.027743  0  3.920389  0
C  C69  1  0.34928932  0.60259913  0.20133969  1  -0.027857  0  -0.006293  -0.027776  0  3.92034  0
C  C70  1  0.15070363  0.10258862  0.70133684  1  -0.028485  0  -0.006295  -0.027693  0  3.92015  0
C  C71  1  0.65069487  0.39740828  0.79866086  1  -0.028522  0  -0.006239  -0.02779  0  3.920287  0
C  C72  1  0.79500468  0.22720068  0.05613679  1  -0.016135  0  -0.003062  -0.029096  0  3.932532  0
C  C73  1  0.29502725  0.27280723  0.44386682  1  -0.016583  0  -0.003108  -0.029092  0  3.932587  0
C  C74  1  0.20501024  0.77281032  0.94386096  1  -0.013044  0  -0.002911  -0.02889  0  3.932463  0
C  C75  1  0.70498948  0.72719445  0.55613192  1  -0.015717  0  -0.003094  -0.029107  0  3.932445  0
C  C76  1  0.07124201  0.93916074  0.28083230  1  -0.069956  0  -0.078459  -0.091666  0  3.959026  0
C  C77  1  0.57122155  0.56083570  0.21916754  1  -0.069661  0  -0.078459  -0.091615  0  3.958835  0
C  C78  1  0.92877652  0.06082581  0.71916652  1  -0.069251  0  -0.078526  -0.09168  0  3.959099  0
C  C79  1  0.42876445  0.43917181  0.78083169  1  -0.069599  0  -0.078519  -0.091675  0  3.959019  0
C  C80  1  0.94458444  0.01999530  0.08549919  1  -0.23383  0  -0.021236  -0.081938  0  3.982157  0
C  C81  1  0.44458777  0.48001304  0.41450351  1  -0.233734  0  -0.021216  -0.082066  0  3.982441  0
C  C82  1  0.05539975  0.98001522  0.91450426  1  -0.233869  0  -0.021231  -0.082109  0  3.982415  0
C  C83  1  0.55541088  0.51999148  0.58549150  1  -0.234112  0  -0.021224  -0.081868  0  3.982234  0
C  C84  1  0.71853160  0.02981571  0.05933300  1  0.004151  0  -0.083922  -0.089992  0  3.960755  0
C  C85  1  0.21854010  0.47019066  0.44067185  1  0.00394  0  -0.083929  -0.089971  0  3.960921  0
C  C86  1  0.28145621  0.97019981  0.94067087  1  0.003538  0  -0.083869  -0.090012  0  3.960637  0
C  C87  1  0.78146578  0.52981033  0.55932507  1  0.004371  0  -0.083846  -0.090007  0  3.960681  0
C  C88  1  0.64499255  0.13384867  0.04512451  1  -0.082104  0  -0.075674  -0.078767  0  3.949973  0
C  C89  1  0.14500979  0.36615707  0.45488076  1  -0.081849  0  -0.075666  -0.078755  0  3.950074  0
C  C90  1  0.35500791  0.86616624  0.95487666  1  -0.081118  0  -0.075877  -0.079155  0  3.95028  0
C  C91  1  0.85500513  0.63384378  0.54511792  1  -0.081827  0  -0.07576  -0.078836  0  3.950126  0
C  C92  1  0.22231848  0.35125746  0.25754890  1  2.141029  0  0.36614  0.710827  0  4.126739  0
C  C93  1  0.72237213  0.14869621  0.24248292  1  2.141962  0  0.366259  0.710487  0  4.126136  0
C  C94  1  0.77763318  0.64874816  0.74242323  1  2.140341  0  0.366036  0.710375  0  4.127262  0
C  C95  1  0.27766809  0.85123730  0.75756671  1  2.140292  0  0.366117  0.710632  0  4.127213  0
S  S96  1  0.03552016  0.88575097  0.10278102  1  2.458819  0  0.499939  0.99735  0  5.664544  0
S  S97  1  0.53551184  0.61425562  0.39721944  1  2.458826  0  0.499881  0.997436  0  5.664673  0
S  S98  1  0.96447488  0.11425567  0.89721858  1  2.458906  0  0.499977  0.997513  0  5.66445  0
S  S99  1  0.46448501  0.38575030  0.60277877  1  2.458762  0  0.499945  0.997366  0  5.664604  0
O  O100  1  0.48686993  0.34877761  0.02839085  1  -1.212099  0  -0.344162  -0.611404  0  2.211092  0
O  O101  1  0.98690019  0.15121919  0.47160754  1  -1.211764  0  -0.344199  -0.611474  0  2.211051  0
O  O102  1  0.51313233  0.65121842  0.97160522  1  -1.212088  0  -0.344261  -0.611537  0  2.211142  0
O  O103  1  0.01312557  0.84877983  0.52839275  1  -1.212042  0  -0.3442  -0.611486  0  2.211174  0
O  O104  1  0.29568945  0.87562097  0.09693077  1  -1.295045  0  -0.289373  -0.502616  0  2.21237  0
O  O105  1  0.79568607  0.62437303  0.40305949  1  -1.294917  0  -0.289295  -0.502602  0  2.212468  0
O  O106  1  0.70430197  0.12439341  0.90306682  1  -1.295119  0  -0.289374  -0.502667  0  2.212231  0
O  O107  1  0.20431077  0.37562477  0.59693540  1  -1.294999  0  -0.289317  -0.502619  0  2.212413  0
O  O108  1  0.87981287  0.80478317  0.06820998  1  -1.334064  0  -0.328577  -0.567762  0  2.269665  0
O  O109  1  0.37982216  0.69522776  0.43179528  1  -1.334309  0  -0.328594  -0.567868  0  2.269864  0
O  O110  1  0.12020024  0.19522047  0.93178539  1  -1.334256  0  -0.328505  -0.567703  0  2.269731  0
O  O111  1  0.62018914  0.30477772  0.56820819  1  -1.334117  0  -0.328569  -0.567786  0  2.269729  0
O  O112  1  0.56715762  0.89955215  0.37791957  1  -1.21944  0  -0.368786  -0.639921  0  2.208079  0
O  O113  1  0.06715380  0.60045951  0.12207934  1  -1.219452  0  -0.3688  -0.639878  0  2.208164  0
O  O114  1  0.43283561  0.10045251  0.62207368  1  -1.219264  0  -0.368726  -0.639874  0  2.208213  0
O  O115  1  0.93281231  0.39954509  0.87792450  1  -1.219205  0  -0.368795  -0.639948  0  2.207976  0
O  O116  1  0.87290812  0.40885544  0.02743618  1  -1.237147  0  -0.395797  -0.688581  0  2.243126  0
O  O117  1  0.37294182  0.09115244  0.47256473  1  -1.236888  0  -0.395803  -0.688528  0  2.243077  0
O  O118  1  0.12709234  0.59115689  0.97256566  1  -1.236846  0  -0.395904  -0.688719  0  2.243033  0
O  O119  1  0.62708756  0.90884957  0.52743007  1  -1.236836  0  -0.395826  -0.68857  0  2.243026  0
O  O120  1  0.96619114  0.90492757  0.39956513  1  -1.231489  0  -0.383939  -0.647011  0  2.238439  0
O  O121  1  0.46619523  0.59506989  0.10043715  1  -1.231403  0  -0.383845  -0.646839  0  2.238499  0
O  O122  1  0.03379848  0.09504966  0.60043468  1  -1.231521  0  -0.384006  -0.647049  0  2.238517  0
O  O123  1  0.53377269  0.40494172  0.89956330  1  -1.231557  0  -0.383959  -0.647052  0  2.238383  0
O  O124  1  0.12108597  0.40070456  0.29773748  1  -1.079174  0  -0.158994  -0.333299  0  2.280546  0
O  O125  1  0.62102659  0.09924313  0.20229935  1  -1.079843  0  -0.159146  -0.333228  0  2.278904  0
O  O126  1  0.87890726  0.59931952  0.70223486  1  -1.079174  0  -0.158902  -0.332962  0  2.280801  0
O  O127  1  0.37894495  0.90069983  0.79775769  1  -1.079003  0  -0.158997  -0.333255  0  2.280009  0
O  O128  1  0.32272855  0.30096236  0.21729575  1  -1.086467  0  -0.174011  -0.355874  0  2.213671  0
O  O129  1  0.82286810  0.19897382  0.28271058  1  -1.086606  0  -0.173946  -0.355557  0  2.214685  0
O  O130  1  0.67719780  0.69902381  0.78267786  1  -1.08576  0  -0.173977  -0.35569  0  2.213881  0
O  O131  1  0.17727696  0.80094993  0.71732543  1  -1.085872  0  -0.173961  -0.355673  0  2.214744  0
