# generated using pymatgen
data_ZnH14C22(NO2)3
_symmetry_space_group_name_H-M   'P 1'
_cell_length_a   9.72260756
_cell_length_b   10.87289058
_cell_length_c   19.25149316
_cell_angle_alpha   91.61342299
_cell_angle_beta   90.20242662
_cell_angle_gamma   94.54792789
_symmetry_Int_Tables_number   1
_chemical_formula_structural   ZnH14C22(NO2)3
_chemical_formula_sum   'Zn2 H28 C44 N6 O12'
_cell_volume   2027.88402748
_cell_formula_units_Z   2
loop_
 _symmetry_equiv_pos_site_id
 _symmetry_equiv_pos_as_xyz
  1  'x, y, z'
loop_
 _atom_site_type_symbol
 _atom_site_label
 _atom_site_symmetry_multiplicity
 _atom_site_fract_x
 _atom_site_fract_y
 _atom_site_fract_z
 _atom_site_occupancy
 _atom_site_pbe_bader_charge
 _atom_site_pbe_bader_spin_density
 _atom_site_pbe_cm5_charge
 _atom_site_pbe_ddec_charge
 _atom_site_pbe_ddec_spin_density
 _atom_site_pbe_ddec_sum_bond_order
 _atom_site_pbe_magmom
Zn  Zn0  1  0.63818574  0.50488259  0.49902009  1  1.298656  0  0.677973  0.870463  0  2.395516  0
Zn  Zn1  1  0.34674819  0.51330959  0.49413078  1  1.293005  0  0.673642  0.864615  0  2.423874  0
H  H2  1  0.70958541  0.57050772  0.28092855  1  0.092312  0  0.109061  0.114404  0  0.986056  0
H  H3  1  0.32681210  0.37318381  0.71031907  1  0.093853  0  0.105604  0.112396  0  0.993688  0
H  H4  1  0.34003001  0.34536675  0.83884646  1  0.088135  0  0.105666  0.104809  0  1.01361  0
H  H5  1  0.28735315  0.95233490  0.61142127  1  0.624767  0  0.346064  0.378728  0  0.851677  0
H  H6  1  0.33843140  0.71432124  0.32993730  1  0.594207  0  0.336993  0.381109  0  0.860871  0
H  H7  1  0.06552384  0.47214301  0.67181092  1  0.077304  0  0.105431  0.104315  0  1.010509  0
H  H8  1  0.99754055  0.39619853  0.78778209  1  0.076362  0  0.107144  0.105206  0  0.9853  0
H  H9  1  0.77717512  0.26612057  0.80204957  1  0.063963  0  0.109313  0.10334  0  0.978633  0
H  H10  1  0.62527222  0.21108368  0.69887509  1  0.123877  0  0.107649  0.117149  0  1.004495  0
H  H11  1  0.68988342  0.28985562  0.58377520  1  0.141708  0  0.10584  0.11488  0  1.051342  0
H  H12  1  0.85859493  0.64673037  0.76835343  1  0.067065  0  0.097241  0.096801  0  1.015231  0
H  H13  1  0.62879643  0.93995670  0.50436171  1  0.091917  0  0.113497  0.134686  0  0.990099  0
H  H14  1  0.00533802  0.82814159  0.72879057  1  0.05755  0  0.095867  0.089796  0  1.000938  0
H  H15  1  0.90204694  0.98854563  0.65913234  1  0.054603  0  0.097383  0.092983  0  1.003884  0
H  H16  1  0.65188462  0.96416133  0.62923405  1  0.061406  0  0.094998  0.090889  0  1.028242  0
H  H17  1  0.50699468  0.78006614  0.66634966  1  0.062198  0  0.097101  0.096322  0  1.003417  0
H  H18  1  0.67438059  0.19444741  0.39626746  1  0.08275  0  0.101511  0.108849  0  0.998551  0
H  H19  1  0.73189159  0.26656835  0.27767744  1  0.028434  0  0.100318  0.095557  0  0.993638  0
H  H20  1  0.56160171  0.22664029  0.18116801  1  0.063191  0  0.098737  0.095086  0  1.001543  0
H  H21  1  0.33201184  0.11802919  0.20442279  1  0.069993  0  0.102237  0.098317  0  0.991097  0
H  H22  1  0.27487612  0.04509276  0.32280614  1  0.082228  0  0.102963  0.110962  0  0.998119  0
H  H23  1  0.89076538  0.49125497  0.45936627  1  0.424741  0  0.311451  0.285198  0  0.925003  0
H  H24  1  0.13341197  0.37471915  0.56024847  1  0.172289  0  0.1384  0.116297  0  0.968866  0
H  H25  1  0.08381082  0.59952322  0.48643343  1  0.436565  0  0.322307  0.300106  0  0.899193  0
H  H26  1  0.72092399  0.56201542  0.15069503  1  0.076145  0  0.106897  0.105181  0  1.011507  0
H  H27  1  0.29342023  0.42434782  0.14155223  1  0.106251  0  0.106763  0.106455  0  1.005669  0
H  H28  1  0.28194860  0.43868762  0.27155590  1  0.087455  0  0.106399  0.112746  0  0.990998  0
H  H29  1  0.66394777  0.63864839  0.85269320  1  0.069542  0  0.105851  0.107375  0  1.021909  0
C  C30  1  0.55092105  0.74424048  0.48907626  1  1.581983  0  0.210956  0.642624  0  4.1791  0
C  C31  1  0.50517714  0.48888307  0.85335203  1  0.002212  0  -0.009419  0.016777  0  4.02986  0
C  C32  1  0.44298586  0.06069504  0.43657897  1  0.075536  0  0.021018  0.077073  0  3.929705  0
C  C33  1  0.49117998  0.50262242  0.36126473  1  1.552374  0  0.21733  0.593069  0  4.173552  0
C  C34  1  0.42255941  0.12876871  0.49494892  1  -0.064587  0  -0.011622  -0.216197  0  3.858981  0
C  C35  1  0.45036603  0.92571381  0.44004764  1  -0.009996  0  0.004349  -0.015638  0  3.923221  0
C  C36  1  0.54874268  0.87897659  0.47847782  1  0.007972  0  -0.080612  -0.234801  0  3.840308  0
C  C37  1  0.92221200  0.43697119  0.55263483  1  0.671529  0  0.177813  0.280318  0  3.939662  0
C  C38  1  0.07370795  0.44654009  0.53916488  1  0.689354  0  0.119662  0.145552  0  3.840082  0
C  C39  1  0.43507322  0.26808200  0.49548034  1  1.646973  0  0.222243  0.632027  0  4.179498  0
C  C40  1  0.48321609  0.52045209  0.63178435  1  1.538793  0  0.217242  0.595485  0  4.179385  0
C  C41  1  0.49567290  0.50370962  0.28356588  1  0.056644  0  -0.009056  -0.019183  0  3.95157  0
C  C42  1  0.61909360  0.53972841  0.24966686  1  -0.029352  0  -0.076892  -0.081295  0  3.963068  0
C  C43  1  0.62543201  0.53493409  0.17761338  1  -0.004603  0  -0.079135  -0.105189  0  3.958849  0
C  C44  1  0.50840284  0.49102690  0.13836742  1  -0.037594  0  -0.005432  0.013182  0  4.011179  0
C  C45  1  0.38361485  0.45810305  0.17231293  1  -0.062495  0  -0.08046  -0.108306  0  3.975408  0
C  C46  1  0.37724338  0.46580811  0.24441434  1  -0.03543  0  -0.082649  -0.095841  0  3.977925  0
C  C47  1  0.39200312  0.07740802  0.56457518  1  1.49699  0  0.231144  0.596303  0  4.135646  0
C  C48  1  0.34650127  0.84270322  0.39907380  1  1.512423  0  0.234768  0.59512  0  4.113623  0
C  C49  1  0.88007422  0.38866659  0.62018282  1  -0.009105  0  -0.013896  0.001288  0  4.004843  0
C  C50  1  0.96847549  0.41561336  0.67781034  1  -0.132256  0  -0.081581  -0.118925  0  3.975145  0
C  C51  1  0.93036262  0.37300829  0.74305991  1  -0.006565  0  -0.087342  -0.086658  0  4.019729  0
C  C52  1  0.51669794  0.47348486  0.92842294  1  0.916882  0  0.23877  0.249947  0  3.989812  0
C  C53  1  0.80650248  0.30004149  0.75096289  1  -0.052734  0  -0.070171  -0.050897  0  3.971497  0
C  C54  1  0.72082269  0.26944519  0.69357351  1  -0.020281  0  -0.081342  -0.078258  0  3.968721  0
C  C55  1  0.75652650  0.31411886  0.62845841  1  -0.00501  0  -0.07035  -0.070017  0  3.89975  0
C  C56  1  0.67262779  0.70088981  0.72033689  1  -0.056529  0  -0.006992  0.078004  0  3.987065  0
C  C57  1  0.81351966  0.71616274  0.73752150  1  0.036254  0  -0.093403  -0.129981  0  3.975389  0
C  C58  1  0.89596555  0.81809989  0.71494934  1  -0.106864  0  -0.099511  -0.091267  0  4.057926  0
C  C59  1  0.83852033  0.90755667  0.67574486  1  -0.083478  0  -0.0981  -0.091653  0  4.034957  0
C  C60  1  0.69834340  0.89337611  0.65842651  1  -0.027793  0  -0.094778  -0.078158  0  4.023196  0
C  C61  1  0.61652733  0.79034508  0.67989233  1  -0.0155  0  -0.090966  -0.119617  0  3.959423  0
C  C62  1  0.47185162  0.11393405  0.36710776  1  -0.057321  0  -0.012493  0.062621  0  3.988492  0
C  C63  1  0.51756520  0.47586644  0.06268300  1  0.957027  0  0.238226  0.245671  0  3.995132  0
C  C64  1  0.60018301  0.17701962  0.35391604  1  -0.011741  0  -0.089965  -0.119318  0  3.961556  0
C  C65  1  0.63210222  0.21702072  0.28723040  1  -0.058359  0  -0.092502  -0.078302  0  4.036153  0
C  C66  1  0.53660167  0.19482397  0.23316531  1  -0.042347  0  -0.093853  -0.087009  0  4.031175  0
C  C67  1  0.40787738  0.13378832  0.24624267  1  -0.023954  0  -0.093283  -0.08098  0  4.040532  0
C  C68  1  0.37542911  0.09290256  0.31271899  1  -0.047532  0  -0.093018  -0.135239  0  3.97433  0
C  C69  1  0.59132430  0.57945416  0.82097351  1  -0.015353  0  -0.078265  -0.155445  0  3.928781  0
C  C70  1  0.58380027  0.59771699  0.74939987  1  0.005579  0  0.005368  0.06138  0  3.951272  0
C  C71  1  0.48747632  0.52054816  0.70971132  1  -0.044851  0  -0.004505  -0.055617  0  3.897453  0
C  C72  1  0.39918946  0.43187509  0.74243781  1  0.034729  0  -0.083716  -0.09187  0  3.987406  0
C  C73  1  0.40704289  0.41541202  0.81355823  1  -0.02306  0  -0.084856  -0.1121  0  3.9795  0
N  N74  1  0.41898075  0.40113355  0.02897572  1  -0.564103  0  -0.160223  -0.15614  0  3.216926  0
N  N75  1  0.41781354  0.40164093  0.96063026  1  -0.556692  0  -0.158833  -0.151712  0  3.226309  0
N  N76  1  0.63225279  0.52263422  0.96186042  1  -0.481001  0  -0.160552  -0.154778  0  3.212896  0
N  N77  1  0.63138211  0.52521939  0.03021471  1  -0.631367  0  -0.15679  -0.147618  0  3.225207  0
N  N78  1  0.83944067  0.46646345  0.50396490  1  -1.185278  0  -0.453437  -0.460384  0  3.20208  0
N  N79  1  0.13942685  0.52996012  0.50408002  1  -1.210479  0  -0.440419  -0.38955  0  3.248049  0
O  O80  1  0.66556177  0.69650881  0.49022561  1  -1.144617  0  -0.316082  -0.527525  0  2.212676  0
O  O81  1  0.29634402  0.97958477  0.56342543  1  -1.121684  0  -0.32281  -0.461508  0  2.246748  0
O  O82  1  0.22171666  0.84001350  0.40664051  1  -1.095935  0  -0.300521  -0.491556  0  2.045495  0
O  O83  1  0.40924869  0.77368215  0.35078559  1  -1.087887  0  -0.329952  -0.480871  0  2.256929  0
O  O84  1  0.43163115  0.68833434  0.49754059  1  -1.168535  0  -0.320979  -0.571693  0  2.367825  0
O  O85  1  0.60539913  0.49939050  0.39333046  1  -1.161873  0  -0.313651  -0.547714  0  2.323931  0
O  O86  1  0.37214660  0.50466219  0.38888266  1  -1.170525  0  -0.322414  -0.561593  0  2.327852  0
O  O87  1  0.55646495  0.31955213  0.49923927  1  -1.168375  0  -0.298213  -0.550947  0  2.365843  0
O  O88  1  0.32366835  0.32098435  0.49324358  1  -1.160927  0  -0.310413  -0.538848  0  2.280903  0
O  O89  1  0.59923516  0.53027059  0.60139371  1  -1.150414  0  -0.302949  -0.538093  0  2.390881  0
O  O90  1  0.36547473  0.50519065  0.60235343  1  -1.160241  0  -0.32039  -0.565298  0  2.314118  0
O  O91  1  0.44391056  0.12229882  0.61869707  1  -1.141103  0  -0.290392  -0.497876  0  2.092171  0
