# generated using pymatgen
data_CuH14C14N6O7
_symmetry_space_group_name_H-M   'P 1'
_cell_length_a   7.26105181
_cell_length_b   11.56780016
_cell_length_c   11.83310536
_cell_angle_alpha   119.26183620
_cell_angle_beta   95.92546706
_cell_angle_gamma   89.99926250
_symmetry_Int_Tables_number   1
_chemical_formula_structural   CuH14C14N6O7
_chemical_formula_sum   'Cu2 H28 C28 N12 O14'
_cell_volume   860.99451365
_cell_formula_units_Z   2
loop_
 _symmetry_equiv_pos_site_id
 _symmetry_equiv_pos_as_xyz
  1  'x, y, z'
loop_
 _atom_site_type_symbol
 _atom_site_label
 _atom_site_symmetry_multiplicity
 _atom_site_fract_x
 _atom_site_fract_y
 _atom_site_fract_z
 _atom_site_occupancy
 _atom_site_hle17_ddec_charge
 _atom_site_hle17_ddec_spin_density
 _atom_site_hle17_ddec_sum_bond_order
 _atom_site_hle17_magmom
 _atom_site_hse06_10hf_ddec_charge
 _atom_site_hse06_10hf_ddec_spin_density
 _atom_site_hse06_10hf_ddec_sum_bond_order
 _atom_site_hse06_10hf_magmom
 _atom_site_hse06_ddec_charge
 _atom_site_hse06_ddec_spin_density
 _atom_site_hse06_ddec_sum_bond_order
 _atom_site_hse06_magmom
 _atom_site_pbe_cm5_charge
 _atom_site_pbe_ddec_charge
 _atom_site_pbe_ddec_spin_density
 _atom_site_pbe_ddec_sum_bond_order
 _atom_site_pbe_magmom
Cu  Cu0  1  0.49999768  0.99999926  0.00000045  1  0.792635  0.574776  1.870795  0.416  0.78683  0.722373  2.257449  0.575  0.87332  0.827566  2.196449  0.676  0.762876  0.734396  0.615024  2.300777  0.483
Cu  Cu1  1  0.99999801  0.00000012  0.00000066  1  0.792754  -0.574789  1.870663  -0.416  0.786936  -0.722369  2.257283  -0.575  0.873389  -0.827563  2.196293  -0.676  0.762891  0.734488  -0.615022  2.300598  -0.483
H  H2  1  0.52335445  0.29566028  0.17235883  1  0.086251  0.000669  0.945291  0.001  0.094079  0.00054  1.008583  0.001  0.095222  0.000393  1.007956  0.001  0.12596  0.092832  0.000617  1.009521  0.001
H  H3  1  0.97662758  0.12330822  0.82765110  1  0.086293  -0.000668  0.945196  -0.001  0.0941  -0.00054  1.008523  -0.001  0.095245  -0.000393  1.00789  -0.001  0.125958  0.092851  -0.000617  1.009459  -0.001
H  H4  1  0.47664386  0.70433773  0.82763938  1  0.086257  0.000664  0.945244  0.001  0.094087  0.00054  1.008539  0.001  0.09523  0.000393  1.007911  0.001  0.125952  0.092836  0.000617  1.009475  0.001
H  H5  1  0.02336669  0.87669180  0.17235202  1  0.086296  -0.000667  0.945229  -0.001  0.094104  -0.00054  1.008558  -0.001  0.095249  -0.000393  1.007925  -0.001  0.125943  0.092856  -0.000617  1.009493  -0.001
H  H6  1  0.64034458  0.45447978  0.40325281  1  0.116991  0.000332  0.946325  0.0  0.124882  0.000387  1.008586  0.0  0.128636  0.000294  1.006316  0.0  0.114424  0.122105  0.00043  1.010445  0.0
H  H7  1  0.85964245  0.05123059  0.59675551  1  0.116985  -0.000333  0.946302  0.0  0.124855  -0.000387  1.008592  0.0  0.128598  -0.000294  1.006351  0.0  0.114439  0.122079  -0.00043  1.01044  0.0
H  H8  1  0.35965243  0.54551923  0.59674579  1  0.116997  0.000331  0.946316  0.0  0.124873  0.000387  1.008596  0.0  0.128626  0.000294  1.00633  0.0  0.114431  0.122098  0.00043  1.010447  0.0
H  H9  1  0.14035608  0.94877041  0.40324667  1  0.117002  -0.000332  0.946241  0.0  0.124886  -0.000387  1.008523  0.0  0.128631  -0.000294  1.006275  0.0  0.11443  0.122108  -0.00043  1.010374  0.0
H  H10  1  0.73564190  0.11645116  0.46009351  1  0.114666  0.000335  0.968879  0.0  0.119259  0.00038  1.038548  0.0  0.123009  0.00028  1.036226  0.0  0.110192  0.116496  0.000428  1.040418  0.001
H  H11  1  0.76436619  0.65635722  0.53990429  1  0.114648  -0.000334  0.968914  0.0  0.119244  -0.00038  1.038584  0.0  0.122993  -0.00028  1.036262  0.0  0.110182  0.116482  -0.000428  1.040457  -0.001
H  H12  1  0.26435943  0.88354982  0.53990716  1  0.114696  0.000335  0.968868  0.0  0.119308  0.00038  1.038511  0.0  0.123062  0.00028  1.036187  0.0  0.110204  0.116545  0.000428  1.040382  0.001
H  H13  1  0.23563637  0.34364177  0.46009383  1  0.114628  -0.000335  0.968932  0.0  0.119238  -0.00038  1.038589  0.0  0.122992  -0.00028  1.036264  0.0  0.110168  0.116476  -0.000428  1.040462  -0.001
H  H14  1  0.61180427  0.97194459  0.22956736  1  0.107728  0.000807  0.950762  0.001  0.1159  0.000707  1.011274  0.001  0.118777  0.000545  1.007612  0.001  0.124823  0.113501  0.000773  1.01415  0.001
H  H15  1  0.88819708  0.74237597  0.77042797  1  0.107732  -0.00081  0.950782  -0.001  0.115904  -0.000707  1.011294  -0.001  0.11878  -0.000545  1.007631  -0.001  0.124816  0.113502  -0.000773  1.01417  -0.001
H  H16  1  0.38819697  0.02805540  0.77043284  1  0.107733  0.000808  0.950752  0.001  0.11591  0.000707  1.011257  0.001  0.118787  0.000545  1.007595  0.001  0.124821  0.11351  0.000773  1.014132  0.001
H  H17  1  0.11180134  0.25762303  0.22956902  1  0.107759  -0.00081  0.950726  -0.001  0.115922  -0.000707  1.011243  -0.001  0.118799  -0.000545  1.00758  -0.001  0.124824  0.113522  -0.000773  1.014121  -0.001
H  H18  1  0.06850806  0.47434625  0.78269306  1  0.102495  -2.3e-05  0.9429  0.0  0.115999  -1.5e-05  1.009768  0.0  0.116922  -1.3e-05  1.008326  0.0  0.101405  0.115248  -1.5e-05  1.010835  0.0
H  H19  1  0.43151613  0.69165145  0.21730405  1  0.102627  2e-05  0.942799  0.0  0.116141  1.5e-05  1.009664  0.0  0.117068  1.3e-05  1.008215  0.0  0.101469  0.115392  1.5e-05  1.010731  0.0
H  H20  1  0.93149327  0.52565473  0.21730677  1  0.102508  -1.9e-05  0.942866  0.0  0.116013  -1.5e-05  1.009732  0.0  0.116937  -1.3e-05  1.008288  0.0  0.101411  0.115265  -1.5e-05  1.0108  0.0
H  H21  1  0.56848799  0.30834952  0.78269512  1  0.102618  2.1e-05  0.942773  0.0  0.116133  1.5e-05  1.009645  0.0  0.11706  1.3e-05  1.008194  0.0  0.101477  0.115383  1.5e-05  1.010711  0.0
H  H22  1  0.97872797  0.35752651  0.82581870  1  0.10405  -2.6e-05  0.931172  0.0  0.121231  -2.8e-05  0.993925  0.0  0.121792  -2.4e-05  0.993329  0.0  0.105538  0.120623  -2.6e-05  0.994613  0.0
H  H23  1  0.52130102  0.53170477  0.17417693  1  0.104071  2.5e-05  0.931203  0.0  0.121282  2.8e-05  0.993932  0.0  0.121844  2.4e-05  0.993334  0.0  0.105534  0.120673  2.6e-05  0.994618  0.0
H  H24  1  0.02127188  0.64247348  0.17418140  1  0.104051  -2.4e-05  0.931175  0.0  0.121235  -2.8e-05  0.993924  0.0  0.121796  -2.4e-05  0.993329  0.0  0.105537  0.120628  -2.6e-05  0.994612  0.0
H  H25  1  0.47870170  0.46829620  0.82582299  1  0.104025  2.6e-05  0.931199  0.0  0.121245  2.8e-05  0.993933  0.0  0.121807  2.4e-05  0.993335  0.0  0.105523  0.120637  2.6e-05  0.99462  0.0
H  H26  1  0.84687156  0.49475935  0.83991681  1  0.099367  -8.1e-05  0.971824  0.0  0.11218  -8.4e-05  1.045279  0.0  0.113016  -6.3e-05  1.04427  0.0  0.103251  0.111385  -9.6e-05  1.046266  0.0
H  H27  1  0.65315252  0.65483938  0.16008330  1  0.099335  7.7e-05  0.971952  0.0  0.112211  8.4e-05  1.045359  0.0  0.113046  6.3e-05  1.044351  0.0  0.10328  0.111419  9.5e-05  1.046346  0.0
H  H28  1  0.15312979  0.50524163  0.16008217  1  0.099369  -7.6e-05  0.971805  0.0  0.112182  -8.4e-05  1.045262  0.0  0.113018  -6.3e-05  1.044253  0.0  0.103261  0.111389  -9.6e-05  1.046251  0.0
H  H29  1  0.34685012  0.34516060  0.83991615  1  0.099283  8.2e-05  0.971944  0.0  0.112179  8.4e-05  1.045348  0.0  0.113014  6.3e-05  1.044338  0.0  0.103252  0.111384  9.5e-05  1.046338  0.0
C  C30  1  0.57303295  0.25984155  0.23896390  1  0.141752  -0.00636  3.66442  -0.007  0.113429  -0.000571  3.919021  -0.001  0.122057  -0.00174  3.937445  -0.003  0.052439  0.107651  0.000284  3.907378  0.0
C  C31  1  0.92695259  0.02088343  0.76104454  1  0.141655  0.006352  3.664515  0.007  0.113367  0.000571  3.919069  0.001  0.121997  0.001739  3.93749  0.003  0.052409  0.107586  -0.000284  3.907418  0.0
C  C32  1  0.42696544  0.74015745  0.76103479  1  0.141829  -0.006342  3.664359  -0.007  0.113509  -0.000571  3.918957  -0.001  0.122136  -0.00174  3.937381  -0.003  0.05248  0.10773  0.000284  3.907308  0.0
C  C33  1  0.07304178  0.97911758  0.23895735  1  0.141617  0.006354  3.664509  0.007  0.113324  0.000571  3.919084  0.001  0.121952  0.00174  3.937506  0.003  0.052406  0.107545  -0.000285  3.907435  0.0
C  C34  1  0.63868555  0.34824363  0.36795612  1  -0.100785  0.00913  3.671548  0.01  -0.122922  0.003831  3.917316  0.005  -0.128056  0.003781  3.935964  0.004  -0.068333  -0.119642  0.003627  3.905166  0.004
C  C35  1  0.86130268  0.98029319  0.63205312  1  -0.100771  -0.009125  3.671725  -0.01  -0.122895  -0.003831  3.917482  -0.005  -0.12803  -0.00378  3.936125  -0.004  -0.068355  -0.119615  -0.003626  3.905325  -0.004
C  C36  1  0.36131153  0.65175637  0.63204379  1  -0.100813  0.009126  3.671588  0.01  -0.122944  0.003831  3.917362  0.005  -0.128077  0.003781  3.936009  0.004  -0.068353  -0.119666  0.003627  3.90521  0.004
C  C37  1  0.13869448  0.01970781  0.36794812  1  -0.100748  -0.009128  3.671693  -0.01  -0.122896  -0.003831  3.917463  -0.005  -0.12803  -0.003781  3.936105  -0.004  -0.068343  -0.119612  -0.003626  3.905305  -0.004
C  C38  1  0.70175751  0.29858778  0.45062729  1  -0.017566  -0.007341  3.761632  -0.007  -0.003865  -0.002478  4.002294  -0.003  -0.0056  -0.002853  4.021908  -0.003  0.002826  -0.002858  -0.002087  3.989232  -0.002
C  C39  1  0.79824285  0.84796237  0.54937693  1  -0.017575  0.00734  3.761737  0.007  -0.003868  0.00248  4.002408  0.003  -0.005596  0.002852  4.022019  0.003  0.002845  -0.002867  0.002088  3.989342  0.002
C  C40  1  0.29824104  0.70141321  0.54937320  1  -0.017568  -0.007341  3.76167  -0.007  -0.003868  -0.002479  4.002306  -0.003  -0.005604  -0.002853  4.021919  -0.003  0.002825  -0.002867  -0.002087  3.989246  -0.002
C  C41  1  0.20175840  0.15203762  0.45062242  1  -0.017614  0.007339  3.761774  0.007  -0.003894  0.00248  4.002457  0.003  -0.005622  0.002853  4.022071  0.003  0.002857  -0.002888  0.002088  3.98939  0.002
C  C42  1  0.69112722  0.16132414  0.40069140  1  -0.111369  0.008838  3.695395  0.009  -0.140083  0.003664  3.954317  0.004  -0.145342  0.003627  3.974077  0.004  -0.07599  -0.136612  0.003493  3.941164  0.004
C  C43  1  0.80887437  0.76063308  0.59930926  1  -0.111326  -0.00884  3.695512  -0.009  -0.140033  -0.003665  3.954405  -0.004  -0.14529  -0.003627  3.974164  -0.004  -0.075988  -0.136567  -0.003492  3.941251  -0.004
C  C44  1  0.30887265  0.83867586  0.59930786  1  -0.111434  0.008836  3.695441  0.009  -0.140152  0.003665  3.954339  0.004  -0.145416  0.003627  3.974103  0.004  -0.076018  -0.136684  0.003493  3.941186  0.004
C  C45  1  0.19112542  0.23936592  0.40068867  1  -0.111293  -0.008836  3.695451  -0.009  -0.140019  -0.003664  3.954325  -0.004  -0.145281  -0.003627  3.974088  -0.004  -0.075988  -0.13655  -0.003492  3.941172  -0.004
C  C46  1  0.62299698  0.07905601  0.27063071  1  0.136713  -0.006664  3.637513  -0.007  0.10903  -0.000905  3.889064  -0.002  0.117678  -0.002033  3.906927  -0.003  0.050973  0.103512  -7.3e-05  3.877408  -0.001
C  C47  1  0.87700281  0.80842507  0.72936884  1  0.136673  0.00667  3.637528  0.007  0.10899  0.000906  3.889078  0.002  0.11764  0.002032  3.906935  0.003  0.050955  0.103469  7.3e-05  3.877416  0.001
C  C48  1  0.37700427  0.92094398  0.72936864  1  0.136741  -0.006665  3.637501  -0.007  0.109046  -0.000906  3.889067  -0.002  0.117695  -0.002033  3.90693  -0.003  0.050985  0.103525  -7.3e-05  3.877407  -0.001
C  C49  1  0.12299697  0.19157393  0.27062994  1  0.136621  0.006668  3.637449  0.007  0.10897  0.000906  3.888962  0.002  0.11762  0.002033  3.906821  0.003  0.050975  0.103452  7.3e-05  3.877308  0.001
C  C50  1  0.77748501  0.39413629  0.58835599  1  0.576407  0.000416  3.811405  0.001  0.529357  9.7e-05  4.100825  0.0  0.562235  9.2e-05  4.0918  0.0  0.236949  0.506919  9.3e-05  4.106671  0.0
C  C51  1  0.72252654  0.80578367  0.41164190  1  0.576515  -0.000415  3.811445  -0.001  0.529413  -9.6e-05  4.100955  0.0  0.562289  -9.2e-05  4.091938  0.0  0.237031  0.506977  -9.3e-05  4.106798  0.0
C  C52  1  0.22251486  0.60586371  0.41164327  1  0.576386  0.000419  3.811367  0.001  0.529374  9.7e-05  4.100736  0.0  0.562256  9.2e-05  4.091705  0.0  0.236975  0.50694  9.3e-05  4.106582  0.0
C  C53  1  0.27747629  0.19421829  0.58835681  1  0.576477  -0.000418  3.811479  -0.001  0.529347  -9.6e-05  4.101005  0.0  0.562217  -9.2e-05  4.091996  0.0  0.236999  0.506908  -9.3e-05  4.106848  0.0
C  C54  1  0.94405089  0.42189983  0.78418500  1  -0.073381  -2.2e-05  3.557598  0.0  -0.173192  -6.5e-05  3.823827  0.0  -0.164719  -4.7e-05  3.825517  0.0  -0.143864  -0.178865  -7.3e-05  3.822971  0.0
C  C55  1  0.55597452  0.63771306  0.21581298  1  -0.073573  3.5e-05  3.557613  0.0  -0.173476  6.4e-05  3.823791  0.0  -0.164998  4.7e-05  3.825483  0.0  -0.143998  -0.179146  7.3e-05  3.822938  0.0
C  C56  1  0.05595174  0.57810015  0.21581444  1  -0.073418  -4.1e-05  3.557558  0.0  -0.17323  -6.5e-05  3.82378  0.0  -0.164756  -4.7e-05  3.825467  0.0  -0.143878  -0.178903  -7.3e-05  3.822928  0.0
C  C57  1  0.44402828  0.36228891  0.78418742  1  -0.073436  2.3e-05  3.55751  0.0  -0.173389  6.5e-05  3.82368  0.0  -0.16491  4.7e-05  3.82537  0.0  -0.143951  -0.179061  7.3e-05  3.822827  0.0
N  N58  1  0.74999451  0.91332151  0.99999737  1  -0.521557  -4e-06  2.862211  0.0  -0.584089  -3e-06  3.27274  0.0  -0.637547  -3e-06  3.290994  0.0  -0.33734  -0.551046  -2e-06  3.261987  0.0
N  N59  1  0.25000376  0.08667651  0.00000338  1  -0.521623  2e-06  2.862109  0.0  -0.584153  -2e-06  3.27264  0.0  -0.637612  -2e-06  3.29089  0.0  -0.337361  -0.551115  -1e-06  3.261902  0.0
N  N60  1  0.74999939  0.80801889  0.99999928  1  0.373294  7e-06  4.123731  0.0  0.415859  0.0  4.453644  0.0  0.436504  1e-06  4.489683  0.0  0.084552  0.402811  -0.0  4.4286  0.0
N  N61  1  0.24999899  0.19198012  0.00000025  1  0.37332  1e-06  4.123608  0.0  0.415879  0.0  4.45352  0.0  0.436525  1e-06  4.489553  0.0  0.084529  0.402831  0.0  4.428478  0.0
N  N62  1  0.75000925  0.70764242  0.00000168  1  -0.249609  -8e-06  2.352684  0.0  -0.276557  -2e-06  2.596172  0.0  -0.28841  -0.0  2.60851  0.0  -0.12079  -0.26838  1e-06  2.587378  0.0
N  N63  1  0.24998895  0.29235461  0.99999689  1  -0.24955  7e-06  2.352675  0.0  -0.276493  -1e-06  2.596159  0.0  -0.288344  1e-06  2.608494  0.0  -0.120717  -0.268314  2e-06  2.587362  0.0
N  N64  1  0.25000694  0.75977799  0.99999943  1  0.678837  1.2e-05  4.188211  0.0  0.715176  -3e-06  4.487265  0.0  0.744028  -1e-06  4.491554  0.0  0.088016  0.695351  0.0  4.48349  0.0
N  N65  1  0.74999290  0.24022201  0.00000152  1  0.678788  -2e-06  4.18837  0.0  0.715029  -1e-06  4.487533  0.0  0.743869  0.0  4.491851  0.0  0.08801  0.695205  0.0  4.483758  0.0
N  N66  1  0.56730581  0.12753005  0.19066648  1  -0.278602  0.065573  3.329633  0.082  -0.22455  0.050937  3.610149  0.068  -0.254374  0.044578  3.634062  0.062  -0.338235  -0.206894  0.050579  3.596162  0.066
N  N67  1  0.93268774  0.93686712  0.80933949  1  -0.278561  -0.065563  3.329672  -0.082  -0.224531  -0.050934  3.610209  -0.068  -0.254349  -0.044574  3.63411  -0.062  -0.338238  -0.206871  -0.050578  3.5962  -0.066
N  N68  1  0.43269257  0.87246895  0.80933305  1  -0.278662  0.065565  3.329623  0.082  -0.224613  0.050936  3.610159  0.068  -0.254438  0.044577  3.634073  0.062  -0.338249  -0.206955  0.050582  3.596163  0.066
N  N69  1  0.06730933  0.06313289  0.19066128  1  -0.27853  -0.065566  3.32962  -0.082  -0.224503  -0.050934  3.610135  -0.068  -0.254319  -0.044575  3.634036  -0.062  -0.338238  -0.206845  -0.050576  3.596134  -0.066
O  O70  1  0.12186673  0.78175985  0.93161306  1  -0.515982  0.001094  1.848745  0.0  -0.520162  0.00048  2.107456  0.0  -0.53756  0.000657  2.09936  0.0  -0.214851  -0.507008  3.5e-05  2.112612  -0.001
O  O71  1  0.37815314  0.85014290  0.06838441  1  -0.515903  -0.001098  1.848599  0.0  -0.52009  -0.00048  2.107293  0.0  -0.537495  -0.000657  2.099199  0.0  -0.214721  -0.506942  -3.8e-05  2.11246  0.001
O  O72  1  0.87813326  0.21824214  0.06839054  1  -0.515955  0.001099  1.848728  0.0  -0.520104  0.000481  2.107471  0.0  -0.537499  0.000656  2.099382  0.0  -0.21485  -0.506949  3.5e-05  2.11263  -0.001
O  O73  1  0.62184806  0.14985709  0.93161833  1  -0.515918  -0.001099  1.848751  0.0  -0.520048  -0.000482  2.107436  0.0  -0.537449  -0.000657  2.09935  0.0  -0.214723  -0.506897  -3.8e-05  2.112599  0.001
O  O74  1  0.25000218  0.65138836  0.00000378  1  -0.441813  -1e-05  1.722271  0.0  -0.423476  -0.0  1.919822  0.0  -0.435007  0.0  1.914266  0.0  -0.180544  -0.413889  -2e-06  1.922843  0.0
O  O75  1  0.74999897  0.34861063  0.99999594  1  -0.441782  -2e-06  1.722324  0.0  -0.423424  -0.0  1.919916  0.0  -0.434949  -0.0  1.914367  0.0  -0.180531  -0.413835  -2e-06  1.922936  0.0
O  O76  1  0.76657241  0.51453310  0.63713546  1  -0.513521  -0.000963  1.96029  -0.001  -0.470149  -0.000362  2.176716  -0.001  -0.490263  -0.000417  2.170716  -0.001  -0.26576  -0.45643  -0.00031  2.180745  0.0
O  O77  1  0.73344125  0.87739570  0.36286916  1  -0.513495  0.000962  1.960542  0.001  -0.470108  0.000358  2.177015  0.001  -0.490212  0.00042  2.171009  0.001  -0.265768  -0.456394  0.000311  2.181044  0.0
O  O78  1  0.23342876  0.48546590  0.36286257  1  -0.513463  -0.000965  1.960212  -0.001  -0.470144  -0.000361  2.176662  -0.001  -0.490262  -0.000418  2.170664  -0.001  -0.265769  -0.456425  -0.000311  2.180691  0.0
O  O79  1  0.26656287  0.12260526  0.63713001  1  -0.513431  0.000965  1.960442  0.001  -0.470073  0.000358  2.176957  0.001  -0.49018  0.00042  2.170964  0.001  -0.265754  -0.456357  0.000311  2.180986  0.0
O  O80  1  0.85956727  0.33357530  0.65080467  1  -0.2912  -0.000195  2.294686  0.0  -0.21736  -8e-05  2.53778  0.0  -0.239932  -7.4e-05  2.537688  0.0  -0.170199  -0.201639  -7.9e-05  2.537316  0.0
O  O81  1  0.64045622  0.68276724  0.34919289  1  -0.291196  0.000193  2.29448  0.0  -0.217362  8.3e-05  2.537647  0.0  -0.23995  7.2e-05  2.537571  0.0  -0.170191  -0.201641  7.9e-05  2.537184  0.0
O  O82  1  0.14043398  0.66642469  0.34919468  1  -0.2912  -0.000193  2.294685  0.0  -0.21736  -8.1e-05  2.537766  0.0  -0.239934  -7.3e-05  2.537674  0.0  -0.170208  -0.201639  -7.9e-05  2.537303  0.0
O  O83  1  0.35954650  0.31723373  0.65080703  1  -0.291256  0.000195  2.294535  0.0  -0.217369  8.3e-05  2.537681  0.0  -0.239954  7.2e-05  2.537606  0.0  -0.170212  -0.201649  7.9e-05  2.537218  0.0
