# generated using pymatgen
data_ZnH14C16(NO)4
_symmetry_space_group_name_H-M   'P 1'
_cell_length_a   8.87843133
_cell_length_b   9.58611051
_cell_length_c   10.88943647
_cell_angle_alpha   67.55928542
_cell_angle_beta   65.41055637
_cell_angle_gamma   77.11593190
_symmetry_Int_Tables_number   1
_chemical_formula_structural   ZnH14C16(NO)4
_chemical_formula_sum   'Zn2 H28 C32 N8 O8'
_cell_volume   776.65887805
_cell_formula_units_Z   2
loop_
 _symmetry_equiv_pos_site_id
 _symmetry_equiv_pos_as_xyz
  1  'x, y, z'
loop_
 _atom_site_type_symbol
 _atom_site_label
 _atom_site_symmetry_multiplicity
 _atom_site_fract_x
 _atom_site_fract_y
 _atom_site_fract_z
 _atom_site_occupancy
 _atom_site_hle17_bader_spin_density
 _atom_site_hle17_ddec_charge
 _atom_site_hle17_ddec_spin_density
 _atom_site_hle17_ddec_sum_bond_order
 _atom_site_hle17_magmom
 _atom_site_hse06_10hf_bader_spin_density
 _atom_site_hse06_10hf_ddec_charge
 _atom_site_hse06_10hf_ddec_spin_density
 _atom_site_hse06_10hf_ddec_sum_bond_order
 _atom_site_hse06_10hf_magmom
 _atom_site_hse06_bader_spin_density
 _atom_site_hse06_ddec_charge
 _atom_site_hse06_ddec_spin_density
 _atom_site_hse06_ddec_sum_bond_order
 _atom_site_hse06_magmom
 _atom_site_pbe_bader_spin_density
 _atom_site_pbe_cm5_charge
 _atom_site_pbe_ddec_charge
 _atom_site_pbe_ddec_spin_density
 _atom_site_pbe_ddec_sum_bond_order
 _atom_site_pbe_magmom
Zn  Zn0  1  0.36732180  0.30602753  0.44414680  1  0  0.990036  0  1.89398  0  0  0.820459  0  2.340075  0  0  0.864916  0  2.292506  0  0  0.66476  0.788468  0  2.37289  0
Zn  Zn1  1  0.63267733  0.69397192  0.55585348  1  0  0.990047  0  1.893964  0  0  0.820468  0  2.340064  0  0  0.864925  0  2.292491  0  0  0.664762  0.788477  0  2.37288  0
H  H2  1  0.23757111  0.34647151  0.18921569  1  0  0.087173  0  0.972904  0  0  0.095848  0  1.042211  0  0  0.097636  0  1.040414  0  0  0.131722  0.094586  0  1.043267  0
H  H3  1  0.76242803  0.65352795  0.81078459  1  0  0.087197  0  0.9729  0  0  0.095861  0  1.042216  0  0  0.09765  0  1.040419  0  0  0.131737  0.094601  0  1.043271  0
H  H4  1  0.46314621  0.66345320  0.22735117  1  0  0.104168  0  0.950201  0  0  0.116489  0  1.00645  0  0  0.118037  0  1.006544  0  0  0.118605  0.115218  0  1.006764  0
H  H5  1  0.53685283  0.33654738  0.77264877  1  0  0.104167  0  0.950191  0  0  0.116484  0  1.006445  0  0  0.118033  0  1.006538  0  0  0.118599  0.115213  0  1.00676  0
H  H6  1  0.39141159  0.79048084  0.97810573  1  0  0.122085  0  0.944854  0  0  0.13286  0  1.004213  0  0  0.136252  0  1.001593  0  0  0.12545  0.130605  0  1.005758  0
H  H7  1  0.60858869  0.20951975  0.02189379  1  0  0.122089  0  0.944841  0  0  0.132859  0  1.004212  0  0  0.136251  0  1.001592  0  0  0.125449  0.130604  0  1.005758  0
H  H8  1  0.21401660  0.47772895  0.95359902  1  0  0.090928  0  0.933094  0  0  0.103962  0  0.999262  0  0  0.103584  0  1.001611  0  0  0.115111  0.1042  0  0.997488  0
H  H9  1  0.78598511  0.52226937  0.04639986  1  0  0.090948  0  0.93311  0  0  0.104002  0  0.999226  0  0  0.103624  0  1.001574  0  0  0.115135  0.104233  0  0.997474  0
H  H10  1  0.32420335  0.63972468  0.83970874  1  0  0.111459  0  0.937162  0  0  0.123115  0  1.001412  0  0  0.12442  0  1.000203  0  0  0.1181  0.122005  0  1.002566  0
H  H11  1  0.67579578  0.36027477  0.16029154  1  0  0.111464  0  0.937162  0  0  0.123107  0  1.001424  0  0  0.124413  0  1.000215  0  0  0.118094  0.121998  0  1.002578  0
H  H12  1  0.10419392  0.74316320  0.74212317  1  0  0.108993  0  0.960219  0  0  0.116758  0  1.027985  0  0  0.119965  0  1.026676  0  0  0.102334  0.114436  0  1.029135  0
H  H13  1  0.89580646  0.25683625  0.25787577  1  0  0.108931  0  0.960289  0  0  0.116729  0  1.028022  0  0  0.119936  0  1.026713  0  0  0.102317  0.114408  0  1.029173  0
H  H14  1  0.65973860  0.95027535  0.99198680  1  0  0.082718  0  0.955738  0  0  0.096582  0  1.014313  0  0  0.099284  0  1.013179  0  0  0.096571  0.094577  0  1.015176  0
H  H15  1  0.34026291  0.04972524  0.00801323  1  0  0.082715  0  0.955729  0  0  0.096584  0  1.014296  0  0  0.099286  0  1.01316  0  0  0.09656  0.094578  0  1.01516  0
H  H16  1  0.73453344  0.81633565  0.20674345  1  0  0.107339  0  0.9875  0  0  0.114691  0  1.051853  0  0  0.118102  0  1.049314  0  0  0.098938  0.112119  0  1.053947  0
H  H17  1  0.26546712  0.18366154  0.79325711  1  0  0.107327  0  0.987511  0  0  0.114677  0  1.051868  0  0  0.118087  0  1.04933  0  0  0.098932  0.112105  0  1.053961  0
H  H18  1  0.99610571  0.65371834  0.18841025  1  0  0.102547  0  0.953888  0  0  0.111962  0  1.017183  0  0  0.114986  0  1.015819  0  0  0.102864  0.109632  0  1.018511  0
H  H19  1  0.00389355  0.34627998  0.81158761  1  0  0.102566  0  0.95388  0  0  0.111986  0  1.01717  0  0  0.115008  0  1.015808  0  0  0.102898  0.109653  0  1.018501  0
H  H20  1  0.86969322  0.87587612  0.65108836  1  0  0.076918  0  0.972222  0  0  0.086675  0  1.045507  0  0  0.086503  0  1.04741  0  0  0.106362  0.086576  0  1.044526  0
H  H21  1  0.13030581  0.12412446  0.34891250  1  0  0.076898  0  0.972228  0  0  0.086665  0  1.045505  0  0  0.086493  0  1.047406  0  0  0.106361  0.086566  0  1.044524  0
H  H22  1  0.70242942  0.97815074  0.74893763  1  0  0.098202  0  0.909833  0  0  0.113764  0  0.968639  0  0  0.115696  0  0.966175  0  0  0.116748  0.112163  0  0.970683  0
H  H23  1  0.29757085  0.02184985  0.25106281  1  0  0.098143  0  0.909848  0  0  0.1137  0  0.968665  0  0  0.115629  0  0.966203  0  0  0.116737  0.1121  0  0.970707  0
H  H24  1  0.15298360  0.01680739  0.67736149  1  0  0.097479  0  0.961357  0  0  0.107516  0  1.023075  0  0  0.109268  0  1.021633  0  0  0.134663  0.106118  0  1.02419  0
H  H25  1  0.84701553  0.98319206  0.32263879  1  0  0.097544  0  0.961381  0  0  0.107572  0  1.023104  0  0  0.109327  0  1.02166  0  0  0.134673  0.106175  0  1.024219  0
H  H26  1  0.99221690  0.42693318  0.41830562  1  0  0.112013  0  0.961223  0  0  0.118683  0  1.026072  0  0  0.121646  0  1.024278  0  0  0.117285  0.116368  0  1.027919  0
H  H27  1  0.00778338  0.57306741  0.58169389  1  0  0.112023  0  0.961219  0  0  0.118692  0  1.026067  0  0  0.121656  0  1.024273  0  0  0.117293  0.116378  0  1.027913  0
H  H28  1  0.74622665  0.22687510  0.54811365  1  0  0.12528  0  0.970271  0  0  0.133253  0  1.033672  0  0  0.135939  0  1.032381  0  0  0.12259  0.131294  0  1.034566  0
H  H29  1  0.25377248  0.77312436  0.45188663  1  0  0.125296  0  0.970263  0  0  0.13327  0  1.033661  0  0  0.135955  0  1.032371  0  0  0.122592  0.131309  0  1.034559  0
C  C30  1  0.51025335  0.00652608  0.42288903  1  0  0.513217  0  3.941962  0  0  0.473372  0  4.235362  0  0  0.502086  0  4.228934  0  0  0.190518  0.453732  0  4.239024  0
C  C31  1  0.48974559  0.99347563  0.57711147  1  0  0.513262  0  3.941892  0  0  0.473434  0  4.235274  0  0  0.502147  0  4.228844  0  0  0.190552  0.453795  0  4.238936  0
C  C32  1  0.58879740  0.48113061  0.44894759  1  0  0.507118  0  3.936961  0  0  0.46521  0  4.227901  0  0  0.494106  0  4.221769  0  0  0.193386  0.445424  0  4.231664  0
C  C33  1  0.41120049  0.51886884  0.55105310  1  0  0.507146  0  3.937056  0  0  0.465277  0  4.227952  0  0  0.494173  0  4.221822  0  0  0.193407  0.445489  0  4.23172  0
C  C34  1  0.28837347  0.44880368  0.16987794  1  0  0.163762  0  3.665106  0  0  0.102612  0  3.934112  0  0  0.11685  0  3.945968  0  0  0.144701  0.093793  0  3.925204  0
C  C35  1  0.71162555  0.55119690  0.83012291  1  0  0.163712  0  3.665125  0  0  0.102564  0  3.934142  0  0  0.116802  0  3.945998  0  0  0.144681  0.093746  0  3.925235  0
C  C36  1  0.40309972  0.61659760  0.18468593  1  0  -0.002372  0  3.753631  0  0  -0.038793  0  4.028478  0  0  -0.03716  0  4.050162  0  0  -0.005858  -0.040094  0  4.014383  0
C  C37  1  0.59689923  0.38340412  0.81531365  1  0  -0.002372  0  3.753673  0  0  -0.038793  0  4.028522  0  0  -0.03716  0  4.050204  0  0  -0.005852  -0.040094  0  4.014427  0
C  C38  1  0.36928927  0.68137758  0.06146439  1  0  -0.066194  0  3.667095  0  0  -0.109575  0  3.933112  0  0  -0.108321  0  3.951756  0  0  0.001343  -0.110444  0  3.920556  0
C  C39  1  0.63070977  0.31862300  0.93853554  1  0  -0.066196  0  3.667106  0  0  -0.109579  0  3.933123  0  0  -0.108325  0  3.951765  0  0  0.001349  -0.110448  0  3.920566  0
C  C40  1  0.23080204  0.59150361  0.94572219  1  0  -0.049874  0  3.633123  0  0  -0.112136  0  3.87224  0  0  -0.107578  0  3.882254  0  0  -0.044173  -0.114991  0  3.865293  0
C  C41  1  0.76919843  0.40849472  0.05427803  1  0  -0.04993  0  3.63317  0  0  -0.112169  0  3.872244  0  0  -0.107608  0  3.882255  0  0  -0.044188  -0.115024  0  3.865295  0
C  C42  1  0.06910381  0.68961789  0.96283103  1  0  0.079912  0  3.744574  0  0  0.101667  0  3.98105  0  0  0.101429  0  4.005239  0  0  -0.010862  0.101783  0  3.964146  0
C  C43  1  0.93089793  0.31038043  0.03716601  1  0  0.079782  0  3.74464  0  0  0.101532  0  3.981113  0  0  0.101294  0  4.005302  0  0  -0.010955  0.101647  0  3.96421  0
C  C44  1  0.02321025  0.76139903  0.84339734  1  0  -0.179146  0  3.710515  0  0  -0.202841  0  3.951159  0  0  -0.20705  0  3.972445  0  0  -0.094881  -0.200139  0  3.937067  0
C  C45  1  0.97679013  0.23860042  0.15660161  1  0  -0.179003  0  3.710504  0  0  -0.202704  0  3.951158  0  0  -0.206913  0  3.972446  0  0  -0.094834  -0.200004  0  3.937069  0
C  C46  1  0.87695003  0.85669387  0.85280255  1  0  0.050689  0  3.813282  0  0  0.071359  0  4.056858  0  0  0.070584  0  4.082122  0  0  -0.022237  0.071969  0  4.039823  0
C  C47  1  0.12304930  0.14330332  0.14719843  1  0  0.050663  0  3.81316  0  0  0.071279  0  4.05683  0  0  0.070502  0  4.082094  0  0  -0.022237  0.071889  0  4.039794  0
C  C48  1  0.77372909  0.87590661  0.98436443  1  0  -0.128921  0  3.773148  0  0  -0.152155  0  4.021783  0  0  -0.155789  0  4.044812  0  0  -0.098103  -0.149257  0  4.005495  0
C  C49  1  0.22627127  0.12409284  0.01563636  1  0  -0.128955  0  3.773102  0  0  -0.152171  0  4.021746  0  0  -0.155805  0  4.044775  0  0  -0.098118  -0.149273  0  4.005457  0
C  C50  1  0.81612909  0.80159272  0.10459372  1  0  -0.052001  0  3.762376  0  0  -0.062499  0  4.010895  0  0  -0.063565  0  4.031455  0  0  -0.088978  -0.061976  0  3.996852  0
C  C51  1  0.18387139  0.19840560  0.89540557  1  0  -0.052015  0  3.762415  0  0  -0.06251  0  4.010928  0  0  -0.063576  0  4.031489  0  0  -0.088988  -0.061988  0  3.996885  0
C  C52  1  0.96406998  0.70960332  0.09355239  1  0  -0.111755  0  3.719233  0  0  -0.137354  0  3.969278  0  0  -0.139565  0  3.989546  0  0  -0.091293  -0.13553  0  3.955326  0
C  C53  1  0.03593043  0.29039613  0.90644471  1  0  -0.111653  0  3.719228  0  0  -0.13726  0  3.969254  0  0  -0.139471  0  3.989524  0  0  -0.091234  -0.135431  0  3.955308  0
C  C54  1  0.83568491  0.94399996  0.72146963  1  0  -0.043684  0  3.640681  0  0  -0.110955  0  3.890021  0  0  -0.106136  0  3.899708  0  0  -0.04974  -0.114212  0  3.883889  0
C  C55  1  0.16431431  0.05599836  0.27853192  1  0  -0.043594  0  3.640618  0  0  -0.110864  0  3.890013  0  0  -0.106039  0  3.899691  0  0  -0.049735  -0.114119  0  3.883879  0
C  C56  1  0.07935594  0.10172192  0.62202828  1  0  0.15419  0  3.656943  0  0  0.094633  0  3.917977  0  0  0.107511  0  3.931975  0  0  0.136669  0.086422  0  3.908195  0
C  C57  1  0.92064310  0.89827867  0.37797165  1  0  0.154103  0  3.657033  0  0  0.094549  0  3.918055  0  0  0.107425  0  3.932055  0  0  0.13666  0.086339  0  3.908273  0
C  C58  1  0.99195589  0.31146550  0.48971992  1  0  -0.002538  0  3.73826  0  0  -0.0351  0  4.008159  0  0  -0.033092  0  4.02641  0  0  -0.003557  -0.036968  0  3.997175  0
C  C59  1  0.00804315  0.68853509  0.51028001  1  0  -0.002584  0  3.738318  0  0  -0.035147  0  4.008214  0  0  -0.03314  0  4.026466  0  0  -0.003598  -0.037015  0  3.997232  0
C  C60  1  0.86695657  0.21491498  0.55496011  1  0  -0.066291  0  3.666416  0  0  -0.108507  0  3.928639  0  0  -0.106845  0  3.947005  0  0  -0.00069  -0.109681  0  3.91672  0
C  C61  1  0.13304371  0.78508561  0.44503941  1  0  -0.066311  0  3.666415  0  0  -0.108524  0  3.928629  0  0  -0.106862  0  3.946998  0  0  -0.000672  -0.109698  0  3.91671  0
N  N62  1  0.35167386  0.47112921  0.25170922  1  0  -0.37176  0  3.258498  0  0  -0.299942  0  3.546029  0  0  -0.318969  0  3.561141  0  0  -0.347984  -0.287044  0  3.535257  0
N  N63  1  0.64832527  0.52887024  0.74829106  1  0  -0.371786  0  3.258566  0  0  -0.299957  0  3.546074  0  0  -0.318985  0  3.561191  0  0  -0.348011  -0.287056  0  3.535295  0
N  N64  1  0.29686274  0.57293437  0.05367642  1  0  -0.058892  0  3.599738  0  0  0.033931  0  3.816079  0  0  0.019315  0  3.842469  0  0  -0.244572  0.04363  0  3.798119  0
N  N65  1  0.70313773  0.42706395  0.94632380  1  0  -0.058833  0  3.599728  0  0  0.03398  0  3.816063  0  0  0.019365  0  3.842453  0  0  -0.244551  0.043679  0  3.798103  0
N  N66  1  0.92420072  0.08309397  0.63850525  1  0  -0.05852  0  3.563957  0  0  0.03714  0  3.781217  0  0  0.022503  0  3.807576  0  0  -0.241978  0.04684  0  3.763314  0
N  N67  1  0.07579956  0.91690661  0.36149427  1  0  -0.058487  0  3.563988  0  0  0.037184  0  3.781229  0  0  0.022547  0  3.80759  0  0  -0.241949  0.046884  0  3.763326  0
N  N68  1  0.12412290  0.23912251  0.53173700  1  0  -0.376835  0  3.282606  0  0  -0.301866  0  3.56605  0  0  -0.320849  0  3.581312  0  0  -0.352488  -0.288977  0  3.555645  0
N  N69  1  0.87587736  0.76087808  0.46826344  1  0  -0.376791  0  3.282689  0  0  -0.301821  0  3.566121  0  0  -0.320803  0  3.581382  0  0  -0.352483  -0.288935  0  3.555719  0
O  O70  1  0.56415847  0.88819889  0.38763336  1  0  -0.583186  0  2.054885  0  0  -0.530429  0  2.299453  0  0  -0.553495  0  2.289276  0  0  -0.310479  -0.513891  0  2.305877  0
O  O71  1  0.43584055  0.11180169  0.61236749  1  0  -0.583236  0  2.05491  0  0  -0.530478  0  2.299459  0  0  -0.553544  0  2.289282  0  0  -0.310518  -0.513941  0  2.305885  0
O  O72  1  0.47173139  0.13466836  0.34404116  1  0  -0.592131  0  2.053939  0  0  -0.540929  0  2.310516  0  0  -0.564646  0  2.300282  0  0  -0.320907  -0.52355  0  2.316529  0
O  O73  1  0.52826887  0.86533223  0.65595928  1  0  -0.592149  0  2.05388  0  0  -0.540956  0  2.310452  0  0  -0.564672  0  2.300216  0  0  -0.320917  -0.523579  0  2.316467  0
O  O74  1  0.60351155  0.38396620  0.39109561  1  0  -0.577912  0  2.077901  0  0  -0.521874  0  2.329182  0  0  -0.545575  0  2.319755  0  0  -0.306888  -0.505131  0  2.335458  0
O  O75  1  0.39648748  0.61603439  0.60890432  1  0  -0.577912  0  2.077972  0  0  -0.521886  0  2.329234  0  0  -0.545589  0  2.319806  0  0  -0.306885  -0.505143  0  2.335511  0
O  O76  1  0.70621656  0.54917966  0.43224558  1  0  -0.564211  0  2.088596  0  0  -0.507595  0  2.346318  0  0  -0.531994  0  2.33771  0  0  -0.30305  -0.490081  0  2.351617  0
O  O77  1  0.29378246  0.45082092  0.56775528  1  0  -0.564222  0  2.08864  0  0  -0.507625  0  2.346345  0  0  -0.532022  0  2.337741  0  0  -0.303065  -0.490111  0  2.351645  0
