# generated using pymatgen
data_CoH18C26N6O5
_symmetry_space_group_name_H-M   'P 1'
_cell_length_a   9.91492550
_cell_length_b   12.73984433
_cell_length_c   12.28643277
_cell_angle_alpha   62.78604605
_cell_angle_beta   84.35971432
_cell_angle_gamma   70.00625969
_symmetry_Int_Tables_number   1
_chemical_formula_structural   CoH18C26N6O5
_chemical_formula_sum   'Co2 H36 C52 N12 O10'
_cell_volume   1293.84369071
_cell_formula_units_Z   2
loop_
 _symmetry_equiv_pos_site_id
 _symmetry_equiv_pos_as_xyz
  1  'x, y, z'
loop_
 _atom_site_type_symbol
 _atom_site_label
 _atom_site_symmetry_multiplicity
 _atom_site_fract_x
 _atom_site_fract_y
 _atom_site_fract_z
 _atom_site_occupancy
 _atom_site_pbe_cm5_charge
 _atom_site_pbe_ddec_charge
 _atom_site_pbe_ddec_spin_density
 _atom_site_pbe_ddec_sum_bond_order
 _atom_site_pbe_magmom
Co  Co0  1  0.88658225  0.87544399  0.59833072  1  0.648813  0.718066  1.022811  2.913664  0.949
Co  Co1  1  0.11341418  0.12456084  0.40165668  1  0.648853  0.718117  1.022798  2.913739  0.949
H  H2  1  0.23365324  0.63141283  0.81819300  1  0.11126  0.12822  -5e-05  0.992676  0.0
H  H3  1  0.76634230  0.36859082  0.18180801  1  0.111234  0.128242  -5e-05  0.992639  0.0
H  H4  1  0.42311518  0.91986566  0.63172572  1  0.112166  0.127335  -0.000184  1.004799  0.0
H  H5  1  0.57687633  0.08014091  0.36826934  1  0.112159  0.127263  -0.000184  1.004829  0.0
H  H6  1  0.69632151  0.53697419  0.83950199  1  0.109775  0.132529  2.1e-05  1.004277  0.0
H  H7  1  0.30367175  0.46303779  0.16050028  1  0.109807  0.13252  2.1e-05  1.004207  0.0
H  H8  1  0.79834944  0.12070096  0.02626933  1  0.111289  0.119638  -2e-05  0.991847  0.0
H  H9  1  0.20166109  0.87930655  0.97371922  1  0.111338  0.119722  -2e-05  0.991872  0.0
H  H10  1  0.77457235  0.91140439  0.16955909  1  0.11175  0.077511  5e-06  0.982187  0.0
H  H11  1  0.22544628  0.08860020  0.83043434  1  0.111735  0.077426  5e-06  0.982232  0.0
H  H12  1  0.32979546  0.06331134  0.13621897  1  0.110697  0.075872  -4.8e-05  1.015699  0.0
H  H13  1  0.67021790  0.93668292  0.86378273  1  0.110644  0.075784  -4.8e-05  1.015699  0.0
H  H14  1  0.33339104  0.27600072  0.00004616  1  0.110231  0.11444  7.6e-05  0.996475  0.0
H  H15  1  0.66661652  0.72399542  0.99995587  1  0.110211  0.114397  7.6e-05  0.996453  0.0
H  H16  1  0.01536807  0.60436624  0.37003618  1  0.126311  0.133419  -2.7e-05  0.994442  0.0
H  H17  1  0.98463373  0.39562611  0.62997200  1  0.126312  0.133449  -2.7e-05  0.994416  0.0
H  H18  1  0.81087144  0.80120897  0.40256276  1  0.126591  0.128865  -0.000109  0.994346  0.0
H  H19  1  0.18912556  0.19879098  0.59743740  1  0.126577  0.128843  -0.000109  0.994382  0.0
H  H20  1  0.16757507  0.64636468  0.65310339  1  0.132421  0.096447  -0.000209  1.058761  0.0
H  H21  1  0.83241863  0.35362487  0.34690820  1  0.132436  0.096434  -0.000209  1.058891  0.0
H  H22  1  0.24498737  0.42509380  0.74035579  1  0.1063  0.110869  -8.2e-05  1.001649  0.0
H  H23  1  0.75502604  0.57490494  0.25965447  1  0.106276  0.110904  -8.2e-05  1.001613  0.0
H  H24  1  0.47168106  0.24200890  0.79231758  1  0.103495  0.104118  -2.3e-05  1.05997  0.0
H  H25  1  0.52833849  0.75799272  0.20768529  1  0.103477  0.104151  -2.3e-05  1.059864  0.0
H  H26  1  0.75888266  0.21401228  0.74948148  1  0.119752  0.127415  -3.9e-05  1.036644  0.0
H  H27  1  0.24112432  0.78598303  0.25051608  1  0.119744  0.12744  -3.9e-05  1.036631  0.0
H  H28  1  0.96505547  0.99827438  0.75414922  1  0.122972  0.122425  -3.6e-05  1.005956  0.0
H  H29  1  0.03495095  0.00172009  0.24584387  1  0.122957  0.122384  -3.6e-05  1.005984  0.0
H  H30  1  0.59468160  0.08848699  0.54259958  1  0.141313  0.116179  -0.00034  1.015786  0.0
H  H31  1  0.40531649  0.91151303  0.45739640  1  0.141315  0.116157  -0.00034  1.015881  0.0
H  H32  1  0.52140119  0.34857930  0.40878857  1  0.101847  0.104504  -2.3e-05  1.057231  0.0
H  H33  1  0.47858109  0.65141421  0.59121381  1  0.101797  0.10449  -2.3e-05  1.057217  0.0
H  H34  1  0.29478513  0.52934911  0.35479607  1  0.107291  0.124646  -3.1e-05  1.024868  0.0
H  H35  1  0.70519879  0.47063957  0.64521572  1  0.107328  0.124634  -3.1e-05  1.024686  0.0
H  H36  1  0.39477864  0.42683202  0.96203413  1  0.318866  0.272794  -4.8e-05  0.952812  0.0
H  H37  1  0.60523095  0.57316568  0.03798336  1  0.318844  0.272871  -4.8e-05  0.952789  0.0
C  C38  1  0.46677343  0.56887762  0.83585455  1  0.088507  0.235953  -0.000106  4.054842  0.0
C  C39  1  0.53322205  0.43112597  0.16414975  1  0.088452  0.235814  -0.000106  4.054805  0.0
C  C40  1  0.32949234  0.65888858  0.79434659  1  -0.095392  -0.21389  -0.000731  3.937323  0.0
C  C41  1  0.67050576  0.34111585  0.20566124  1  -0.095402  -0.213901  -0.000731  3.937263  0.0
C  C42  1  0.31378209  0.78532840  0.71926866  1  -0.018812  -0.016695  -0.001156  4.00897  0.001
C  C43  1  0.68621898  0.21467440  0.28072669  1  -0.018818  -0.016827  -0.001157  4.008927  0.001
C  C44  1  0.43585930  0.82164942  0.69042827  1  -0.085253  -0.14317  -0.001475  3.957068  -0.001
C  C45  1  0.56414002  0.17835523  0.30956799  1  -0.085271  -0.143039  -0.001475  3.957076  -0.001
C  C46  1  0.57241279  0.73228819  0.73461859  1  -0.014854  -0.001937  -0.001305  4.007465  -0.001
C  C47  1  0.42758268  0.26771825  0.26538198  1  -0.014846  -0.002034  -0.001306  4.007574  -0.001
C  C48  1  0.58905115  0.60557813  0.80741819  1  -0.09367  -0.211728  -0.002401  3.931506  -0.001
C  C49  1  0.41094332  0.39442834  0.19258162  1  -0.093608  -0.21149  -0.002401  3.931426  -0.001
C  C50  1  0.17106446  0.88027870  0.65563852  1  0.205275  0.546204  -5.7e-05  4.217124  0.002
C  C51  1  0.82893468  0.11972422  0.34435120  1  0.205316  0.546416  -5.8e-05  4.21699  0.002
C  C52  1  0.70294157  0.77111043  0.70317807  1  0.190781  0.535417  -0.00296  4.216493  -0.002
C  C53  1  0.29704786  0.22889896  0.29681585  1  0.190739  0.53535  -0.002961  4.216452  -0.002
C  C54  1  0.58759112  0.33868163  0.91546251  1  0.241757  0.470852  -0.000123  4.126753  0.0
C  C55  1  0.41240244  0.66132495  0.08453160  1  0.24171  0.470977  -0.000123  4.126751  0.0
C  C56  1  0.56886283  0.21569637  0.00122225  1  -0.002066  -0.002635  1.7e-05  3.993965  0.0
C  C57  1  0.43114231  0.78430642  0.99877203  1  -0.002002  -0.002508  1.7e-05  3.993754  0.0
C  C58  1  0.69322279  0.11032218  0.04978713  1  -0.077827  -0.143577  -0.000219  3.954946  0.0
C  C59  1  0.30678603  0.88968436  0.95020441  1  -0.07785  -0.143702  -0.000219  3.954873  0.0
C  C60  1  0.67894834  0.99468615  0.12845950  1  0.043762  0.089333  8.2e-05  3.999517  0.0
C  C61  1  0.32106418  0.00531845  0.87153513  1  0.043828  0.08956  8.2e-05  3.999384  0.0
C  C62  1  0.43268272  0.07868655  0.11097869  1  0.046196  0.103614  -0.000162  3.962532  0.0
C  C63  1  0.56732838  0.92131321  0.88902718  1  0.046261  0.103749  -0.000162  3.962585  0.0
C  C64  1  0.43557203  0.19906973  0.03340260  1  -0.079551  -0.154658  8.7e-05  3.953428  0.0
C  C65  1  0.56443513  0.80093017  0.96659694  1  -0.079575  -0.154699  8.7e-05  3.953393  0.0
C  C66  1  0.01532083  0.64310378  0.43219366  1  -0.004022  -0.124454  0.000299  3.942459  0.001
C  C67  1  0.98467593  0.35688577  0.56781692  1  -0.004014  -0.124451  0.000298  3.942358  0.001
C  C68  1  0.91542347  0.73906472  0.44952247  1  0.007594  -0.021278  -0.002835  3.954721  -0.002
C  C69  1  0.08457199  0.26092871  0.55047993  1  0.007571  -0.021339  -0.002835  3.954795  -0.002
C  C70  1  0.09567881  0.66037044  0.58349735  1  0.141258  0.094736  -0.007888  3.87661  -0.005
C  C71  1  0.90431281  0.33962192  0.41651309  1  0.14127  0.094726  -0.007885  3.876796  -0.005
C  C72  1  0.25659810  0.48852864  0.54479408  1  0.093129  0.157951  -0.000805  4.037091  0.0
C  C73  1  0.74339824  0.51146464  0.45521565  1  0.093163  0.158073  -0.000805  4.036877  0.0
C  C74  1  0.30739705  0.40918286  0.66786332  1  -0.092888  -0.161433  -0.000415  3.993514  0.0
C  C75  1  0.69260802  0.59081412  0.33214419  1  -0.092917  -0.161564  -0.000415  3.993501  0.0
C  C76  1  0.43434571  0.30818960  0.69739814  1  -0.085125  -0.136282  -0.000364  4.003511  0.0
C  C77  1  0.56566136  0.69181021  0.30260633  1  -0.085087  -0.13627  -0.000364  4.003323  0.0
C  C78  1  0.51059897  0.28691590  0.60362999  1  0.095546  0.162511  -0.000882  4.006016  0.0
C  C79  1  0.48940044  0.71308026  0.39637418  1  0.095577  0.162595  -0.000882  4.005931  0.0
C  C80  1  0.75747958  0.15485776  0.70844216  1  -0.001366  -0.10812  0.000206  3.907045  0.001
C  C81  1  0.24251921  0.84514038  0.29155545  1  -0.001432  -0.108275  0.000207  3.907045  0.001
C  C82  1  0.85716017  0.04777684  0.71087262  1  0.004406  -0.024075  -0.002954  3.970963  -0.002
C  C83  1  0.14284306  0.95222036  0.28912432  1  0.004474  -0.023909  -0.002955  3.970816  -0.002
C  C84  1  0.67040400  0.09288582  0.59667425  1  0.146334  0.098717  -0.00911  3.85813  -0.005
C  C85  1  0.32959408  0.90711419  0.40332256  1  0.146338  0.098709  -0.009111  3.858068  -0.005
C  C86  1  0.45969103  0.36525881  0.48101811  1  -0.082057  -0.131072  -0.000412  3.956177  0.0
C  C87  1  0.54029966  0.63473365  0.51898747  1  -0.082089  -0.131239  -0.000413  3.956154  0.0
C  C88  1  0.33197136  0.46650545  0.45092924  1  -0.08591  -0.146617  -0.000456  3.952415  0.0
C  C89  1  0.66801804  0.53348232  0.54908018  1  -0.085897  -0.146529  -0.000456  3.95193  0.0
N  N90  1  0.55149941  0.97760465  0.15857494  1  -0.313271  -0.256965  -4.4e-05  3.321697  0.0
N  N91  1  0.44851517  0.02239710  0.84142248  1  -0.31337  -0.257155  -4.4e-05  3.321791  0.0
N  N92  1  0.47701983  0.44231262  0.90761780  1  -0.39998  -0.381512  -0.000119  3.604762  0.0
N  N93  1  0.52298033  0.55769183  0.09238826  1  -0.399976  -0.381739  -0.000118  3.604843  0.0
N  N94  1  0.96797927  0.74920365  0.54338448  1  -0.352898  -0.213613  -0.007498  3.646105  -0.005
N  N95  1  0.03201474  0.25079351  0.45661713  1  -0.3529  -0.213554  -0.007498  3.646109  -0.005
N  N96  1  0.12909720  0.59319569  0.51860509  1  -0.231818  -0.003303  -0.00142  3.834444  -0.001
N  N97  1  0.87089683  0.40679289  0.48140855  1  -0.231794  -0.003319  -0.00142  3.834449  -0.001
N  N98  1  0.64043452  0.18322732  0.63434252  1  -0.228131  0.004432  -0.001911  3.812817  -0.001
N  N99  1  0.35956495  0.81677176  0.36565381  1  -0.228045  0.004525  -0.001911  3.812566  -0.001
N  N100  1  0.80180337  0.00993806  0.64095391  1  -0.360791  -0.252716  -0.009734  3.675682  -0.007
N  N101  1  0.19819373  0.99006198  0.35904132  1  -0.360864  -0.252822  -0.009734  3.675665  -0.007
O  O102  1  0.07430829  0.83141074  0.66329829  1  -0.307404  -0.521021  0.005853  2.538697  0.01
O  O103  1  0.92569224  0.16858551  0.33670006  1  -0.307406  -0.52105  0.005853  2.538816  0.01
O  O104  1  0.15997268  0.99407651  0.59777683  1  -0.300702  -0.543242  0.015362  2.385192  0.026
O  O105  1  0.84002591  0.00592559  0.40220760  1  -0.300724  -0.543367  0.015359  2.385096  0.026
O  O106  1  0.69777570  0.86189045  0.59428665  1  -0.30473  -0.49382  -0.008016  2.328172  -0.006
O  O107  1  0.30221690  0.13811619  0.40570423  1  -0.304728  -0.493739  -0.008019  2.328175  -0.006
O  O108  1  0.80986214  0.71748528  0.77920945  1  -0.32651  -0.54529  0.022244  2.080014  0.036
O  O109  1  0.19013030  0.28252691  0.22078219  1  -0.326448  -0.545244  0.022242  2.079972  0.036
O  O110  1  0.69650885  0.34287889  0.85670122  1  -0.292698  -0.481924  -0.000229  2.116455  0.0
O  O111  1  0.30347632  0.65713447  0.14327976  1  -0.292642  -0.481944  -0.000229  2.116401  0.0
