# generated using pymatgen
data_CuH26C25S2BrO2
_symmetry_space_group_name_H-M   'P 1'
_cell_length_a   11.14000222
_cell_length_b   11.63881246
_cell_length_c   12.98550000
_cell_angle_alpha   85.06531685
_cell_angle_beta   64.97757270
_cell_angle_gamma   79.41242675
_symmetry_Int_Tables_number   1
_chemical_formula_structural   CuH26C25S2BrO2
_chemical_formula_sum   'Cu2 H52 C50 S4 Br2 O4'
_cell_volume   1499.59064595
_cell_formula_units_Z   2
loop_
 _symmetry_equiv_pos_site_id
 _symmetry_equiv_pos_as_xyz
  1  'x, y, z'
loop_
 _atom_site_type_symbol
 _atom_site_label
 _atom_site_symmetry_multiplicity
 _atom_site_fract_x
 _atom_site_fract_y
 _atom_site_fract_z
 _atom_site_occupancy
 _atom_site_pbe_bader_charge
 _atom_site_pbe_bader_spin_density
 _atom_site_pbe_cm5_charge
 _atom_site_pbe_ddec_charge
 _atom_site_pbe_ddec_spin_density
 _atom_site_pbe_ddec_sum_bond_order
 _atom_site_pbe_magmom
Cu  Cu0  1  0.94445642  0.51350998  0.41994960  1  0.444776  0  0.265911  0.120156  0  2.810811  0
Cu  Cu1  1  0.05554839  0.48648852  0.58004715  1  0.444587  0  0.265936  0.120186  0  2.810926  0
H  H2  1  0.43436795  0.02262117  0.36604638  1  0.066318  0  0.099413  0.063652  0  1.017991  0
H  H3  1  0.56563504  0.97737646  0.63395264  1  0.066603  0  0.099406  0.063617  0  1.018009  0
H  H4  1  0.53990621  0.99975113  0.21844159  1  0.03049  0  0.099729  0.0584  0  0.986204  0
H  H5  1  0.46009447  0.00024825  0.78155736  1  0.030503  0  0.099735  0.058383  0  0.986242  0
H  H6  1  0.52545445  0.19949009  0.29852736  1  0.031506  0  0.102709  0.109913  0  0.966662  0
H  H7  1  0.47454442  0.80050841  0.70147309  1  0.031494  0  0.102733  0.109932  0  0.966643  0
H  H8  1  0.61964300  0.12460133  0.37245039  1  0.05207  0  0.102522  0.113654  0  0.975391  0
H  H9  1  0.38035966  0.87539805  0.62754631  1  0.052031  0  0.102532  0.113677  0  0.975349  0
H  H10  1  0.80415727  0.04885855  0.18628081  1  0.066575  0  0.099287  0.062982  0  1.013271  0
H  H11  1  0.19584342  0.95114607  0.81371465  1  0.066525  0  0.099269  0.062974  0  1.013207  0
H  H12  1  0.70594915  0.12218091  0.11378616  1  0.032146  0  0.098023  0.057453  0  0.973719  0
H  H13  1  0.29404808  0.87782109  0.88621231  1  0.032213  0  0.098008  0.057429  0  0.973729  0
H  H14  1  0.91699890  0.09970134  0.99618932  1  0.057343  0  0.097203  0.105316  0  1.04078  0
H  H15  1  0.08299784  0.90030328  0.00381066  1  0.057301  0  0.097199  0.105298  0  1.040804  0
H  H16  1  0.12911520  0.14143849  0.84079130  1  0.087314  0  0.090415  0.081423  0  1.059535  0
H  H17  1  0.87088416  0.85856263  0.15921185  1  0.087248  0  0.090412  0.081425  0  1.059495  0
H  H18  1  0.23304006  0.30779533  0.85545633  1  0.074599  0  0.090883  0.092795  0  1.056417  0
H  H19  1  0.76695914  0.69220667  0.14454758  1  0.07456  0  0.090892  0.092789  0  1.056446  0
H  H20  1  0.11956868  0.43431446  0.02626383  1  0.056136  0  0.102979  0.109746  0  0.985704  0
H  H21  1  0.88042508  0.56569016  0.97373723  1  0.056117  0  0.102919  0.109675  0  0.985714  0
H  H22  1  0.78093983  0.43262218  0.24628356  1  0.045615  0  0.100607  0.115076  0  1.020992  0
H  H23  1  0.21905343  0.56737982  0.75371788  1  0.045649  0  0.100663  0.11513  0  1.020946  0
H  H24  1  0.92338437  0.50422166  0.18659232  1  0.09297  0  0.099958  0.116312  0  1.010064  0
H  H25  1  0.07660377  0.49578122  0.81341091  1  0.092976  0  0.099958  0.116333  0  1.010002  0
H  H26  1  0.76831033  0.32016053  0.50089621  1  0.094729  0  0.088794  0.107003  0  1.039753  0
H  H27  1  0.23169349  0.67983797  0.49910321  1  0.094713  0  0.0888  0.107014  0  1.039748  0
H  H28  1  0.73046124  0.30341427  0.38374691  1  0.09019  0  0.104903  0.12562  0  0.994946  0
H  H29  1  0.26953927  0.69658073  0.61625552  1  0.090053  0  0.104935  0.125645  0  0.994876  0
H  H30  1  0.98984408  0.13383284  0.24125404  1  0.061157  0  0.093325  0.092092  0  1.049595  0
H  H31  1  0.01016370  0.86616567  0.75874626  1  0.06126  0  0.093348  0.092092  0  1.049599  0
H  H32  1  0.73273115  0.14314127  0.59825502  1  0.039645  0  0.093798  0.09417  0  1.045856  0
H  H33  1  0.26727085  0.85685637  0.40174513  1  0.039621  0  0.093785  0.094168  0  1.045838  0
H  H34  1  0.04811726  0.91852592  0.25301404  1  0.023701  0  0.098728  0.103608  0  0.993428  0
H  H35  1  0.95189168  0.08147171  0.74698667  1  0.023644  0  0.098726  0.103622  0  0.993419  0
H  H36  1  0.79695536  0.92790865  0.61142543  1  0.02871  0  0.099394  0.09929  0  0.999757  0
H  H37  1  0.20304648  0.07208986  0.38857471  1  0.028729  0  0.09941  0.099298  0  0.999765  0
H  H38  1  0.92559358  0.74843749  0.53070064  1  0.063635  0  0.092413  0.111464  0  1.015462  0
H  H39  1  0.07440661  0.25155926  0.46930100  1  0.062726  0  0.092404  0.111486  0  1.015423  0
H  H40  1  0.06910868  0.74717178  0.39933993  1  0.101461  0  0.095847  0.125409  0  1.000656  0
H  H41  1  0.93089282  0.25282323  0.60066214  1  0.101495  0  0.095837  0.12537  0  1.000698  0
H  H42  1  0.68770403  0.69814802  0.53903416  1  0.088252  0  0.085921  0.105097  0  1.03063  0
H  H43  1  0.31229699  0.30184961  0.46096558  1  0.088313  0  0.085938  0.105106  0  1.03064  0
H  H44  1  0.69685481  0.84003144  0.47047020  1  0.099313  0  0.098203  0.109454  0  1.03222  0
H  H45  1  0.30314406  0.15996707  0.52953179  1  0.099277  0  0.098207  0.109447  0  1.032294  0
H  H46  1  0.63925798  0.53916870  0.45041681  1  0.059195  0  0.096955  0.100608  0  1.030277  0
H  H47  1  0.36074155  0.46083156  0.54958558  1  0.059196  0  0.096974  0.10065  0  1.030265  0
H  H48  1  0.50780684  0.49004966  0.34870134  1  0.074684  0  0.095092  0.098893  0  1.014168  0
H  H49  1  0.49219055  0.50995147  0.65130175  1  0.074711  0  0.095074  0.098836  0  1.014176  0
H  H50  1  0.42703554  0.64427118  0.23809226  1  0.078886  0  0.095865  0.102896  0  1.002138  0
H  H51  1  0.57296333  0.35572732  0.76191050  1  0.078823  0  0.095863  0.102885  0  1.00217  0
H  H52  1  0.47527440  0.84497018  0.22806634  1  0.0426  0  0.102106  0.108866  0  1.01891  0
H  H53  1  0.52472646  0.15502833  0.77193416  1  0.042584  0  0.102102  0.108847  0  1.018899  0
C  C54  1  0.53890330  0.01366851  0.30182560  1  0.397951  0  -0.061611  0.042073  0  3.885821  0
C  C55  1  0.46109954  0.98633000  0.69817265  1  0.397643  0  -0.061537  0.042293  0  3.885652  0
C  C56  1  0.59953373  0.12187060  0.29681119  1  0.012817  0  -0.164127  -0.213608  0  3.944904  0
C  C57  1  0.40046696  0.87812878  0.70318699  1  0.012887  0  -0.164202  -0.213752  0  3.944845  0
C  C58  1  0.72726041  0.12467737  0.18922673  1  0.408586  0  -0.065856  0.039211  0  3.902518  0
C  C59  1  0.27273879  0.87532463  0.81077101  1  0.408472  0  -0.065838  0.039262  0  3.902477  0
C  C60  1  0.89641219  0.24588714  0.09884890  1  0.371248  0  0.078113  0.200505  0  4.034565  0
C  C61  1  0.10358108  0.75412010  0.90115059  1  0.371221  0  0.078072  0.200499  0  4.034634  0
C  C62  1  0.96056406  0.17339345  0.00341631  1  0.031547  0  -0.121161  -0.234967  0  4.041019  0
C  C63  1  0.03943184  0.82661030  0.99658404  1  0.031672  0  -0.121161  -0.234977  0  4.041278  0
C  C64  1  0.08132535  0.19612913  0.91612665  1  -0.086334  0  -0.10268  -0.07215  0  4.072934  0
C  C65  1  0.91867253  0.80387462  0.08387452  1  -0.086304  0  -0.1026  -0.072071  0  4.072806  0
C  C66  1  0.13932367  0.28974315  0.92357672  1  -0.043725  0  -0.114494  -0.118335  0  4.057203  0
C  C67  1  0.86067124  0.71026060  0.07642552  1  -0.043663  0  -0.114529  -0.118393  0  4.057096  0
C  C68  1  0.07538207  0.36063459  0.01931145  1  -0.062904  0  -0.092965  -0.116316  0  4.00077  0
C  C69  1  0.92461054  0.63937091  0.98068919  1  -0.062783  0  -0.092972  -0.11631  0  4.000718  0
C  C70  1  0.95406045  0.34090324  0.10778415  1  0.011017  0  -0.031676  0.008199  0  3.990547  0
C  C71  1  0.04593232  0.65910139  0.89221188  1  0.011729  0  -0.031597  0.008405  0  3.990479  0
C  C72  1  0.89091501  0.41858567  0.20933687  1  -0.070846  0  -0.146402  -0.215433  0  3.897354  0
C  C73  1  0.10907462  0.58141983  0.79066485  1  -0.071716  0  -0.146473  -0.215659  0  3.897601  0
C  C74  1  0.80921691  0.28309726  0.41543074  1  -0.128582  0  -0.148294  -0.229352  0  3.878703  0
C  C75  1  0.19078592  0.71690124  0.58456827  1  -0.128415  0  -0.148302  -0.229313  0  3.878674  0
C  C76  1  0.85356321  0.15315336  0.41875521  1  -0.025855  0  -0.017177  0.120856  0  3.969131  0
C  C77  1  0.14644275  0.84684427  0.58124350  1  -0.030752  0  -0.017204  0.120759  0  3.969278  0
C  C78  1  0.94420238  0.08855115  0.32205299  1  -0.039438  0  -0.097005  -0.13686  0  3.996328  0
C  C79  1  0.05580474  0.91144560  0.67794768  1  -0.039526  0  -0.097074  -0.136888  0  3.996085  0
C  C80  1  0.80116066  0.09359916  0.52229073  1  -0.040114  0  -0.098679  -0.140763  0  3.999836  0
C  C81  1  0.19884250  0.90639760  0.47771061  1  -0.035337  0  -0.09869  -0.140775  0  3.999956  0
C  C82  1  0.97824489  0.96787660  0.32901531  1  -0.029138  0  -0.094826  -0.133473  0  3.982103  0
C  C83  1  0.02176273  0.03212278  0.67098497  1  -0.029062  0  -0.094781  -0.133398  0  3.981946  0
C  C84  1  0.83602289  0.97277425  0.52942464  1  -0.027652  0  -0.094567  -0.136959  0  4.007541  0
C  C85  1  0.16398077  0.02722513  0.47057632  1  -0.027539  0  -0.094561  -0.136923  0  4.007643  0
C  C86  1  0.92487581  0.90820439  0.43300460  1  -0.020785  0  -0.018694  0.118321  0  4.00991  0
C  C87  1  0.07513132  0.09179237  0.56699529  1  -0.020713  0  -0.018667  0.118264  0  4.009951  0
C  C88  1  0.96065353  0.77874387  0.44182447  1  -0.104883  0  -0.151236  -0.236072  0  3.906169  0
C  C89  1  0.03934847  0.22125376  0.55817645  1  -0.104073  0  -0.151234  -0.236009  0  3.905967  0
C  C90  1  0.71120336  0.74571463  0.45768656  1  -0.144628  0  -0.152137  -0.218184  0  3.904922  0
C  C91  1  0.28879865  0.25428300  0.54231282  1  -0.14466  0  -0.152196  -0.218216  0  3.905044  0
C  C92  1  0.63080319  0.71883915  0.39779715  1  0.013876  0  -0.028162  0.015087  0  3.973918  0
C  C93  1  0.36919833  0.28116110  0.60220220  1  0.013992  0  -0.028136  0.015163  0  3.973879  0
C  C94  1  0.60266650  0.60582070  0.40133330  1  -0.064847  0  -0.09403  -0.122196  0  3.988963  0
C  C95  1  0.39733303  0.39417956  0.59866832  1  -0.065081  0  -0.094022  -0.122259  0  3.989015  0
C  C96  1  0.53041729  0.57805799  0.34407002  1  0.004756  0  -0.106917  -0.110675  0  4.04899  0
C  C97  1  0.46958142  0.42194139  0.65593273  1  0.004888  0  -0.106895  -0.110597  0  4.049097  0
C  C98  1  0.48503768  0.66483032  0.28187304  1  -0.072461  0  -0.094571  -0.061446  0  4.037528  0
C  C99  1  0.51496119  0.33516818  0.71812894  1  -0.072329  0  -0.094559  -0.061433  0  4.037606  0
C  C100  1  0.51100551  0.77856380  0.27740691  1  -0.056134  0  -0.112432  -0.227032  0  4.054134  0
C  C101  1  0.48899600  0.22143645  0.72259245  1  -0.056152  0  -0.112432  -0.226988  0  4.054149  0
C  C102  1  0.58386608  0.80606165  0.33482301  1  0.432052  0  0.082938  0.201085  0  4.025075  0
C  C103  1  0.41613691  0.19393598  0.66517601  1  0.432004  0  0.082852  0.200985  0  4.025181  0
S  S104  1  0.94396882  0.36317826  0.32381894  1  -0.0236  0  -0.043616  0.052691  0  3.172548  0
S  S105  1  0.05602972  0.63682199  0.67617687  1  -0.02373  0  -0.043624  0.052684  0  3.172672  0
S  S106  1  0.89068578  0.70024851  0.36963393  1  -0.000428  0  -0.028428  0.082985  0  3.101847  0
S  S107  1  0.10931590  0.29975087  0.63036543  1  -0.000419  0  -0.028443  0.082925  0  3.101913  0
Br  Br108  1  0.19326560  0.50143236  0.37311836  1  -0.591795  0  -0.305186  -0.445712  0  1.546399  0
Br  Br109  1  0.80673724  0.49856614  0.62687834  1  -0.59175  0  -0.305196  -0.445722  0  1.546362  0
O  O110  1  0.61670778  0.91476111  0.33217435  1  -1.065449  0  -0.182499  -0.201364  0  2.536974  0
O  O111  1  0.38329604  0.08523739  0.66782276  1  -1.06546  0  -0.182478  -0.201415  0  2.536904  0
O  O112  1  0.77721447  0.23013300  0.18782528  1  -1.068175  0  -0.182598  -0.201435  0  2.556794  0
O  O113  1  0.22278045  0.76987075  0.81217389  1  -1.068092  0  -0.182591  -0.201485  0  2.556854  0
