# generated using pymatgen
data_MnH4(C2O3)2
_symmetry_space_group_name_H-M   'P 1'
_cell_length_a   8.32149251
_cell_length_b   8.32146203
_cell_length_c   8.32145893
_cell_angle_alpha   89.29487479
_cell_angle_beta   89.29453115
_cell_angle_gamma   89.29441514
_symmetry_Int_Tables_number   1
_chemical_formula_structural   MnH4(C2O3)2
_chemical_formula_sum   'Mn3 H12 C12 O18'
_cell_volume   576.10598864
_cell_formula_units_Z   3
loop_
 _symmetry_equiv_pos_site_id
 _symmetry_equiv_pos_as_xyz
  1  'x, y, z'
loop_
 _atom_site_type_symbol
 _atom_site_label
 _atom_site_symmetry_multiplicity
 _atom_site_fract_x
 _atom_site_fract_y
 _atom_site_fract_z
 _atom_site_occupancy
 _atom_site_pbe_bader_charge
 _atom_site_pbe_bader_spin_density
 _atom_site_pbe_cm5_charge
 _atom_site_pbe_ddec_charge
 _atom_site_pbe_ddec_spin_density
 _atom_site_pbe_ddec_sum_bond_order
 _atom_site_pbe_magmom
Mn  Mn0  1  0.50001453  0.99999839  0.00003498  1  1.534215  4.588443  0.590337  1.027243  4.705698  2.25385  4.52
Mn  Mn1  1  0.00001650  0.49999992  0.00000236  1  1.534294  4.588426  0.590302  1.027258  4.705686  2.253954  4.52
Mn  Mn2  1  0.99998581  0.00000089  0.50000279  1  1.534154  4.588445  0.590235  1.0271  4.705696  2.254134  4.52
H  H3  1  0.24036063  0.95490361  0.19604752  1  0.658612  0.002061  0.302014  0.390975  0.00084  0.942444  0.003
H  H4  1  0.19606223  0.24038333  0.95488740  1  0.658827  0.00206  0.302002  0.39088  0.000841  0.942589  0.003
H  H5  1  0.95489923  0.19603480  0.24039409  1  0.658289  0.002063  0.301961  0.390891  0.000841  0.942541  0.003
H  H6  1  0.75958030  0.04511244  0.80396740  1  0.658355  0.002062  0.301967  0.390995  0.000842  0.942427  0.003
H  H7  1  0.80397943  0.75959853  0.04510118  1  0.658138  0.002063  0.302004  0.390987  0.000841  0.942439  0.003
H  H8  1  0.04510768  0.80395372  0.75961538  1  0.658961  0.00206  0.30195  0.390905  0.000841  0.942537  0.003
H  H9  1  0.24219637  0.80917742  0.06811184  1  0.64535  0.002253  0.30009  0.38746  0.000922  0.948036  0.003
H  H10  1  0.06812581  0.24221286  0.80916130  1  0.645281  0.002254  0.300054  0.387353  0.000923  0.948163  0.003
H  H11  1  0.80917924  0.06812971  0.24222112  1  0.644825  0.002256  0.300145  0.387539  0.000923  0.947907  0.003
H  H12  1  0.75776601  0.19082134  0.93187536  1  0.644958  0.002255  0.300138  0.387569  0.000924  0.947868  0.003
H  H13  1  0.93188457  0.75778025  0.19081079  1  0.644854  0.002255  0.300192  0.38758  0.000923  0.947873  0.003
H  H14  1  0.19082299  0.93188655  0.75779277  1  0.645362  0.002253  0.30009  0.387448  0.000923  0.948069  0.003
C  C15  1  0.54604484  0.61603783  0.99580231  1  0.807318  0.013439  0.114172  0.172133  0.011246  4.118766  0.01
C  C16  1  0.99581709  0.54603637  0.61603981  1  0.807387  0.013441  0.11435  0.172229  0.011246  4.118921  0.01
C  C17  1  0.61603072  0.99581918  0.54605613  1  0.807181  0.013439  0.114251  0.17215  0.011244  4.119015  0.01
C  C18  1  0.45397402  0.38395281  0.00418770  1  0.807454  0.013437  0.11436  0.172191  0.011243  4.119279  0.01
C  C19  1  0.00420904  0.45396500  0.38395591  1  0.807216  0.013439  0.114369  0.172222  0.011246  4.119044  0.01
C  C20  1  0.38394400  0.00420125  0.45398580  1  0.807461  0.013436  0.114224  0.171973  0.011244  4.119175  0.01
C  C21  1  0.61642873  0.45250532  0.99126152  1  0.793021  0.013472  0.112342  0.170417  0.011226  4.11717  0.01
C  C22  1  0.99128379  0.61641731  0.45249523  1  0.793787  0.013474  0.112319  0.170402  0.011231  4.11743  0.01
C  C23  1  0.45249040  0.99128117  0.61644214  1  0.793853  0.013469  0.112406  0.170592  0.011225  4.117448  0.01
C  C24  1  0.38357458  0.54750960  0.00872475  1  0.794818  0.01347  0.112505  0.170736  0.011227  4.117406  0.01
C  C25  1  0.00874468  0.38356599  0.54750075  1  0.794783  0.013472  0.112587  0.170788  0.01123  4.117071  0.01
C  C26  1  0.54749268  0.00873907  0.38358763  1  0.794051  0.013472  0.112535  0.170745  0.011227  4.117337  0.01
O  O27  1  0.27213684  0.92287792  0.08540074  1  -1.292557  0.064803  -0.573178  -0.766979  0.045256  2.141675  0.028
O  O28  1  0.08540597  0.27214425  0.92286736  1  -1.292699  0.064827  -0.573152  -0.766821  0.045261  2.141836  0.028
O  O29  1  0.92288180  0.08538490  0.27215109  1  -1.291634  0.064823  -0.573155  -0.766943  0.045268  2.141848  0.028
O  O30  1  0.72784015  0.07712079  0.91463069  1  -1.291892  0.064834  -0.573184  -0.767095  0.045277  2.141709  0.028
O  O31  1  0.91463328  0.72784843  0.07711147  1  -1.291563  0.064823  -0.573291  -0.767108  0.045274  2.141737  0.028
O  O32  1  0.07712872  0.91461075  0.72785220  1  -1.2929  0.064825  -0.573109  -0.766879  0.045264  2.141778  0.028
O  O33  1  0.60379430  0.75572401  0.99003466  1  -1.188515  0.055756  -0.275355  -0.433325  0.039316  2.435063  0.025
O  O34  1  0.99004700  0.60377269  0.75571382  1  -1.188497  0.055745  -0.275394  -0.433272  0.039309  2.435728  0.025
O  O35  1  0.75570727  0.99004751  0.60379594  1  -1.188296  0.055748  -0.275387  -0.433268  0.039316  2.43545  0.025
O  O36  1  0.39623311  0.24428938  0.00996565  1  -1.188547  0.055743  -0.275325  -0.433243  0.039309  2.436182  0.025
O  O37  1  0.00998508  0.39621893  0.24427356  1  -1.18859  0.055758  -0.275393  -0.433346  0.03932  2.435516  0.025
O  O38  1  0.24427225  0.00998241  0.39623373  1  -1.188642  0.055742  -0.275284  -0.433153  0.039311  2.43571  0.025
O  O39  1  0.75671067  0.39340683  0.97947296  1  -1.191072  0.053997  -0.275405  -0.434548  0.038337  2.417451  0.024
O  O40  1  0.97949437  0.75670407  0.39340454  1  -1.191613  0.053999  -0.275464  -0.434582  0.038336  2.417594  0.024
O  O41  1  0.39340441  0.97948804  0.75672031  1  -1.191308  0.053972  -0.275426  -0.434617  0.038332  2.41774  0.024
O  O42  1  0.24331779  0.60658963  0.02050598  1  -1.191491  0.05397  -0.275434  -0.434525  0.038335  2.418343  0.024
O  O43  1  0.02052935  0.24330570  0.60657787  1  -1.191597  0.053964  -0.275467  -0.434506  0.038328  2.418165  0.024
O  O44  1  0.60658231  0.02052021  0.24332883  1  -1.191382  0.054  -0.275499  -0.434552  0.038341  2.418271  0.024
