# generated using pymatgen
data_HgH8C7(IN2)2
_symmetry_space_group_name_H-M   'P 1'
_cell_length_a   8.16927054
_cell_length_b   9.05608760
_cell_length_c   9.44840451
_cell_angle_alpha   89.99911452
_cell_angle_beta   89.99834587
_cell_angle_gamma   117.67409690
_symmetry_Int_Tables_number   1
_chemical_formula_structural   HgH8C7(IN2)2
_chemical_formula_sum   'Hg2 H16 C14 I4 N8'
_cell_volume   619.04438392
_cell_formula_units_Z   2
loop_
 _symmetry_equiv_pos_site_id
 _symmetry_equiv_pos_as_xyz
  1  'x, y, z'
loop_
 _atom_site_type_symbol
 _atom_site_label
 _atom_site_symmetry_multiplicity
 _atom_site_fract_x
 _atom_site_fract_y
 _atom_site_fract_z
 _atom_site_occupancy
 _atom_site_pbe_bader_spin_density
 _atom_site_pbe_cm5_charge
 _atom_site_pbe_ddec_charge
 _atom_site_pbe_ddec_spin_density
 _atom_site_pbe_ddec_sum_bond_order
 _atom_site_pbe_magmom
Hg  Hg0  1  0.12768001  0.11416665  0.25001228  1  0  0.415707  0.401583  0  2.715885  0
Hg  Hg1  1  0.87232653  0.88585046  0.74999195  1  0  0.415665  0.401559  0  2.715791  0
H  H2  1  0.67199064  0.11041216  0.74999977  1  0  0.104343  0.078672  0  1.057198  0
H  H3  1  0.32801523  0.88958147  0.24999917  1  0  0.104263  0.078577  0  1.057368  0
H  H4  1  0.43533912  0.95149220  0.74999607  1  0  0.121906  0.100316  0  0.99891  0
H  H5  1  0.56465627  0.04850741  0.24998911  1  0  0.121917  0.100287  0  0.999005  0
H  H6  1  0.23082067  0.95880812  0.55458789  1  0  0.108227  0.077588  0  1.088261  0
H  H7  1  0.76920109  0.04120200  0.05460115  1  0  0.10819  0.077558  0  1.088162  0
H  H8  1  0.76919080  0.04120661  0.44539941  1  0  0.108168  0.07754  0  1.088272  0
H  H9  1  0.23079430  0.95879514  0.94538720  1  0  0.108189  0.077519  0  1.088198  0
H  H10  1  0.57094645  0.43123258  0.37334589  1  0  0.107758  0.108249  0  1.028131  0
H  H11  1  0.42903189  0.56873601  0.87329257  1  0  0.10783  0.10844  0  1.027428  0
H  H12  1  0.42907554  0.56879840  0.62666786  1  0  0.107775  0.108266  0  1.02804  0
H  H13  1  0.57096099  0.43124132  0.12672647  1  0  0.107838  0.108489  0  1.027277  0
H  H14  1  0.74215729  0.39541887  0.61377711  1  0  0.100992  0.112016  0  1.077674  0
H  H15  1  0.25782859  0.60457719  0.11375360  1  0  0.100972  0.111987  0  1.077791  0
H  H16  1  0.25786406  0.60459357  0.38622923  1  0  0.101043  0.112065  0  1.077672  0
H  H17  1  0.74215069  0.39539248  0.88627074  1  0  0.101044  0.112093  0  1.07788  0
C  C18  1  0.52714917  0.08606803  0.74999862  1  0  0.052432  0.020896  0  3.834967  0
C  C19  1  0.47285301  0.91393295  0.25000349  1  0  0.052501  0.021084  0  3.834983  0
C  C20  1  0.34327296  0.08297770  0.53597334  1  0  0.126454  0.080504  0  3.947194  0
C  C21  1  0.65673926  0.91701937  0.03597343  1  0  0.126435  0.080477  0  3.946985  0
C  C22  1  0.65674222  0.91703462  0.46400866  1  0  0.126493  0.080498  0  3.946962  0
C  C23  1  0.34325056  0.08297149  0.96401598  1  0  0.126586  0.080581  0  3.94676  0
C  C24  1  0.52412332  0.32698406  0.44603037  1  0  -0.008569  -0.032937  0  3.99363  0
C  C25  1  0.47584007  0.67298392  0.94601995  1  0  -0.00865  -0.033118  0  3.9928  0
C  C26  1  0.47589496  0.67303697  0.55397492  1  0  -0.008638  -0.032948  0  3.993808  0
C  C27  1  0.52415343  0.32699466  0.05398323  1  0  -0.008606  -0.033047  0  3.992827  0
C  C28  1  0.61049856  0.31196960  0.56561569  1  0  -0.005302  -0.09749  0  3.907746  0
C  C29  1  0.38950716  0.68803856  0.06561200  1  0  -0.005326  -0.097505  0  3.908149  0
C  C30  1  0.38951412  0.68803280  0.43439172  1  0  -0.005284  -0.097485  0  3.908024  0
C  C31  1  0.61049685  0.31194886  0.93439435  1  0  -0.005309  -0.097606  0  3.90796  0
I  I32  1  0.96832621  0.31991257  0.25000642  1  0  -0.166283  -0.31859  0  1.555996  0
I  I33  1  0.03163084  0.68006411  0.74997982  1  0  -0.166287  -0.318561  0  1.55585  0
I  I34  1  0.94489664  0.76944845  0.24999521  1  0  -0.21753  -0.338617  0  1.372854  0
I  I35  1  0.05507653  0.23056805  0.75001537  1  0  -0.217498  -0.338547  0  1.37281  0
N  N36  1  0.35881518  0.18313378  0.42842944  1  0  -0.339187  -0.237866  0  3.524185  0
N  N37  1  0.64117636  0.81686257  0.92842552  1  0  -0.339081  -0.237833  0  3.523692  0
N  N38  1  0.64119384  0.81689573  0.57156738  1  0  -0.339153  -0.237909  0  3.524131  0
N  N39  1  0.35883879  0.18313000  0.07157342  1  0  -0.339254  -0.23796  0  3.523889  0
N  N40  1  0.49403103  0.15675361  0.62163722  1  0  -0.245698  0.017736  0  3.765511  0
N  N41  1  0.50596619  0.84325347  0.12163690  1  0  -0.245667  0.01781  0  3.76532  0
N  N42  1  0.50596189  0.84324843  0.37836384  1  0  -0.245681  0.017797  0  3.765488  0
N  N43  1  0.49402856  0.15673254  0.87835993  1  0  -0.245726  0.017833  0  3.765309  0
