# generated using pymatgen
data_GeH26C30(NO)4
_symmetry_space_group_name_H-M   'P 1'
_cell_length_a   8.57610567
_cell_length_b   12.17256691
_cell_length_c   15.30000000
_cell_angle_alpha   86.60185215
_cell_angle_beta   89.19862450
_cell_angle_gamma   75.56384898
_symmetry_Int_Tables_number   1
_chemical_formula_structural   GeH26C30(NO)4
_chemical_formula_sum   'Ge2 H52 C60 N8 O8'
_cell_volume   1544.06568961
_cell_formula_units_Z   2
loop_
 _symmetry_equiv_pos_site_id
 _symmetry_equiv_pos_as_xyz
  1  'x, y, z'
loop_
 _atom_site_type_symbol
 _atom_site_label
 _atom_site_symmetry_multiplicity
 _atom_site_fract_x
 _atom_site_fract_y
 _atom_site_fract_z
 _atom_site_occupancy
 _atom_site_hle17_bader_spin_density
 _atom_site_hle17_ddec_charge
 _atom_site_hle17_ddec_spin_density
 _atom_site_hle17_ddec_sum_bond_order
 _atom_site_hle17_magmom
 _atom_site_hse06_10hf_bader_spin_density
 _atom_site_hse06_10hf_ddec_charge
 _atom_site_hse06_10hf_ddec_spin_density
 _atom_site_hse06_10hf_ddec_sum_bond_order
 _atom_site_hse06_10hf_magmom
 _atom_site_hse06_bader_spin_density
 _atom_site_hse06_ddec_charge
 _atom_site_hse06_ddec_spin_density
 _atom_site_hse06_ddec_sum_bond_order
 _atom_site_hse06_magmom
 _atom_site_pbe_bader_charge
 _atom_site_pbe_bader_spin_density
 _atom_site_pbe_cm5_charge
 _atom_site_pbe_ddec_charge
 _atom_site_pbe_ddec_spin_density
 _atom_site_pbe_ddec_sum_bond_order
 _atom_site_pbe_magmom
Ge  Ge0  1  0.77977559  0.20083270  0.22572574  1  0  1.465478  0  3.167912  0  0  1.281155  0  3.578905  0  0  1.337482  0  3.551584  0  2.237716  0  0.65064  1.242059  0  3.598122  0
Ge  Ge1  1  0.22022483  0.79916803  0.77427455  1  0  1.465514  0  3.167675  0  0  1.28115  0  3.578743  0  0  1.33746  0  3.551453  0  2.237732  0  0.650612  1.242026  0  3.598031  0
H  H2  1  0.65257154  0.56692137  0.30873216  1  0  0.096838  0  0.953884  0  0  0.111899  0  1.006162  0  0  0.114215  0  1.005487  0  0.048479  0  0.103464  0.110181  0  1.006799  0
H  H3  1  0.34743065  0.43307766  0.69127016  1  0  0.096863  0  0.953969  0  0  0.111914  0  1.006246  0  0  0.114231  0  1.005572  0  0.048894  0  0.103469  0.110195  0  1.006885  0
H  H4  1  0.47535069  0.71020712  0.20875725  1  0  0.085125  0  0.974875  0  0  0.09565  0  1.036913  0  0  0.097927  0  1.036581  0  0.082757  0  0.094984  0.094032  0  1.037173  0
H  H5  1  0.52465207  0.28979361  0.79124433  1  0  0.085156  0  0.974837  0  0  0.095654  0  1.036899  0  0  0.097931  0  1.036567  0  0.08277  0  0.094985  0.094037  0  1.037159  0
H  H6  1  0.34426285  0.64877017  0.08168414  1  0  0.103013  0  0.978366  0  0  0.109844  0  1.044971  0  0  0.113293  0  1.04307  0  0.122001  0  0.098999  0.107308  0  1.046476  0
H  H7  1  0.65574078  0.35123141  0.91831674  1  0  0.103031  0  0.978349  0  0  0.109857  0  1.044953  0  0  0.113307  0  1.043049  0  0.121982  0  0.099032  0.107328  0  1.046451  0
H  H8  1  0.39464749  0.44551239  0.05474039  1  0  0.10283  0  0.963754  0  0  0.114713  0  1.023329  0  0  0.116805  0  1.023775  0  0.105036  0  0.104989  0.113214  0  1.023094  0
H  H9  1  0.60535381  0.55448919  0.94525920  1  0  0.10283  0  0.963781  0  0  0.114717  0  1.023347  0  0  0.11681  0  1.023792  0  0.10478  0  0.104981  0.113218  0  1.023112  0
H  H10  1  0.26917577  0.31676612  0.13393142  1  0  0.132443  0  0.936556  0  0  0.151704  0  0.994776  0  0  0.15418  0  0.993953  0  0.084048  0  0.100114  0.14993  0  0.995412  0
H  H11  1  0.73082233  0.68323461  0.86606889  1  0  0.132414  0  0.936605  0  0  0.151698  0  0.994795  0  0  0.154175  0  0.993971  0  0.084071  0  0.10011  0.149924  0  0.995432  0
H  H12  1  0.27403772  0.18205060  0.09299328  1  0  0.128678  0  0.94755  0  0  0.150205  0  1.005489  0  0  0.152053  0  1.005966  0  0.068914  0  0.099098  0.148897  0  1.00517  0
H  H13  1  0.72596214  0.81794843  0.90700709  1  0  0.128716  0  0.947557  0  0  0.150251  0  1.005487  0  0  0.152099  0  1.005964  0  0.068905  0  0.099122  0.148943  0  1.005169  0
H  H14  1  0.32404987  0.29024566  0.02372312  1  0  0.122222  0  0.936459  0  0  0.14549  0  0.993987  0  0  0.147353  0  0.994087  0  0.059565  0  0.099389  0.144205  0  0.993893  0
H  H15  1  0.67594909  0.70975592  0.97627779  1  0  0.122224  0  0.936453  0  0  0.145491  0  0.993992  0  0  0.147353  0  0.994091  0  0.059567  0  0.09939  0.144205  0  0.993898  0
H  H16  1  0.50117513  0.04731808  0.07323625  1  0  0.1059  0  0.99545  0  0  0.117428  0  1.059583  0  0  0.119603  0  1.062627  0  0.035292  0  0.095904  0.115926  0  1.057632  0
H  H17  1  0.49882413  0.95268265  0.92676339  1  0  0.10593  0  0.995496  0  0  0.117462  0  1.059612  0  0  0.119637  0  1.062657  0  0.035245  0  0.095921  0.11596  0  1.057661  0
H  H18  1  0.86278080  0.85064887  0.13766167  1  0  0.13689  0  0.928885  0  0  0.158615  0  0.98292  0  0  0.161214  0  0.981498  0  0.073959  0  0.104359  0.156777  0  0.983935  0
H  H19  1  0.13721816  0.14935271  0.86233794  1  0  0.136857  0  0.928895  0  0  0.158573  0  0.982943  0  0  0.161171  0  0.981524  0  0.074057  0  0.104321  0.156735  0  0.983958  0
H  H20  1  0.83724142  0.89914635  0.02573236  1  0  0.126349  0  0.953389  0  0  0.145576  0  1.017954  0  0  0.147859  0  1.017777  0  0.069835  0  0.099023  0.14397  0  1.018105  0
H  H21  1  0.16275784  0.10085438  0.97426794  1  0  0.126365  0  0.953377  0  0  0.145588  0  1.017935  0  0  0.147873  0  1.017758  0  0.069831  0  0.099025  0.143984  0  1.018085  0
H  H22  1  0.66949892  0.87724325  0.08661822  1  0  0.118685  0  0.945865  0  0  0.143782  0  0.999724  0  0  0.145668  0  0.999229  0  0.042372  0  0.09759  0.142429  0  1.000086  0
H  H23  1  0.33049974  0.12275918  0.91338200  1  0  0.118694  0  0.945853  0  0  0.143789  0  0.999701  0  0  0.145677  0  0.999204  0  0.042395  0  0.097596  0.142433  0  1.000067  0
H  H24  1  0.06528824  0.91876542  0.05648190  1  0  0.11542  0  0.976924  0  0  0.125384  0  1.038703  0  0  0.128218  0  1.037612  0  0.118016  0  0.106408  0.123296  0  1.039699  0
H  H25  1  0.93471219  0.08123531  0.94351708  1  0  0.115366  0  0.977005  0  0  0.125315  0  1.038802  0  0  0.12815  0  1.037713  0  0.118044  0  0.10638  0.123228  0  1.039798  0
H  H26  1  0.35160429  0.85243242  0.08521247  1  0  0.092366  0  0.955594  0  0  0.103835  0  1.016317  0  0  0.10608  0  1.016165  0  0.084075  0  0.100173  0.102209  0  1.016534  0
H  H27  1  0.64839557  0.14756661  0.91478725  1  0  0.092371  0  0.95561  0  0  0.103838  0  1.016337  0  0  0.106083  0  1.016184  0  0.084081  0  0.100178  0.102212  0  1.016552  0
H  H28  1  0.47491950  0.91976469  0.21422732  1  0  0.089118  0  0.956863  0  0  0.101011  0  1.01594  0  0  0.102955  0  1.015967  0  0.032541  0  0.099255  0.099583  0  1.016014  0
H  H29  1  0.52508036  0.08023434  0.78577305  1  0  0.089117  0  0.956867  0  0  0.10101  0  1.015945  0  0  0.102954  0  1.015972  0  0.032518  0  0.099254  0.099582  0  1.01602  0
H  H30  1  0.30464238  0.05479642  0.30994199  1  0  0.102117  0  0.972799  0  0  0.113767  0  1.03154  0  0  0.115745  0  1.031687  0  0.083901  0  0.103009  0.112297  0  1.031544  0
H  H31  1  0.69535894  0.94520176  0.69005841  1  0  0.102077  0  0.972849  0  0  0.113741  0  1.031571  0  0  0.115718  0  1.031718  0  0.083873  0  0.103002  0.112272  0  1.031574  0
H  H32  1  0.13989643  0.99145854  0.41873821  1  0  0.125709  0  0.939415  0  0  0.146274  0  0.997988  0  0  0.148364  0  0.997946  0  0.061291  0  0.099348  0.144801  0  0.998043  0
H  H33  1  0.86010256  0.00853964  0.58126351  1  0  0.125731  0  0.939373  0  0  0.146306  0  0.997943  0  0  0.148395  0  0.997902  0  0.061326  0  0.099383  0.144833  0  0.997997  0
H  H34  1  0.07341374  0.08515419  0.50534601  1  0  0.127649  0  0.944192  0  0  0.150246  0  0.999363  0  0  0.152297  0  0.998771  0  0.071077  0  0.099205  0.148776  0  0.999796  0
H  H35  1  0.92658439  0.91484314  0.49465576  1  0  0.127614  0  0.944248  0  0  0.150227  0  0.999409  0  0  0.152275  0  0.99882  0  0.07063  0  0.099217  0.148757  0  0.999841  0
H  H36  1  0.22369183  0.10813898  0.43237024  1  0  0.122612  0  0.964909  0  0  0.144384  0  1.023774  0  0  0.14584  0  1.024843  0  0.073486  0  0.097035  0.143368  0  1.023044  0
H  H37  1  0.77630686  0.89186005  0.56763080  1  0  0.122629  0  0.964868  0  0  0.144417  0  1.023724  0  0  0.145874  0  1.024793  0  0.073669  0  0.097056  0.143401  0  1.022994  0
H  H38  1  0.88688213  0.24550052  0.48883321  1  0  0.115674  0  0.965658  0  0  0.128818  0  1.020942  0  0  0.131591  0  1.022826  0  0.067187  0  0.099828  0.126872  0  1.019816  0
H  H39  1  0.11311483  0.75449681  0.51116727  1  0  0.115713  0  0.965596  0  0  0.128861  0  1.020877  0  0  0.131635  0  1.022758  0  0.067187  0  0.099846  0.126916  0  1.019752  0
H  H40  1  0.53315115  0.45345467  0.41522774  1  0  0.122733  0  0.947068  0  0  0.143129  0  1.005053  0  0  0.145193  0  1.004812  0  0.037295  0  0.099037  0.141677  0  1.005242  0
H  H41  1  0.46684987  0.54654436  0.58477263  1  0  0.122689  0  0.947067  0  0  0.143092  0  1.005056  0  0  0.145154  0  1.004817  0  0.03724  0  0.09903  0.141639  0  1.005245  0
H  H42  1  0.71257840  0.48966273  0.44482404  1  0  0.121774  0  0.92722  0  0  0.145648  0  0.980597  0  0  0.148056  0  0.979679  0  0.042876  0  0.101748  0.143987  0  0.981204  0
H  H43  1  0.28742496  0.51033630  0.55517499  1  0  0.121777  0  0.927297  0  0  0.145662  0  0.980657  0  0  0.14807  0  0.979739  0  0.042814  0  0.101769  0.144001  0  0.981263  0
H  H44  1  0.65291079  0.37872309  0.50529933  1  0  0.121892  0  0.93325  0  0  0.145997  0  0.985784  0  0  0.148069  0  0.985113  0  0.052915  0  0.100914  0.144545  0  0.986244  0
H  H45  1  0.34709080  0.62127764  0.49470160  1  0  0.121871  0  0.933247  0  0  0.145987  0  0.985782  0  0  0.148057  0  0.985111  0  0.052951  0  0.100917  0.144535  0  0.986241  0
H  H46  1  0.93373610  0.48124036  0.15816455  1  0  0.105136  0  0.941506  0  0  0.113055  0  1.001547  0  0  0.117024  0  0.99905  0  0.10428  0  0.103935  0.110213  0  1.003383  0
H  H47  1  0.06626666  0.51876037  0.84183834  1  0  0.105099  0  0.941506  0  0  0.113026  0  1.001547  0  0  0.116999  0  0.999044  0  0.104368  0  0.103911  0.110184  0  1.003383  0
H  H48  1  0.97222278  0.34932465  0.90257848  1  0  0.100206  0  0.946505  0  0  0.111043  0  1.003822  0  0  0.11466  0  1.001857  0  0.088261  0  0.105966  0.108436  0  1.005306  0
H  H49  1  0.02777734  0.65067693  0.09742308  1  0  0.100256  0  0.946504  0  0  0.111104  0  1.003796  0  0  0.114721  0  1.00183  0  0.088235  0  0.105983  0.108489  0  1.005289  0
H  H50  1  0.54795300  0.18829005  0.45419020  1  0  0.099291  0  0.954872  0  0  0.108089  0  1.017011  0  0  0.111332  0  1.015354  0  0.115701  0  0.10061  0.10574  0  1.018307  0
H  H51  1  0.45205122  0.81170983  0.54580879  1  0  0.099302  0  0.954856  0  0  0.10809  0  1.017005  0  0  0.111333  0  1.015347  0  0.11581  0  0.100617  0.105741  0  1.018301  0
H  H52  1  0.60210386  0.83745619  0.40593724  1  0  0.098009  0  0.939092  0  0  0.108031  0  0.9965  0  0  0.112187  0  0.993744  0  0.078667  0  0.103611  0.105036  0  0.998574  0
H  H53  1  0.39789423  0.16254454  0.59406046  1  0  0.098062  0  0.93903  0  0  0.108052  0  0.996471  0  0  0.112208  0  0.993714  0  0.078449  0  0.103627  0.105057  0  0.998544  0
C  C54  1  0.61040915  0.42336117  0.24500919  1  0  0.144962  0  3.795944  0  0  0.133381  0  4.050364  0  0  0.138152  0  4.074333  0  0.32945  0  0.094285  0.130116  0  4.034244  0
C  C55  1  0.38959098  0.57664041  0.75499237  1  0  0.144981  0  3.795857  0  0  0.133425  0  4.050234  0  0  0.138191  0  4.0742  0  0.329446  0  0.094337  0.130165  0  4.034109  0
C  C56  1  0.58947679  0.53948662  0.25619573  1  0  -0.155045  0  3.780566  0  0  -0.174147  0  4.032903  0  0  -0.178212  0  4.05548  0  0.010579  0  -0.10114  -0.171385  0  4.01769  0
C  C57  1  0.41052161  0.46051326  0.74380396  1  0  -0.155093  0  3.780527  0  0  -0.174193  0  4.032841  0  0  -0.178255  0  4.055418  0  0.010079  0  -0.101176  -0.171431  0  4.017628  0
C  C58  1  0.49249078  0.62017556  0.19848166  1  0  -0.079979  0  3.818434  0  0  -0.094468  0  4.069314  0  0  -0.096921  0  4.093147  0  -0.103795  0  -0.102947  -0.092749  0  4.053079  0
C  C59  1  0.50751258  0.37982347  0.80152065  1  0  -0.079989  0  3.818426  0  0  -0.094462  0  4.069312  0  0  -0.096915  0  4.093144  0  -0.103873  0  -0.102924  -0.092745  0  4.053079  0
C  C60  1  0.41983997  0.58597538  0.12724181  1  0  -0.075658  0  3.782086  0  0  -0.092064  0  4.03728  0  0  -0.094509  0  4.059663  0  -0.027324  0  -0.099244  -0.090327  0  4.022129  0
C  C61  1  0.58016045  0.41402535  0.87275783  1  0  -0.075627  0  3.782092  0  0  -0.092017  0  4.037268  0  0  -0.094463  0  4.059651  0  -0.027111  0  -0.099269  -0.090284  0  4.022112  0
C  C62  1  0.44514330  0.47060957  0.11287079  1  0  -0.139683  0  3.73527  0  0  -0.15954  0  3.987661  0  0  -0.163377  0  4.01013  0  -0.04099  0  -0.094009  -0.156951  0  3.972509  0
C  C63  1  0.55485829  0.52939116  0.88713014  1  0  -0.139751  0  3.735248  0  0  -0.159632  0  3.987651  0  0  -0.163468  0  4.010112  0  -0.041015  0  -0.094028  -0.157044  0  3.972502  0
C  C64  1  0.53813159  0.38797394  0.17143219  1  0  0.151339  0  3.780537  0  0  0.142222  0  4.028513  0  0  0.147442  0  4.052143  0  0.388037  0  0.098935  0.138627  0  4.012646  0
C  C65  1  0.46186621  0.61202764  0.82856742  1  0  0.151344  0  3.78066  0  0  0.142241  0  4.028603  0  0  0.14747  0  4.052223  0  0.388321  0  0.098945  0.138647  0  4.012732  0
C  C66  1  0.50698654  0.20614172  0.11822768  1  0  0.400996  0  3.686974  0  0  0.390974  0  3.946762  0  0  0.415085  0  3.955613  0  0.452143  0  0.146448  0.375284  0  3.940034  0
C  C67  1  0.49301156  0.79385901  0.88177197  1  0  0.400995  0  3.686849  0  0  0.390994  0  3.94662  0  0  0.415111  0  3.955459  0  0.452205  0  0.146426  0.375304  0  3.939893  0
C  C68  1  0.33421548  0.25171703  0.09097670  1  0  -0.379189  0  3.672779  0  0  -0.458375  0  3.906273  0  0  -0.463622  0  3.910312  0  -0.076155  0  -0.234278  -0.454658  0  3.90317  0
C  C69  1  0.66578465  0.74828455  0.90902355  1  0  -0.379175  0  3.672793  0  0  -0.458395  0  3.906254  0  0  -0.463639  0  3.910289  0  -0.076153  0  -0.234277  -0.454677  0  3.903152  0
C  C70  1  0.58058966  0.09257645  0.10174212  1  0  -0.379116  0  3.700212  0  0  -0.408967  0  3.972462  0  0  -0.431092  0  3.993353  0  0.087844  0  -0.129348  -0.394593  0  3.958199  0
C  C71  1  0.41941073  0.90742768  0.89825866  1  0  -0.379208  0  3.700229  0  0  -0.409066  0  3.972539  0  0  -0.431203  0  3.993407  0  0.087851  0  -0.129363  -0.39469  0  3.958278  0
C  C72  1  0.73897798  0.02714415  0.11738607  1  0  0.403928  0  3.685847  0  0  0.393052  0  3.946937  0  0  0.417183  0  3.956096  0  0.496564  0  0.149929  0.377235  0  3.940191  0
C  C73  1  0.26102185  0.97285828  0.88261349  1  0  0.404099  0  3.68579  0  0  0.393147  0  3.946988  0  0  0.41732  0  3.956076  0  0.496542  0  0.14995  0.377329  0  3.94024  0
C  C74  1  0.77993899  0.90662894  0.09055291  1  0  -0.3789  0  3.667644  0  0  -0.460322  0  3.90215  0  0  -0.465171  0  3.905729  0  -0.05469  0  -0.231767  -0.456789  0  3.899365  0
C  C75  1  0.22006084  0.09337349  0.90944665  1  0  -0.378959  0  3.667644  0  0  -0.460335  0  3.902157  0  0  -0.465198  0  3.905719  0  -0.054838  0  -0.231753  -0.456796  0  3.899369  0
C  C76  1  0.01254308  0.01913813  0.17091680  1  0  0.159126  0  3.774631  0  0  0.147688  0  4.025788  0  0  0.15337  0  4.048748  0  0.361948  0  0.103832  0.1438  0  4.010375  0
C  C77  1  0.98745765  0.98086175  0.82908288  1  0  0.159138  0  3.774625  0  0  0.147722  0  4.025732  0  0  0.153401  0  4.048695  0  0.361922  0  0.103834  0.143833  0  4.010318  0
C  C78  1  0.11282739  0.94678648  0.11423093  1  0  -0.142127  0  3.719137  0  0  -0.161575  0  3.970253  0  0  -0.16566  0  3.991673  0  -0.038547  0  -0.094041  -0.158848  0  3.955892  0
C  C79  1  0.88717334  0.05321340  0.88576809  1  0  -0.142061  0  3.719182  0  0  -0.161509  0  3.970294  0  0  -0.165591  0  3.991705  0  -0.038543  0  -0.093992  -0.158781  0  3.955931  0
C  C80  1  0.27766279  0.90898690  0.13072384  1  0  -0.070381  0  3.788232  0  0  -0.086622  0  4.043506  0  0  -0.088534  0  4.065842  0  -0.002857  0  -0.097338  -0.085276  0  4.028359  0
C  C81  1  0.72233764  0.09101383  0.86927579  1  0  -0.070408  0  3.78829  0  0  -0.086652  0  4.043563  0  0  -0.088563  0  4.065899  0  -0.002861  0  -0.097376  -0.085305  0  4.028414  0
C  C82  1  0.34554487  0.94612710  0.20224936  1  0  -0.087129  0  3.822488  0  0  -0.102912  0  4.079667  0  0  -0.105302  0  4.103045  0  -0.020308  0  -0.101544  -0.101229  0  4.063777  0
C  C83  1  0.65445469  0.05387278  0.79775098  1  0  -0.087153  0  3.822521  0  0  -0.102934  0  4.079696  0  0  -0.105325  0  4.103076  0  -0.020276  0  -0.101543  -0.101251  0  4.063806  0
C  C84  1  0.24874951  0.02142811  0.25777075  1  0  -0.141007  0  3.741633  0  0  -0.159518  0  3.99055  0  0  -0.16332  0  4.01298  0  -0.076876  0  -0.096062  -0.156928  0  3.975425  0
C  C85  1  0.75125151  0.97857092  0.74222961  1  0  -0.140997  0  3.741698  0  0  -0.159517  0  3.990614  0  0  -0.163319  0  4.013044  0  -0.076839  0  -0.096084  -0.156927  0  3.975486  0
C  C86  1  0.08205609  0.05663351  0.24455526  1  0  0.155427  0  3.768102  0  0  0.145893  0  4.017302  0  0  0.150794  0  4.040379  0  0.410589  0  0.101201  0.142524  0  4.001834  0
C  C87  1  0.91794377  0.94336552  0.75544511  1  0  0.155432  0  3.768064  0  0  0.145901  0  4.017248  0  0  0.150803  0  4.040324  0  0.410583  0  0.101224  0.142541  0  4.001781  0
C  C88  1  0.98369816  0.15462179  0.37888666  1  0  0.394373  0  3.701065  0  0  0.387635  0  3.957982  0  0  0.410938  0  3.968208  0  0.515016  0  0.143911  0.372459  0  3.950372  0
C  C89  1  0.01630083  0.84537639  0.62111376  1  0  0.394333  0  3.701169  0  0  0.387593  0  3.958108  0  0  0.410896  0  3.968335  0  0.514997  0  0.143882  0.372426  0  3.950499  0
C  C90  1  0.11148948  0.08013917  0.43678662  1  0  -0.384075  0  3.690509  0  0  -0.46544  0  3.925343  0  0  -0.4711  0  3.931303  0  -0.086927  0  -0.236897  -0.461426  0  3.920926  0
C  C91  1  0.88850981  0.91985816  0.56321449  1  0  -0.38407  0  3.690549  0  0  -0.465505  0  3.925478  0  0  -0.471163  0  3.931439  0  -0.086657  0  -0.23698  -0.46149  0  3.921059  0
C  C92  1  0.87293494  0.24342466  0.41840384  1  0  -0.386962  0  3.72505  0  0  -0.417773  0  3.994545  0  0  -0.440101  0  4.016618  0  -0.014592  0  -0.135809  -0.40326  0  3.979405  0
C  C93  1  0.12706319  0.75657267  0.58159728  1  0  -0.386993  0  3.724999  0  0  -0.417816  0  3.994497  0  0  -0.440144  0  4.016569  0  -0.015319  0  -0.135794  -0.403304  0  3.979351  0
C  C94  1  0.75072370  0.33116624  0.37990461  1  0  0.380207  0  3.723209  0  0  0.371197  0  3.987685  0  0  0.393853  0  3.998813  0  0.52575  0  0.138052  0.35643  0  3.979539  0
C  C95  1  0.24927646  0.66883194  0.62009645  1  0  0.380176  0  3.723174  0  0  0.3712  0  3.987627  0  0  0.393855  0  3.998752  0  0.526494  0  0.138067  0.35644  0  3.979474  0
C  C96  1  0.65645576  0.41837844  0.43922762  1  0  -0.377008  0  3.708678  0  0  -0.457141  0  3.945759  0  0  -0.461888  0  3.950004  0  -0.046589  0  -0.231006  -0.453708  0  3.942387  0
C  C97  1  0.34354820  0.58161889  0.56077477  1  0  -0.37696  0  3.708688  0  0  -0.457117  0  3.945753  0  0  -0.461874  0  3.950024  0  -0.046546  0  -0.231045  -0.453685  0  3.942377  0
C  C98  1  0.89206060  0.30477749  0.06822860  1  0  0.636332  0  3.877146  0  0  0.585712  0  4.181204  0  0  0.619436  0  4.172039  0  1.564457  0  0.219696  0.562839  0  4.18677  0
C  C99  1  0.10794509  0.69522154  0.93177173  1  0  0.636326  0  3.877101  0  0  0.585675  0  4.181202  0  0  0.619386  0  4.172048  0  1.564433  0  0.219671  0.562805  0  4.186769  0
C  C100  1  0.94867870  0.40580266  0.03365130  1  0  -0.054756  0  3.754506  0  0  -0.033426  0  3.986478  0  0  -0.039459  0  4.008603  0  -0.076292  0  -0.014942  -0.02949  0  3.971549  0
C  C101  1  0.05132116  0.59419637  0.96635038  1  0  -0.054839  0  3.754379  0  0  -0.033493  0  3.986352  0  0  -0.039514  0  4.008473  0  -0.075998  0  -0.014971  -0.029558  0  3.971423  0
C  C102  1  0.96331278  0.49042832  0.08907455  1  0  -0.074557  0  3.739899  0  0  -0.096693  0  3.989834  0  0  -0.097268  0  4.009149  0  -0.021752  0  -0.084787  -0.096219  0  3.976703  0
C  C103  1  0.03668968  0.50957325  0.91092699  1  0  -0.074451  0  3.73985  0  0  -0.096594  0  3.989771  0  0  -0.097173  0  4.009085  0  -0.021956  0  -0.084733  -0.09612  0  3.976642  0
C  C104  1  0.98540275  0.41585988  0.94446755  1  0  -0.083321  0  3.755773  0  0  -0.103472  0  4.001409  0  0  -0.105253  0  4.022312  0  -0.061684  0  -0.084291  -0.102146  0  3.987184  0
C  C105  1  0.01460001  0.58414085  0.05553468  1  0  -0.083315  0  3.755717  0  0  -0.103469  0  4.00134  0  0  -0.105254  0  4.022238  0  -0.062074  0  -0.084263  -0.102138  0  3.987119  0
C  C106  1  0.68061575  0.02589507  0.34179924  1  0  0.637368  0  3.885728  0  0  0.587991  0  4.191386  0  0  0.621076  0  4.183145  0  1.568993  0  0.215452  0.565495  0  4.196402  0
C  C107  1  0.31937392  0.97410311  0.65819602  1  0  0.637287  0  3.885831  0  0  0.587998  0  4.191395  0  0  0.621082  0  4.183155  0  1.569095  0  0.215445  0.565503  0  4.19641  0
C  C108  1  0.58209029  0.01427861  0.42215410  1  0  -0.054935  0  3.749124  0  0  -0.033333  0  3.982986  0  0  -0.038498  0  4.003727  0  -0.031531  0  -0.014681  -0.029971  0  3.969016  0
C  C109  1  0.41790634  0.98572297  0.57784487  1  0  -0.054918  0  3.749029  0  0  -0.03333  0  3.982844  0  0  -0.038495  0  4.003585  0  -0.031209  0  -0.014694  -0.029968  0  3.968877  0
C  C110  1  0.52586883  0.10634439  0.47495583  1  0  -0.081032  0  3.741103  0  0  -0.102884  0  3.991151  0  0  -0.103095  0  4.009884  0  -0.050016  0  -0.086736  -0.1027  0  3.978484  0
C  C111  1  0.47413193  0.89365210  0.52504400  1  0  -0.081072  0  3.740935  0  0  -0.102922  0  3.990991  0  0  -0.103132  0  4.009721  0  -0.050038  0  -0.086756  -0.102738  0  3.978325  0
C  C112  1  0.55545284  0.90803352  0.44753481  1  0  -0.082183  0  3.761673  0  0  -0.103046  0  4.008768  0  0  -0.104582  0  4.028319  0  -0.080137  0  -0.08386  -0.1019  0  3.995498  0
C  C113  1  0.44454702  0.09196551  0.55246295  1  0  -0.08223  0  3.761678  0  0  -0.103067  0  4.008777  0  0  -0.104604  0  4.028327  0  -0.0802  0  -0.083851  -0.101922  0  3.995508  0
N  N114  1  0.71346664  0.33545050  0.29483910  1  0  -0.446721  0  3.315745  0  0  -0.366638  0  3.555236  0  0  -0.391717  0  3.57256  0  -1.320331  0  -0.296456  -0.349822  0  3.543137  0
N  N115  1  0.28653292  0.66454938  0.70515993  1  0  -0.446657  0  3.315534  0  0  -0.366609  0  3.555044  0  0  -0.391675  0  3.572359  0  -1.32035  0  -0.296494  -0.349801  0  3.542967  0
N  N116  1  0.58381532  0.27091634  0.16030471  1  0  -0.459098  0  3.330889  0  0  -0.377778  0  3.568215  0  0  -0.403699  0  3.5856  0  -1.310124  0  -0.297247  -0.360365  0  3.555967  0
N  N117  1  0.41618481  0.72908524  0.83969423  1  0  -0.459155  0  3.331024  0  0  -0.3778  0  3.568251  0  0  -0.403741  0  3.585682  0  -1.31016  0  -0.297225  -0.360383  0  3.55601  0
N  N118  1  0.84819150  0.06787524  0.15792868  1  0  -0.453718  0  3.354338  0  0  -0.37559  0  3.596516  0  0  -0.400671  0  3.611789  0  -1.323529  0  -0.294641  -0.358783  0  3.585883  0
N  N119  1  0.15180629  0.93212634  0.84206963  1  0  -0.453723  0  3.354282  0  0  -0.375561  0  3.596461  0  0  -0.400657  0  3.61174  0  -1.323532  0  -0.294598  -0.358749  0  3.585833  0
N  N120  1  0.97452422  0.13534771  0.29398189  1  0  -0.449868  0  3.311914  0  0  -0.369871  0  3.548164  0  0  -0.394964  0  3.565284  0  -1.311168  0  -0.293468  -0.353036  0  3.536079  0
N  N121  1  0.02547594  0.86465047  0.70601852  1  0  -0.44984  0  3.311846  0  0  -0.369832  0  3.548092  0  0  -0.394923  0  3.565216  0  -1.311179  0  -0.293477  -0.353021  0  3.536043  0
O  O122  1  0.90367045  0.28820549  0.15394327  1  0  -0.641728  0  2.127969  0  0  -0.582472  0  2.378  0  0  -0.60939  0  2.372059  0  -1.172666  0  -0.265179  -0.563584  0  2.381469  0
O  O123  1  0.09632794  0.71179439  0.84605773  1  0  -0.641735  0  2.127877  0  0  -0.582463  0  2.377922  0  0  -0.609374  0  2.371989  0  -1.172657  0  -0.265163  -0.563571  0  2.381394  0
O  O124  1  0.84004552  0.24582001  0.01795722  1  0  -0.57239  0  1.957199  0  0  -0.533304  0  2.187478  0  0  -0.554418  0  2.181519  0  -1.161557  0  -0.295139  -0.518579  0  2.191106  0
O  O125  1  0.15996780  0.75417392  0.98204198  1  0  -0.572381  0  1.957222  0  0  -0.533307  0  2.187555  0  0  -0.554412  0  2.181592  0  -1.161599  0  -0.295155  -0.518566  0  2.191148  0
O  O126  1  0.64825768  0.13060120  0.30697531  1  0  -0.649012  0  2.135592  0  0  -0.58769  0  2.3842  0  0  -0.615908  0  2.380224  0  -1.184607  0  -0.267551  -0.567919  0  2.386393  0
O  O127  1  0.35173951  0.86940208  0.69302357  1  0  -0.648951  0  2.135713  0  0  -0.587679  0  2.384319  0  0  -0.615893  0  2.380345  0  -1.184598  0  -0.267483  -0.567903  0  2.386517  0
O  O128  1  0.78077694  0.94221246  0.31592450  1  0  -0.568646  0  1.878114  0  0  -0.535466  0  2.084939  0  0  -0.554871  0  2.077907  0  -1.157844  0  -0.315973  -0.521947  0  2.08945  0
O  O129  1  0.21919903  0.05778487  0.68406241  1  0  -0.568649  0  1.878044  0  0  -0.535487  0  2.084809  0  0  -0.554889  0  2.077779  0  -1.157834  0  -0.316036  -0.521966  0  2.089318  0
