# generated using pymatgen
data_MnH22C29(N3O2)2
_symmetry_space_group_name_H-M   'P 1'
_cell_length_a   8.53456115
_cell_length_b   12.49756683
_cell_length_c   13.22230176
_cell_angle_alpha   69.99571788
_cell_angle_beta   69.82664935
_cell_angle_gamma   82.81055858
_symmetry_Int_Tables_number   1
_chemical_formula_structural   MnH22C29(N3O2)2
_chemical_formula_sum   'Mn2 H44 C58 N12 O8'
_cell_volume   1243.88052376
_cell_formula_units_Z   2
loop_
 _symmetry_equiv_pos_site_id
 _symmetry_equiv_pos_as_xyz
  1  'x, y, z'
loop_
 _atom_site_type_symbol
 _atom_site_label
 _atom_site_symmetry_multiplicity
 _atom_site_fract_x
 _atom_site_fract_y
 _atom_site_fract_z
 _atom_site_occupancy
 _atom_site_hse06_10hf_ddec_charge
 _atom_site_hse06_10hf_ddec_spin_density
 _atom_site_hse06_10hf_ddec_sum_bond_order
 _atom_site_hse06_10hf_magmom
 _atom_site_hse06_ddec_charge
 _atom_site_hse06_ddec_spin_density
 _atom_site_hse06_ddec_sum_bond_order
 _atom_site_hse06_magmom
 _atom_site_pbe_cm5_charge
 _atom_site_pbe_ddec_charge
 _atom_site_pbe_ddec_spin_density
 _atom_site_pbe_ddec_sum_bond_order
 _atom_site_pbe_magmom
Mn  Mn0  1  0.14192987  0.88804831  0.09574883  1  1.088869  -3.977523  2.825561  -3.68  1.212573  -4.146477  2.7314  -3.818  0.793605  0.99748  -3.80196  2.89505  -3.538
Mn  Mn1  1  0.85808215  0.11194195  0.90425206  1  1.088975  3.977556  2.82582  3.68  1.212685  4.146485  2.731656  3.819  0.793674  0.997571  3.801914  2.895338  3.539
H  H2  1  0.29452062  0.50749784  0.20392623  1  0.092011  7.4e-05  1.055834  0.0  0.094588  0.000103  1.054189  0.0  0.097981  0.0902  5.4e-05  1.057012  0.0
H  H3  1  0.70550166  0.49236483  0.79622902  1  0.092077  -7.5e-05  1.055842  0.0  0.094656  -0.000104  1.054196  0.0  0.09785  0.090254  -4.6e-05  1.057017  0.0
H  H4  1  0.42273407  0.33898273  0.31829873  1  0.092375  -0.000821  1.062267  0.0  0.097103  -0.000966  1.059776  0.0  0.095506  0.088913  -0.000613  1.064111  0.0
H  H5  1  0.57742482  0.66097701  0.68184866  1  0.092413  0.000821  1.062375  0.0  0.09709  0.000966  1.059926  0.0  0.09556  0.08895  0.00062  1.064207  0.0
H  H6  1  0.61102240  0.36951641  0.41157031  1  0.093736  9.4e-05  1.032419  0.0  0.096278  0.000112  1.031767  0.0  0.0983  0.091868  6.8e-05  1.033043  0.0
H  H7  1  0.38916469  0.63060174  0.58849744  1  0.093917  -9.5e-05  1.032384  0.0  0.096443  -0.000113  1.031792  0.0  0.098363  0.092044  -7e-05  1.032965  0.0
H  H8  1  0.67391609  0.56537092  0.39320841  1  0.095384  0.000113  1.032246  0.0  0.097861  0.000111  1.032015  0.0  0.097116  0.093601  0.000102  1.032553  0.0
H  H9  1  0.32621093  0.43479765  0.60671997  1  0.095293  -0.000113  1.031529  0.0  0.097794  -0.000111  1.031229  0.0  0.097036  0.093503  -0.000114  1.03185  0.0
H  H10  1  0.54154861  0.73307816  0.28191859  1  0.106886  -0.000211  1.020736  0.0  0.1101  -0.000114  1.019181  0.0  0.103065  0.104375  -0.000312  1.02204  0.0
H  H11  1  0.45846008  0.26700188  0.71799610  1  0.106675  0.00021  1.020241  0.0  0.109952  0.000114  1.018612  0.0  0.103091  0.104136  0.000307  1.021581  0.0
H  H12  1  0.87895999  0.72961889  0.26445935  1  0.08995  0.000544  1.02049  0.001  0.091931  0.000585  1.017897  0.001  0.118715  0.08861  0.000473  1.022095  0.001
H  H13  1  0.12111585  0.27035410  0.73553187  1  0.090021  -0.000544  1.020257  -0.001  0.092016  -0.000584  1.017646  -0.001  0.118734  0.08867  -0.000483  1.021887  -0.001
H  H14  1  0.65340587  0.71824481  0.44799596  1  0.11918  7.6e-05  1.034116  0.0  0.122163  0.000108  1.033552  0.0  0.107006  0.1172  5.1e-05  1.034411  0.0
H  H15  1  0.34662209  0.28170815  0.55197576  1  0.119066  -7.6e-05  1.033905  0.0  0.122052  -0.000108  1.033355  0.0  0.107006  0.117098  -6.2e-05  1.034192  0.0
H  H16  1  0.85282679  0.02503407  0.43772988  1  0.118119  0.000403  1.070297  0.0  0.12307  0.000429  1.066528  -0.001  0.10807  0.114694  0.000322  1.072996  0.0
H  H17  1  0.14707741  0.97494308  0.56228490  1  0.118364  -0.000401  1.070322  0.0  0.123317  -0.000427  1.066548  0.001  0.108158  0.114943  -0.000329  1.073038  0.0
H  H18  1  0.06933981  0.02313794  0.25806627  1  0.099192  0.000508  1.011284  0.001  0.101953  0.000511  1.008643  0.001  0.121226  0.0972  0.000498  1.013062  0.001
H  H19  1  0.93062165  0.97687462  0.74194834  1  0.099157  -0.000507  1.011415  -0.001  0.102015  -0.000511  1.008645  -0.001  0.121194  0.097159  -0.000501  1.013206  -0.001
H  H20  1  0.34456330  0.78523619  0.73078354  1  0.123646  0.000349  1.037292  0.0  0.127713  0.00037  1.035549  0.0  0.109322  0.121011  0.000291  1.038335  0.0
H  H21  1  0.65542874  0.21467409  0.26925218  1  0.123638  -0.000349  1.037571  0.0  0.127714  -0.00037  1.035815  0.0  0.109246  0.120997  -0.000294  1.03862  0.0
H  H22  1  0.17219223  0.76951560  0.93019180  1  0.085821  0.000451  1.019889  0.001  0.086748  0.00051  1.019735  0.001  0.117053  0.085363  0.000377  1.019541  0.001
H  H23  1  0.82781284  0.23040392  0.06985044  1  0.085921  -0.000451  1.019821  -0.001  0.086853  -0.000509  1.019663  -0.001  0.117139  0.085455  -0.000369  1.019463  -0.001
H  H24  1  0.42412035  0.03710765  0.92504722  1  0.103385  0.000432  1.027854  0.0  0.105336  0.000452  1.026277  0.001  0.123529  0.102144  0.000375  1.028562  0.0
H  H25  1  0.57582137  0.96290456  0.07489960  1  0.103613  -0.00043  1.027622  0.0  0.105574  -0.00045  1.026023  -0.001  0.123552  0.102364  -0.000376  1.028347  0.0
H  H26  1  0.60608526  0.06188669  0.72984024  1  0.131299  -0.000166  1.021738  0.0  0.135197  -0.000144  1.019542  0.0  0.112096  0.128694  -0.000154  1.02323  0.0
H  H27  1  0.39379916  0.93812674  0.27009357  1  0.131143  0.000165  1.02187  0.0  0.135048  0.000143  1.01967  0.0  0.112036  0.128532  0.000155  1.023348  0.0
H  H28  1  0.66403287  0.83236380  0.87921710  1  0.105831  0.000501  1.045051  0.0  0.108811  0.000509  1.0439  0.0  0.102005  0.10349  0.000396  1.046094  0.0
H  H29  1  0.33596918  0.16769537  0.12078201  1  0.105714  -0.0005  1.045223  0.0  0.108679  -0.000508  1.044072  0.0  0.101964  0.103373  -0.000392  1.046256  0.0
H  H30  1  0.57627431  0.65000345  0.87955049  1  0.096451  0.00042  1.031755  0.0  0.09903  0.000493  1.031979  0.0  0.098888  0.094514  0.000315  1.031791  0.0
H  H31  1  0.42367342  0.35007049  0.12044356  1  0.096522  -0.00042  1.031678  0.0  0.099102  -0.000493  1.031901  0.0  0.098827  0.094579  -0.000311  1.03173  0.0
H  H32  1  0.66951756  0.46503718  0.99391689  1  0.100712  -4e-05  1.013121  0.0  0.103706  -4.8e-05  1.011184  0.0  0.101664  0.098465  -2.2e-05  1.014674  0.0
H  H33  1  0.33038752  0.53502256  0.00607290  1  0.100572  4e-05  1.01319  0.0  0.10356  4.8e-05  1.011269  0.0  0.101664  0.098324  2.2e-05  1.01474  0.0
H  H34  1  0.84765815  0.46431664  0.10827907  1  0.09282  -5.3e-05  1.033107  0.0  0.095375  -6.1e-05  1.033184  0.0  0.097275  0.090916  -4.1e-05  1.03329  0.0
H  H35  1  0.15228078  0.53569541  0.89169637  1  0.092848  5.3e-05  1.032784  0.0  0.095435  6.1e-05  1.032822  0.0  0.097294  0.090944  4e-05  1.032967  0.0
H  H36  1  0.93689454  0.64776654  0.10633850  1  0.110226  0.000282  1.019866  0.0  0.113794  0.000307  1.016653  0.0  0.105395  0.107594  0.000259  1.022302  0.0
H  H37  1  0.06309199  0.35222562  0.89365409  1  0.110182  -0.000283  1.01996  0.0  0.113733  -0.000307  1.016786  0.0  0.105383  0.107548  -0.000263  1.022401  0.0
H  H38  1  0.98746026  0.33254924  0.20425081  1  0.070088  -1.7e-05  1.028614  0.0  0.071072  -2.1e-05  1.029185  0.0  0.104566  0.069238  -5e-06  1.028493  0.0
H  H39  1  0.01248538  0.66746951  0.79573476  1  0.070211  1.7e-05  1.028851  0.0  0.071194  2.1e-05  1.029423  0.0  0.104582  0.069364  1.1e-05  1.028708  0.0
H  H40  1  0.03261825  0.50399834  0.25012205  1  0.124878  1.7e-05  1.016708  0.0  0.128426  3.6e-05  1.014542  0.0  0.110643  0.122221  -0.0  1.018603  0.0
H  H41  1  0.96738502  0.49601254  0.74985058  1  0.12492  -1.7e-05  1.016947  0.0  0.128468  -3.6e-05  1.01478  0.0  0.110621  0.122261  -4e-06  1.018839  0.0
H  H42  1  0.86382147  0.30273310  0.60423917  1  0.117853  -0.000224  1.048884  0.0  0.120695  -0.000176  1.04806  0.0  0.10813  0.115709  -0.00023  1.049757  0.0
H  H43  1  0.13623827  0.69727659  0.39573906  1  0.117899  0.000224  1.048913  0.0  0.120739  0.000176  1.048091  0.0  0.108137  0.115769  0.000227  1.049767  0.0
H  H44  1  0.80523820  0.14439635  0.54499847  1  0.075905  -0.000502  1.021785  0.0  0.079964  -0.000533  1.017496  0.0  0.109744  0.072653  -0.000411  1.025218  0.0
H  H45  1  0.19478658  0.85561008  0.45498864  1  0.075907  0.000502  1.021698  0.0  0.079972  0.000533  1.017412  0.0  0.109685  0.072644  0.000414  1.025141  0.0
C  C46  1  0.32311591  0.73022015  0.17923589  1  0.567405  -0.005911  4.182969  -0.004  0.604529  -0.00553  4.177825  -0.004  0.206104  0.541981  -0.006537  4.185507  -0.004
C  C47  1  0.67684224  0.26971763  0.82077749  1  0.567399  0.005916  4.182556  0.004  0.604509  0.005534  4.177409  0.004  0.206162  0.541988  0.006542  4.185097  0.004
C  C48  1  0.40860384  0.62984367  0.23746661  1  -0.047557  0.003832  4.007925  0.004  -0.057881  0.004214  4.032055  0.004  -0.020666  -0.040986  0.003406  3.991874  0.004
C  C49  1  0.59139349  0.37012526  0.76256297  1  -0.047141  -0.003831  4.007836  -0.004  -0.057439  -0.004212  4.031944  -0.004  -0.020646  -0.040607  -0.003394  3.991822  -0.004
C  C50  1  0.37731824  0.51931778  0.24585417  1  -0.089232  -0.001456  3.985282  -0.001  -0.087957  -0.001398  4.006414  -0.001  -0.085892  -0.089591  -0.001517  3.970701  -0.001
C  C51  1  0.62273236  0.48061046  0.75425479  1  -0.089551  0.001457  3.985771  0.001  -0.08827  0.001398  4.006861  0.001  -0.085778  -0.089929  0.001552  3.971211  0.001
C  C52  1  0.44998719  0.42584099  0.30820868  1  -0.096061  -0.000514  4.00778  -0.001  -0.1007  -0.000496  4.027701  -0.001  -0.096355  -0.093055  -0.00042  3.994422  -0.001
C  C53  1  0.55014729  0.57414459  0.69190136  1  -0.096025  0.000514  4.007999  0.001  -0.100612  0.000498  4.027952  0.001  -0.096338  -0.093048  0.000442  3.994618  0.001
C  C54  1  0.55583578  0.44280580  0.36166344  1  -0.066666  -0.001054  3.994646  -0.001  -0.0652  -0.001069  4.014029  -0.001  -0.086411  -0.067442  -0.001091  3.981448  -0.001
C  C55  1  0.44432738  0.55727350  0.63838294  1  -0.066706  0.001054  3.994575  0.001  -0.065249  0.001068  4.013927  0.001  -0.086474  -0.067459  0.001092  3.981381  0.001
C  C56  1  0.59059696  0.55310334  0.35155661  1  -0.096466  0.000364  4.027414  0.0  -0.101385  0.000513  4.050715  0.0  -0.095357  -0.093135  0.000237  4.01146  0.0
C  C57  1  0.40951778  0.44700724  0.64841543  1  -0.096849  -0.000365  4.026529  0.0  -0.101763  -0.000512  4.049862  0.0  -0.095383  -0.093521  -0.000247  4.010572  0.0
C  C58  1  0.51744615  0.64648853  0.28974648  1  -0.087459  -0.001257  3.963218  -0.001  -0.086345  -0.001173  3.983861  -0.001  -0.082563  -0.087933  -0.001383  3.949364  -0.001
C  C59  1  0.48258848  0.35356980  0.71022133  1  -0.087224  0.001256  3.962439  0.001  -0.086177  0.001171  3.983067  0.001  -0.082705  -0.087683  0.001375  3.948617  0.001
C  C60  1  0.86751341  0.79289425  0.30614418  1  0.086957  0.007147  3.984607  -0.001  0.097162  0.001627  4.006005  -0.006  0.036879  0.081092  0.007491  3.968518  0.001
C  C61  1  0.13252802  0.20708319  0.69384274  1  0.086845  -0.00713  3.984833  0.001  0.097045  -0.001597  4.006221  0.006  0.0367  0.080991  -0.007546  3.96878  -0.001
C  C62  1  0.74278954  0.78748470  0.40720354  1  -0.213503  0.038476  3.95737  0.026  -0.225028  0.047782  3.978099  0.033  -0.086357  -0.20548  0.028764  3.942285  0.019
C  C63  1  0.25721422  0.21248960  0.59277384  1  -0.213296  -0.038496  3.957276  -0.026  -0.224834  -0.047812  3.977994  -0.033  -0.086254  -0.20528  -0.028815  3.942213  -0.019
C  C64  1  0.73168784  0.87076344  0.45975547  1  0.233828  0.012941  4.060345  0.003  0.248977  0.006484  4.076571  -0.004  0.106554  0.224056  0.012516  4.048259  0.005
C  C65  1  0.26827391  0.12921533  0.54022141  1  0.233892  -0.012906  4.060713  -0.003  0.249037  -0.006429  4.07693  0.004  0.106403  0.224116  -0.012557  4.048638  -0.005
C  C66  1  0.85422978  0.95722376  0.40356621  1  -0.206277  0.0476  3.948715  0.035  -0.216721  0.059331  3.966591  0.044  -0.085221  -0.199168  0.035421  3.936023  0.026
C  C67  1  0.14571236  0.04276096  0.59642864  1  -0.206605  -0.047648  3.94879  -0.035  -0.217048  -0.059393  3.966681  -0.044  -0.085301  -0.199508  -0.035495  3.936128  -0.026
C  C68  1  0.97501330  0.95712597  0.30280762  1  0.093473  -0.00391  3.958545  -0.009  0.103102  -0.011577  3.979561  -0.016  0.040527  0.087487  -0.000667  3.943637  -0.005
C  C69  1  0.02496382  0.04286785  0.69719844  1  0.09368  0.003923  3.95898  0.009  0.103255  0.0116  3.979951  0.016  0.040607  0.087734  0.000633  3.94404  0.005
C  C70  1  0.49649584  0.92359351  0.71247381  1  0.228555  0.026022  4.070491  0.014  0.242878  0.023409  4.088338  0.011  0.106456  0.219992  0.021528  4.057196  0.012
C  C71  1  0.50342598  0.07635051  0.28752451  1  0.228531  -0.025972  4.070497  -0.014  0.242843  -0.023339  4.088347  -0.011  0.106612  0.219895  -0.021511  4.057319  -0.012
C  C72  1  0.36699977  0.84118759  0.77182678  1  -0.210542  0.039425  3.93373  0.028  -0.222195  0.049927  3.954698  0.036  -0.085261  -0.202667  0.029132  3.918256  0.021
C  C73  1  0.63296773  0.15875009  0.22819609  1  -0.210133  -0.039476  3.933675  -0.028  -0.221781  -0.049985  3.954647  -0.036  -0.085001  -0.202245  -0.029188  3.918234  -0.021
C  C74  1  0.26951431  0.83333331  0.88160813  1  0.088678  -0.003129  3.966259  -0.009  0.097959  -0.010487  3.990284  -0.015  0.037096  0.083694  -0.000534  3.947761  -0.005
C  C75  1  0.73046544  0.16659663  0.11841927  1  0.088624  0.003157  3.966852  0.009  0.097909  0.010519  3.990881  0.015  0.037041  0.083636  0.000564  3.948348  0.005
C  C76  1  0.40843151  0.98361408  0.87970927  1  0.090173  0.017569  3.954265  0.006  0.100095  0.014379  3.975998  0.002  0.037281  0.084679  0.015023  3.937781  0.006
C  C77  1  0.59150791  0.01637502  0.12026582  1  0.089959  -0.017547  3.954951  -0.006  0.099936  -0.014346  3.976611  -0.002  0.037234  0.084445  -0.015015  3.93848  -0.006
C  C78  1  0.51042568  0.99684132  0.77000299  1  -0.206221  0.038749  3.951338  0.025  -0.217486  0.046281  3.971002  0.031  -0.08315  -0.198564  0.030506  3.936682  0.02
C  C79  1  0.48949221  0.00313604  0.22996431  1  -0.206174  -0.038768  3.951335  -0.025  -0.217438  -0.046304  3.970967  -0.031  -0.083196  -0.198491  -0.030538  3.936715  -0.02
C  C80  1  0.85888800  0.85949104  0.99434835  1  0.621644  -0.001883  4.130663  -0.001  0.665642  -0.001115  4.116334  -0.001  0.240597  0.590091  -0.00353  4.14083  -0.003
C  C81  1  0.14113438  0.14052124  0.00565781  1  0.621558  0.001891  4.130973  0.001  0.66555  0.001124  4.116644  0.001  0.240621  0.590002  0.003526  4.141132  0.003
C  C82  1  0.80624765  0.75112613  0.99248049  1  -0.062969  -0.003646  4.002577  -0.003  -0.074335  -0.003676  4.024499  -0.003  -0.019711  -0.055508  -0.003523  3.988596  -0.003
C  C83  1  0.19375151  0.24889141  0.00751960  1  -0.063266  0.003643  4.002491  0.003  -0.074638  0.003673  4.024417  0.003  -0.019809  -0.055804  0.003489  3.988503  0.003
C  C84  1  0.70432625  0.75153175  0.92875585  1  -0.076258  0.000594  3.94699  0.001  -0.072642  0.000762  3.964012  0.001  -0.08105  -0.078955  4.8e-05  3.936297  0.0
C  C85  1  0.29567431  0.24851562  0.07122993  1  -0.075962  -0.000592  3.94687  -0.001  -0.072328  -0.000759  3.963891  -0.001  -0.080881  -0.078641  -3.1e-05  3.936155  0.0
C  C86  1  0.65519347  0.64893402  0.92948950  1  -0.092013  -0.000124  4.009366  0.0  -0.096044  -0.000181  4.029804  0.0  -0.091015  -0.089468  -1.2e-05  3.996065  0.0
C  C87  1  0.34476970  0.35112798  0.07049766  1  -0.092295  0.000123  4.00868  0.0  -0.096331  0.00018  4.029113  0.0  -0.090992  -0.089748  3.2e-05  3.995382  0.0
C  C88  1  0.70734770  0.54543205  0.99359863  1  -0.070042  0.00033  3.987044  0.0  -0.068984  0.000531  4.006314  0.0  -0.083378  -0.070736  -0.000229  3.974143  0.0
C  C89  1  0.29258344  0.45461991  0.00639141  1  -0.069583  -0.000327  3.98718  0.0  -0.068529  -0.000527  4.006473  0.0  -0.083355  -0.070272  0.000223  3.974268  0.0
C  C90  1  0.80840278  0.54480661  0.05743993  1  -0.081845  -0.00021  4.031037  0.0  -0.086303  -0.000332  4.054141  0.0  -0.089663  -0.078854  -5.6e-05  4.015481  0.0
C  C91  1  0.19154730  0.45521718  0.94255297  1  -0.08215  0.000209  4.031267  0.0  -0.086632  0.000331  4.05436  0.0  -0.089735  -0.079151  4.9e-05  4.015704  0.0
C  C92  1  0.85794321  0.64704184  0.05699358  1  -0.095962  -0.00015  3.977823  0.0  -0.094156  9.9e-05  3.997551  0.0  -0.082107  -0.097187  -0.000643  3.964727  -0.001
C  C93  1  0.14203189  0.35297163  0.94299679  1  -0.095583  0.000152  3.976964  0.0  -0.093778  -9.7e-05  3.99669  0.0  -0.08197  -0.096806  0.000632  3.963863  0.001
C  C94  1  0.95849792  0.32941831  0.29236759  1  0.089724  -0.000293  4.021301  0.0  0.094507  -0.000223  4.040365  0.0  0.038927  0.086616  -0.000332  4.008931  0.0
C  C95  1  0.04147897  0.67059436  0.70761284  1  0.08949  0.000293  4.021762  0.0  0.094276  0.000223  4.040827  0.0  0.03898  0.08638  0.000339  4.009385  0.0
C  C96  1  0.98680052  0.42396640  0.31674844  1  -0.196561  -0.000419  3.941808  0.0  -0.204489  -0.000321  3.964564  0.0  -0.077542  -0.191806  -0.000494  3.926992  0.0
C  C97  1  0.01320634  0.57604190  0.68322732  1  -0.196622  0.00042  3.942297  0.0  -0.204551  0.00032  3.965057  0.0  -0.077594  -0.191868  0.000487  3.927475  0.0
C  C98  1  0.95708174  0.41390766  0.43055963  1  0.195003  -0.000226  4.041192  0.0  0.198258  -0.000171  4.063784  0.0  0.099858  0.19334  -0.000272  4.026081  0.0
C  C99  1  0.04294475  0.58609796  0.56941906  1  0.19505  0.000226  4.040677  0.0  0.198304  0.000172  4.06327  0.0  0.099888  0.193387  0.000261  4.025576  0.0
C  C100  1  0.89128860  0.31173847  0.51519467  1  -0.189387  0.0001  3.930063  0.0  -0.196163  6.3e-05  3.953701  0.0  -0.078329  -0.185412  0.000177  3.914785  0.0
C  C101  1  0.10874782  0.68827051  0.48478170  1  -0.189274  -0.0001  3.929679  0.0  -0.196046  -6.3e-05  3.953314  0.0  -0.078223  -0.18531  -0.000188  3.914389  0.0
C  C102  1  0.86055817  0.22438497  0.48167285  1  0.099768  -0.000486  3.982044  0.0  0.104935  -0.00053  3.997653  0.0  0.043806  0.096276  -0.000385  3.972458  0.0
C  C103  1  0.13946041  0.77562064  0.51831502  1  0.099479  0.000486  3.982344  0.0  0.104638  0.000529  3.997963  0.0  0.043651  0.095989  0.000387  3.97276  0.0
N  N104  1  0.98360854  0.87700986  0.25236265  1  -0.278201  0.085587  3.564654  0.101  -0.314254  0.10756  3.590699  0.124  -0.357947  -0.252797  0.064674  3.546175  0.08
N  N105  1  0.01641351  0.12298037  0.74763546  1  -0.278354  -0.085579  3.56538  -0.101  -0.314401  -0.107552  3.591437  -0.124  -0.357871  -0.252956  -0.06471  3.546922  -0.08
N  N106  1  0.60710983  0.85956882  0.56206196  1  -0.198407  0.145958  3.281369  0.128  -0.213609  0.177387  3.299901  0.156  -0.189334  -0.186606  0.110059  3.26691  0.096
N  N107  1  0.39282940  0.14039300  0.43792715  1  -0.198792  -0.146008  3.281238  -0.128  -0.213978  -0.177441  3.299745  -0.156  -0.189489  -0.187009  -0.110136  3.266806  -0.096
N  N108  1  0.61296017  0.93671280  0.60735572  1  -0.207137  0.126081  3.302929  0.107  -0.222872  0.150163  3.322815  0.127  -0.193983  -0.196139  0.096863  3.287985  0.082
N  N109  1  0.38695629  0.06324325  0.39262319  1  -0.207288  -0.126143  3.302858  -0.107  -0.223001  -0.150232  3.322704  -0.127  -0.194181  -0.196276  -0.096955  3.28797  -0.082
N  N110  1  0.28803477  0.90268580  0.93705635  1  -0.283439  0.089163  3.593741  0.106  -0.322157  0.112175  3.622225  0.13  -0.360543  -0.255958  0.067539  3.573307  0.084
N  N111  1  0.71192835  0.09728177  0.06294501  1  -0.283616  -0.089128  3.594752  -0.106  -0.322364  -0.112125  3.623265  -0.13  -0.360693  -0.256139  -0.067521  3.574315  -0.084
N  N112  1  0.89538170  0.23124786  0.37230299  1  -0.256314  -0.000169  3.312373  0.0  -0.265478  -0.000169  3.325737  0.0  -0.314133  -0.250999  -0.000163  3.304191  0.0
N  N113  1  0.10460484  0.76876643  0.62768103  1  -0.256103  0.00017  3.31261  0.0  -0.265266  0.00017  3.325977  0.0  -0.314105  -0.250796  0.000144  3.304428  0.0
N  N114  1  0.99134697  0.51083674  0.45185030  1  -0.104761  0.000386  3.234784  0.0  -0.103807  0.000377  3.241624  0.0  -0.12907  -0.106779  0.000383  3.231896  0.0
N  N115  1  0.00869719  0.48917053  0.54812051  1  -0.104385  -0.00038  3.234466  0.0  -0.10343  -0.000374  3.241304  0.0  -0.128828  -0.106412  -0.000339  3.231582  0.0
O  O116  1  0.20000523  0.71727987  0.14754698  1  -0.553999  -0.007557  2.224165  0.006  -0.591722  -0.000472  2.21509  0.014  -0.306212  -0.527046  -0.013331  2.229839  -0.001
O  O117  1  0.79995382  0.28264765  0.85247630  1  -0.554193  0.007544  2.224172  -0.006  -0.591931  0.000449  2.215101  -0.014  -0.306349  -0.527192  0.013314  2.229775  0.001
O  O118  1  0.36353117  0.82996750  0.16418011  1  -0.545854  -0.051338  2.229411  -0.048  -0.578716  -0.044541  2.223308  -0.041  -0.288613  -0.522471  -0.056954  2.232957  -0.053
O  O119  1  0.63643494  0.16999088  0.83579256  1  -0.545641  0.051334  2.229197  0.048  -0.578483  0.044539  2.2231  0.041  -0.28844  -0.522277  0.056937  2.232744  0.053
O  O120  1  0.93508370  0.85595689  0.06196684  1  -0.580087  -0.04838  2.441511  -0.033  -0.618167  -0.044351  2.42759  -0.03  -0.293773  -0.552499  -0.051318  2.450952  -0.035
O  O121  1  0.06492482  0.14404606  0.93804812  1  -0.580111  0.048408  2.441358  0.033  -0.618188  0.044375  2.427437  0.03  -0.293884  -0.552529  0.051326  2.450826  0.035
O  O122  1  0.82017468  0.95281801  0.92665948  1  -0.536597  0.011869  2.413493  -0.012  -0.576834  0.007271  2.4008  -0.017  -0.291261  -0.508135  0.01514  2.422612  -0.009
O  O123  1  0.17987559  0.04718739  0.07333567  1  -0.536637  -0.011901  2.413208  0.012  -0.576811  -0.007304  2.400454  0.017  -0.291307  -0.508173  -0.015171  2.422312  0.009
