# generated using pymatgen
data_MnH8C7N4O3
_symmetry_space_group_name_H-M   'P 1'
_cell_length_a   7.29283931
_cell_length_b   7.39846873
_cell_length_c   9.43295611
_cell_angle_alpha   82.66036281
_cell_angle_beta   73.05976149
_cell_angle_gamma   62.59840359
_symmetry_Int_Tables_number   1
_chemical_formula_structural   MnH8C7N4O3
_chemical_formula_sum   'Mn2 H16 C14 N8 O6'
_cell_volume   432.24016138
_cell_formula_units_Z   2
loop_
 _symmetry_equiv_pos_site_id
 _symmetry_equiv_pos_as_xyz
  1  'x, y, z'
loop_
 _atom_site_type_symbol
 _atom_site_label
 _atom_site_symmetry_multiplicity
 _atom_site_fract_x
 _atom_site_fract_y
 _atom_site_fract_z
 _atom_site_occupancy
 _atom_site_hle17_ddec_charge
 _atom_site_hle17_ddec_spin_density
 _atom_site_hle17_ddec_sum_bond_order
 _atom_site_hle17_magmom
 _atom_site_hse06_10hf_ddec_charge
 _atom_site_hse06_10hf_ddec_spin_density
 _atom_site_hse06_10hf_ddec_sum_bond_order
 _atom_site_hse06_10hf_magmom
 _atom_site_hse06_ddec_charge
 _atom_site_hse06_ddec_spin_density
 _atom_site_hse06_ddec_sum_bond_order
 _atom_site_hse06_magmom
 _atom_site_pbe_cm5_charge
 _atom_site_pbe_ddec_charge
 _atom_site_pbe_ddec_spin_density
 _atom_site_pbe_ddec_sum_bond_order
 _atom_site_pbe_magmom
Mn  Mn0  1  0.50000359  0.00000897  0.99999562  1  1.102745  -4.745673  1.838257  -4.623  0.951155  -4.646091  2.330414  -4.468  1.004086  -4.718708  2.270723  -4.554  0.632793  0.912209  -4.560386  2.375071  -4.373
Mn  Mn1  1  0.99999484  0.50000292  0.00000013  1  1.214237  4.752533  1.813101  4.643  1.078675  4.646961  2.313471  4.486  1.129286  4.715474  2.24466  4.566  0.632355  1.038639  4.567736  2.365555  4.399
H  H2  1  0.13068684  0.02996089  0.17160290  1  0.309773  3.2e-05  0.902678  0.0  0.299852  -0.00066  0.959745  -0.001  0.305424  -0.000549  0.956178  -0.001  0.303311  0.295621  -0.000784  0.962665  -0.001
H  H3  1  0.86931427  0.97003929  0.82839948  1  0.309772  3.5e-05  0.902705  0.0  0.299847  -0.00066  0.959794  -0.001  0.30542  -0.000549  0.956225  -0.001  0.3033  0.295614  -0.000785  0.962711  -0.001
H  H4  1  0.30340203  0.78603657  0.19244881  1  0.302638  0.000277  0.943173  0.0  0.285079  -0.000256  1.013702  -0.001  0.291233  -0.000182  1.009262  -0.001  0.292315  0.280732  -0.000233  1.016675  -0.001
H  H5  1  0.69659621  0.21396361  0.80755210  1  0.302623  0.00027  0.943188  0.0  0.285071  -0.000256  1.013713  -0.001  0.291224  -0.000182  1.009275  -0.001  0.292306  0.280722  -0.000233  1.016687  -0.001
H  H6  1  0.45004067  0.77174358  0.64381613  1  0.081542  -6.9e-05  0.997435  0.0  0.086759  3.9e-05  1.069364  0.0  0.089078  4.1e-05  1.068099  0.0  0.097508  0.085519  0.000107  1.069603  0.0
H  H7  1  0.54996116  0.22825508  0.35618623  1  0.081553  -5.9e-05  0.99743  0.0  0.086769  3.9e-05  1.069349  0.0  0.089085  4.1e-05  1.068092  0.0  0.097526  0.085531  0.000107  1.069591  0.0
H  H8  1  0.47629348  0.68225116  0.39350396  1  0.110412  6.7e-05  0.938007  0.0  0.124071  -0.000123  0.990587  0.0  0.127127  -0.000104  0.989794  0.0  0.105902  0.121881  -8.3e-05  0.991332  0.0
H  H9  1  0.52370478  0.31774596  0.60649830  1  0.110419  6.7e-05  0.937973  0.0  0.124077  -0.000123  0.990563  0.0  0.127133  -0.000104  0.98977  0.0  0.105894  0.121885  -8.3e-05  0.991308  0.0
H  H10  1  0.98782974  0.38395305  0.58944971  1  0.092395  -0.000245  0.974358  0.0  0.099749  -0.000172  1.042842  0.0  0.102165  -0.000181  1.041569  0.0  0.101485  0.09807  -0.000147  1.043848  0.0
H  H11  1  0.01217633  0.61604872  0.41054713  1  0.092355  -0.000247  0.974375  0.0  0.099735  -0.000172  1.042831  0.0  0.102148  -0.000182  1.041566  0.0  0.101488  0.09806  -0.000147  1.043831  0.0
H  H12  1  0.01374254  0.29581167  0.33699911  1  0.112328  -5.9e-05  0.958719  0.0  0.120755  -0.0003  1.02269  0.0  0.124342  -0.000275  1.020963  0.0  0.105944  0.118594  -0.000273  1.023535  0.0
H  H13  1  0.98626141  0.70418551  0.66299866  1  0.11232  -5.6e-05  0.958719  0.0  0.120744  -0.0003  1.022691  0.0  0.124331  -0.000275  1.020964  0.0  0.105927  0.118581  -0.000273  1.023533  0.0
H  H14  1  0.30243887  0.60970085  0.83097571  1  0.404354  -0.000371  0.883832  0.0  0.375853  0.000111  0.961751  0.001  0.384982  -2.4e-05  0.948314  0.001  0.303174  0.369242  0.000257  0.970793  0.001
H  H15  1  0.69756296  0.39029781  0.16902665  1  0.404352  -0.000368  0.883815  0.0  0.375853  0.000111  0.961744  0.001  0.38498  -2.4e-05  0.948309  0.001  0.303182  0.369242  0.000257  0.970773  0.001
H  H16  1  0.17641089  0.82206133  0.90149065  1  0.420651  0.001182  0.868136  0.002  0.39145  0.00187  0.938414  0.003  0.402062  0.00158  0.923114  0.003  0.297313  0.383538  0.002184  0.949939  0.003
H  H17  1  0.82358449  0.17793883  0.09851091  1  0.420673  0.001185  0.868104  0.002  0.391452  0.00187  0.938421  0.003  0.402066  0.00158  0.923118  0.003  0.297289  0.383539  0.002184  0.949949  0.003
C  C18  1  0.20684436  0.14634668  0.78102181  1  0.670217  0.00237  3.851761  0.003  0.615534  0.001785  4.14666  0.002  0.652979  0.001872  4.138101  0.002  0.221431  0.587374  -0.000594  4.153487  0.001
C  C19  1  0.79315456  0.85365506  0.21897561  1  0.670331  0.002363  3.851731  0.003  0.615712  0.001785  4.146566  0.002  0.653162  0.001873  4.138002  0.002  0.221487  0.587549  -0.000594  4.153404  0.001
C  C20  1  0.21562028  0.08444870  0.63488013  1  -0.120512  -0.006811  3.80749  -0.006  -0.100907  -0.006563  4.049117  -0.006  -0.11275  -0.005815  4.072994  -0.005  -0.036572  -0.092245  -0.005437  4.033213  -0.004
C  C21  1  0.78438438  0.91555306  0.36511811  1  -0.120553  -0.006845  3.807376  -0.006  -0.101059  -0.006563  4.049125  -0.006  -0.1129  -0.005817  4.072997  -0.005  -0.036607  -0.092397  -0.005439  4.033233  -0.004
C  C22  1  0.35026196  0.88602388  0.57871528  1  -0.039774  0.004838  3.763222  0.004  -0.064373  0.002877  4.013797  0.003  -0.060559  0.003246  4.033819  0.003  -0.084724  -0.067264  0.001576  3.999928  0.002
C  C23  1  0.64973986  0.11397480  0.42128496  1  -0.039829  0.004835  3.763214  0.004  -0.064383  0.002878  4.013802  0.003  -0.060571  0.003245  4.033819  0.003  -0.084734  -0.067273  0.001576  3.999929  0.002
C  C24  1  0.36787993  0.83596992  0.43675958  1  -0.173415  -0.005499  3.707867  -0.005  -0.187257  -0.003684  3.954079  -0.003  -0.195431  -0.003665  3.975471  -0.003  -0.09488  -0.181867  -0.003937  3.940397  -0.003
C  C25  1  0.63211903  0.16402874  0.56324131  1  -0.173363  -0.005528  3.707813  -0.005  -0.187227  -0.003685  3.954011  -0.003  -0.1954  -0.003665  3.975401  -0.003  -0.094858  -0.181837  -0.003938  3.94033  -0.003
C  C26  1  0.09566488  0.23099045  0.54552389  1  -0.038471  0.003785  3.743212  0.004  -0.064288  0.001518  3.995222  0.002  -0.060497  0.00214  4.014114  0.002  -0.084951  -0.067331  -0.000774  3.982335  0.0
C  C27  1  0.90434120  0.76900828  0.45447219  1  -0.038373  0.00385  3.743064  0.004  -0.064185  0.001518  3.995102  0.002  -0.060394  0.00214  4.013994  0.002  -0.084923  -0.067228  -0.000773  3.982219  0.0
C  C28  1  0.11077349  0.18207084  0.40426376  1  -0.179969  -0.00724  3.715259  -0.006  -0.19708  -0.006147  3.967961  -0.005  -0.205092  -0.005598  3.990074  -0.005  -0.098823  -0.190818  -0.004181  3.952598  -0.003
C  C29  1  0.88923260  0.81792788  0.59573338  1  -0.179958  -0.007304  3.715363  -0.006  -0.197078  -0.006148  3.968046  -0.005  -0.20509  -0.005599  3.990162  -0.005  -0.09879  -0.190815  -0.004182  3.952677  -0.003
C  C30  1  0.24874493  0.98399671  0.34799826  1  0.306795  0.003831  3.762525  0.003  0.302898  0.000821  4.009352  0.001  0.312799  0.00183  4.031379  0.002  0.0962  0.294423  -0.002432  3.994961  -0.002
C  C31  1  0.75125974  0.01600199  0.65200027  1  0.306677  0.003878  3.762717  0.003  0.302835  0.000821  4.009481  0.001  0.312734  0.00183  4.031509  0.002  0.09616  0.294362  -0.002432  3.995085  -0.002
N  N32  1  0.30271100  0.31658066  0.06514481  1  -0.600005  0.000433  2.805486  0.002  -0.565035  0.000541  3.150043  0.002  -0.590736  0.00099  3.148798  0.003  -0.291095  -0.546715  -0.001448  3.152575  0.0
N  N33  1  0.69728652  0.68341800  0.93485535  1  -0.599989  0.000391  2.805597  0.002  -0.564985  0.000543  3.1501  0.002  -0.590678  0.000985  3.148852  0.003  -0.291081  -0.546669  -0.001444  3.152634  0.0
N  N34  1  0.34963869  0.40662718  0.13439024  1  0.428533  0.000167  4.185681  0.0  0.447413  0.000938  4.480058  0.001  0.465353  0.000396  4.508685  0.0  0.098725  0.434816  0.001225  4.460843  0.001
N  N35  1  0.65035598  0.59337450  0.86561239  1  0.428581  0.000125  4.185584  0.0  0.447456  0.000944  4.479957  0.001  0.465395  0.000399  4.508585  0.0  0.098807  0.434858  0.001232  4.460741  0.001
N  N36  1  0.39289544  0.49687312  0.20200785  1  -0.415067  -0.003623  2.521179  -0.004  -0.399185  -0.001154  2.764782  -0.001  -0.407611  -0.001567  2.771503  -0.001  -0.180276  -0.393741  -0.002605  2.760522  -0.003
N  N37  1  0.60709568  0.50312091  0.79799634  1  -0.415178  -0.003518  2.521016  -0.003  -0.399313  -0.001138  2.764652  -0.001  -0.407745  -0.001545  2.771379  -0.001  -0.180384  -0.393865  -0.002586  2.76039  -0.002
N  N38  1  0.26870008  0.93652542  0.20173689  1  -0.673665  -0.028615  3.133443  -0.017  -0.628143  -0.031328  3.380295  -0.015  -0.650593  -0.02858  3.378436  -0.013  -0.595249  -0.610234  -0.029456  3.381234  -0.012
N  N39  1  0.73130103  0.06347477  0.79826443  1  -0.673593  -0.02861  3.133438  -0.017  -0.628103  -0.031332  3.380282  -0.015  -0.650552  -0.028583  3.378421  -0.013  -0.595261  -0.610195  -0.029461  3.381218  -0.012
O  O40  1  0.27708693  0.00922982  0.87758762  1  -0.68213  -0.027775  2.028482  -0.016  -0.602989  -0.03228  2.277279  -0.018  -0.633239  -0.029595  2.264623  -0.016  -0.315158  -0.579519  -0.03193  2.285919  -0.017
O  O41  1  0.72290984  0.99077647  0.12241197  1  -0.68218  -0.027775  2.028525  -0.016  -0.603029  -0.032282  2.277288  -0.018  -0.633287  -0.029596  2.264636  -0.016  -0.315178  -0.579557  -0.031932  2.285933  -0.017
O  O42  1  0.13078341  0.33668566  0.80484729  1  -0.650517  0.033186  2.070863  0.019  -0.582231  0.034778  2.343371  0.017  -0.614369  0.032179  2.331058  0.014  -0.312115  -0.55829  0.035161  2.351725  0.017
O  O43  1  0.86921553  0.66331606  0.19515225  1  -0.650528  0.033188  2.070823  0.019  -0.582263  0.034779  2.343321  0.017  -0.6144  0.03218  2.331003  0.014  -0.312114  -0.558318  0.035161  2.351677  0.017
O  O44  1  0.15501861  0.70442454  0.88311810  1  -0.824602  0.026706  1.907849  0.014  -0.772838  0.036945  2.129481  0.022  -0.793347  0.033473  2.096834  0.019  -0.562033  -0.75721  0.040118  2.152649  0.025
O  O45  1  0.84497962  0.29557566  0.11688069  1  -0.824606  0.026697  1.907807  0.014  -0.772843  0.036946  2.12944  0.022  -0.793351  0.033473  2.096798  0.019  -0.562016  -0.757211  0.040117  2.152597  0.025
