# generated using pymatgen
data_Al6H74C105Br6O31
_symmetry_space_group_name_H-M   'P 1'
_cell_length_a   13.61278412
_cell_length_b   14.01903385
_cell_length_c   27.16780075
_cell_angle_alpha   89.91336468
_cell_angle_beta   88.77220443
_cell_angle_gamma   60.57773183
_symmetry_Int_Tables_number   1
_chemical_formula_structural   Al6H74C105Br6O31
_chemical_formula_sum   'Al6 H74 C105 Br6 O31'
_cell_volume   4514.67128655
_cell_formula_units_Z   1
loop_
 _symmetry_equiv_pos_site_id
 _symmetry_equiv_pos_as_xyz
  1  'x, y, z'
loop_
 _atom_site_type_symbol
 _atom_site_label
 _atom_site_symmetry_multiplicity
 _atom_site_fract_x
 _atom_site_fract_y
 _atom_site_fract_z
 _atom_site_occupancy
 _atom_site_pbe_bader_charge
 _atom_site_pbe_bader_spin_density
 _atom_site_pbe_cm5_charge
 _atom_site_pbe_ddec_charge
 _atom_site_pbe_ddec_spin_density
 _atom_site_pbe_ddec_sum_bond_order
 _atom_site_pbe_magmom
Al  Al0  1  0.85065341  0.56610972  0.49271641  1  2.493812  0  0.398572  1.6882  0  2.546187  0
Al  Al1  1  0.61109329  0.57496810  0.49449569  1  2.481249  0  0.502147  1.657033  0  2.512117  0
Al  Al2  1  0.61303923  0.78734179  0.49814389  1  2.480478  0  0.499705  1.658052  0  2.525466  0
Al  Al3  1  0.83377078  0.09439315  0.98223320  1  2.495772  0  0.392316  1.689553  0  2.552542  0
Al  Al4  1  0.08775717  0.05267381  0.98090012  1  2.483938  0  0.502318  1.663409  0  2.509152  0
Al  Al5  1  0.05521474  0.85689463  0.98679186  1  2.479134  0  0.504482  1.664308  0  2.502835  0
H  H6  1  0.35971233  0.95529646  0.20297975  1  0.022888  0  0.096263  0.099798  0  0.986456  0
H  H7  1  0.25289086  0.71184658  0.20493778  1  0.078457  0  0.108784  0.131344  0  0.968639  0
H  H8  1  0.74773756  0.05351631  0.21914656  1  0.040247  0  0.102107  0.117581  0  1.002242  0
H  H9  1  0.05075895  0.24212086  0.20513029  1  0.057337  0  0.104221  0.121249  0  0.98833  0
H  H10  1  0.23724517  0.99636861  0.86103393  1  0.129541  0  0.107041  0.114263  0  1.034384  0
H  H11  1  0.04345297  0.75435297  0.85474507  1  0.114349  0  0.105587  0.112659  0  1.024102  0
H  H12  1  0.78100295  0.19670786  0.85341845  1  0.129861  0  0.11672  0.128429  0  0.998624  0
H  H13  1  0.39909857  0.93274686  0.62107175  1  0.096371  0  0.110743  0.116193  0  0.995925  0
H  H14  1  0.97557508  0.64692000  0.61827807  1  0.112392  0  0.11497  0.124215  0  0.985671  0
H  H15  1  0.65418582  0.36849060  0.61851812  1  0.071149  0  0.106967  0.112258  0  1.000422  0
H  H16  1  0.26779862  0.07325869  0.78436940  1  0.073578  0  0.095271  0.095069  0  1.037833  0
H  H17  1  0.90514139  0.70434014  0.19706683  1  0.066716  0  0.09614  0.100478  0  0.979243  0
H  H18  1  0.12665041  0.65538167  0.77555505  1  0.084987  0  0.099419  0.10198  0  1.013485  0
H  H19  1  0.65953059  0.23213317  0.78123551  1  0.071773  0  0.105808  0.108833  0  0.992964  0
H  H20  1  0.32359951  0.05150032  0.69584312  1  0.054536  0  0.104875  0.106372  0  0.99094  0
H  H21  1  0.10252208  0.61737319  0.68892839  1  0.072134  0  0.104652  0.107285  0  0.991563  0
H  H22  1  0.61391841  0.29311294  0.69491543  1  0.052504  0  0.102589  0.103413  0  0.994179  0
H  H23  1  0.38770768  0.54101500  0.79069093  1  0.10965  0  0.092577  0.095195  0  1.047809  0
H  H24  1  0.56493905  0.02383302  0.79509259  1  0.093966  0  0.089081  0.091069  0  1.055541  0
H  H25  1  0.11971121  0.30282200  0.76477856  1  0.069361  0  0.089352  0.090961  0  1.053458  0
H  H26  1  0.44231916  0.51979360  0.70293222  1  0.100656  0  0.103863  0.105308  0  0.995812  0
H  H27  1  0.54343325  0.99224335  0.70789307  1  0.082277  0  0.099523  0.100046  0  1.009996  0
H  H28  1  0.69771460  0.35520392  0.18661792  1  0.043969  0  0.099266  0.105403  0  0.970183  0
H  H29  1  0.07770204  0.35725015  0.67820961  1  0.059966  0  0.107265  0.110139  0  0.983203  0
H  H30  1  0.41258048  0.91567540  0.28469055  1  0.038133  0  0.087224  0.097841  0  1.011997  0
H  H31  1  0.92443757  0.68935257  0.28251598  1  0.051592  0  0.090592  0.097736  0  0.99636  0
H  H32  1  0.68628716  0.34769242  0.27297610  1  0.026199  0  0.092033  0.099128  0  1.002439  0
H  H33  1  0.46776290  0.59893231  0.62430679  1  0.092564  0  0.111176  0.118301  0  1.003433  0
H  H34  1  0.62575087  0.89253844  0.62895088  1  0.090121  0  0.106651  0.112188  0  1.012463  0
H  H35  1  0.95053854  0.40273431  0.60695520  1  0.119318  0  0.119663  0.132283  0  0.989105  0
H  H36  1  0.15187499  0.90106208  0.31047130  1  0.070821  0  0.09758  0.099678  0  0.994643  0
H  H37  1  0.93205715  0.94488899  0.30124771  1  0.060784  0  0.096289  0.101598  0  0.992833  0
H  H38  1  0.98554955  0.14078161  0.28851001  1  0.019725  0  0.095353  0.102084  0  0.991077  0
H  H39  1  0.50222853  0.77643116  0.26958152  1  0.059585  0  0.086592  0.09225  0  1.018133  0
H  H40  1  0.21106049  0.98806860  0.30421893  1  0.050934  0  0.098719  0.100638  0  0.990919  0
H  H41  1  0.01358273  0.80023801  0.30009604  1  0.049269  0  0.097063  0.101097  0  1.010071  0
H  H42  1  0.84653843  0.16192126  0.29386890  1  0.05577  0  0.0984  0.105723  0  0.996114  0
H  H43  1  0.15579709  0.01404271  0.22227898  1  0.027541  0  0.091564  0.085357  0  1.018495  0
H  H44  1  0.02484832  0.79580650  0.21418335  1  0.037862  0  0.098341  0.102664  0  0.973366  0
H  H45  1  0.82877426  0.15975506  0.20802579  1  0.014207  0  0.094045  0.092771  0  0.998479  0
H  H46  1  0.11251153  0.91441707  0.22722060  1  0.042494  0  0.09463  0.095588  0  1.028253  0
H  H47  1  0.95927617  0.94040669  0.21548225  1  0.026051  0  0.09243  0.088144  0  1.020343  0
H  H48  1  0.97625395  0.10499705  0.20439295  1  0.030604  0  0.091808  0.086757  0  1.021481  0
H  H49  1  0.39628125  0.67492686  0.19472536  1  0.068594  0  0.10082  0.124141  0  0.982244  0
H  H50  1  0.77702844  0.74316721  0.28648090  1  0.070189  0  0.083957  0.094008  0  1.020345  0
H  H51  1  0.66308992  0.99285067  0.20715032  1  0.083706  0  0.099108  0.121732  0  0.987656  0
H  H52  1  0.96088494  0.38057320  0.18928732  1  0.083728  0  0.100207  0.123475  0  0.98794  0
H  H53  1  0.19878707  0.74320462  0.36072384  1  0.053341  0  0.097325  0.062971  0  0.982045  0
H  H54  1  0.33432025  0.62409432  0.35399936  1  0.072106  0  0.095325  0.066364  0  1.018657  0
H  H55  1  0.11309262  0.63339244  0.32452803  1  -0.003928  0  0.08767  0.078658  0  1.002021  0
H  H56  1  0.24870054  0.51669078  0.32351048  1  0.038918  0  0.088958  0.081966  0  0.99376  0
H  H57  1  0.25550669  0.53158115  0.41677869  1  0.004535  0  0.087152  0.114052  0  0.996456  0
H  H58  1  0.13705707  0.51931369  0.39953207  1  0.051037  0  0.093613  0.127603  0  0.997816  0
H  H59  1  0.11836420  0.64822924  0.41699684  1  0.056297  0  0.090553  0.121605  0  0.994949  0
H  H60  1  0.65234568  0.20163566  0.34128227  1  0.047396  0  0.110982  0.087158  0  0.951278  0
H  H61  1  0.70394013  0.46450873  0.27365012  1  0.092842  0  0.075932  0.089142  0  1.069813  0
H  H62  1  0.56433078  0.14102290  0.33759522  1  0.061998  0  0.094139  0.06246  0  1.00316  0
H  H63  1  0.63444105  0.23401705  0.24933983  1  -0.00191  0  0.087877  0.081566  0  1.005504  0
H  H64  1  0.54504236  0.17601751  0.24725791  1  0.020995  0  0.089251  0.086029  0  1.012128  0
H  H65  1  0.40996517  0.32031663  0.30849528  1  0.014022  0  0.085394  0.109323  0  1.013822  0
H  H66  1  0.42848487  0.38063734  0.25391556  1  0.042123  0  0.087945  0.121593  0  0.997847  0
H  H67  1  0.49770860  0.38066091  0.30822282  1  0.050888  0  0.078762  0.108173  0  1.039839  0
H  H68  1  0.15659219  0.33769189  0.30663610  1  0.053982  0  0.108688  0.083025  0  0.952008  0
H  H69  1  0.11547354  0.34775774  0.24455883  1  0.077229  0  0.099676  0.063776  0  1.007502  0
H  H70  1  0.26501527  0.13800690  0.30142115  1  0.016458  0  0.09366  0.090433  0  0.971853  0
H  H71  1  0.20213326  0.13607886  0.24552253  1  0.000493  0  0.086246  0.07241  0  1.021869  0
H  H72  1  0.45618289  0.81761321  0.18712906  1  0.032973  0  0.099529  0.105333  0  0.965634  0
H  H73  1  0.29932330  0.22281794  0.20095457  1  0.039622  0  0.08902  0.12069  0  0.988521  0
H  H74  1  0.40190995  0.10545378  0.23238348  1  0.022697  0  0.077594  0.103554  0  1.055308  0
H  H75  1  0.35581676  0.23801242  0.25672265  1  0.007286  0  0.086906  0.119521  0  1.036741  0
H  H76  1  0.75664975  0.78499878  0.20263206  1  0.041502  0  0.09331  0.098251  0  0.977759  0
H  H77  1  0.74717721  0.45056920  0.18986618  1  0.052457  0  0.09395  0.100116  0  0.98081  0
H  H78  1  0.03372957  0.44833079  0.46288187  1  0.587211  0  0.288903  0.375789  0  0.937305  0
H  H79  1  0.64988548  0.16665664  0.95432998  1  0.56988  0  0.271406  0.35779  0  0.97272  0
C  C80  1  0.77507747  0.77775698  0.43413311  1  1.663815  0  0.280655  0.720191  0  4.149238  0
C  C81  1  0.25559590  0.86614757  0.14906534  1  -0.40773  0  -0.005476  -0.001079  0  3.963695  0
C  C82  1  0.62602974  0.15600142  0.31700375  1  0.422387  0  -0.070528  0.035916  0  3.897068  0
C  C83  1  0.57249065  0.22147459  0.27099462  1  -0.000764  0  -0.175456  -0.150813  0  3.986028  0
C  C84  1  0.47167701  0.33174608  0.28609982  1  -0.087056  0  -0.247321  -0.36216  0  3.987542  0
C  C85  1  0.13623868  0.29623147  0.27747979  1  0.374741  0  -0.067957  0.031196  0  3.877661  0
C  C86  1  0.23384142  0.18190353  0.26662585  1  0.008763  0  -0.169764  -0.133591  0  3.984573  0
C  C87  1  0.32804212  0.18704057  0.23743907  1  -0.044954  0  -0.24894  -0.362626  0  3.968001  0
C  C88  1  0.85224588  0.88975255  0.15108306  1  -0.352289  0  -0.015528  -0.01753  0  3.999777  0
C  C89  1  0.89629087  0.26148008  0.13903515  1  -0.355778  0  -0.010657  -0.005377  0  3.989072  0
C  C90  1  0.36863335  0.79950540  0.34606486  1  -0.025941  0  -0.00942  0.000843  0  4.015479  0
C  C91  1  0.82395885  0.84439079  0.35142727  1  -0.504362  0  -0.016304  -0.001992  0  4.019235  0
C  C92  1  0.83485829  0.33924171  0.33917661  1  -0.491246  0  -0.01865  -0.002745  0  4.012703  0
C  C93  1  0.40761202  0.78271177  0.38710104  1  -0.221023  0  -0.043395  -0.214398  0  3.927357  0
C  C94  1  0.80759681  0.82000699  0.39249797  1  0.248315  0  -0.044942  -0.210239  0  3.945218  0
C  C95  1  0.80918885  0.37914070  0.38027967  1  0.239267  0  -0.047674  -0.21268  0  3.947254  0
C  C96  1  0.94470807  0.17413212  0.90628886  1  1.58292  0  0.269778  0.650761  0  4.074993  0
C  C97  1  0.77822553  0.44690975  0.42382801  1  1.655748  0  0.278114  0.724282  0  4.142032  0
C  C98  1  0.21550923  0.86288707  0.91992322  1  1.559965  0  0.278722  0.662152  0  4.054254  0
C  C99  1  0.89431467  0.89866866  0.91615726  1  1.597319  0  0.269172  0.653793  0  4.080344  0
C  C100  1  0.92675976  0.20065628  0.04593297  1  1.650961  0  0.284548  0.71911  0  4.159396  0
C  C101  1  0.19021022  0.89547473  0.05632023  1  1.644948  0  0.283691  0.731065  0  4.137023  0
C  C102  1  0.88695634  0.91459253  0.05695587  1  1.647295  0  0.277757  0.715361  0  4.160575  0
C  C103  1  0.39965487  0.86561367  0.64162871  1  -0.036527  0  -0.074453  -0.136312  0  3.920911  0
C  C104  1  0.90575715  0.71000403  0.64018763  1  -0.067299  0  -0.072681  -0.136109  0  3.911702  0
C  C105  1  0.73026542  0.35975423  0.63528557  1  0.025306  0  -0.07844  -0.143354  0  3.932784  0
C  C106  1  0.36572826  0.88041814  0.69143564  1  0.029674  0  -0.002856  0.078836  0  4.031769  0
C  C107  1  0.92224843  0.73243489  0.68871491  1  -0.006169  0  -0.004431  0.076987  0  4.035445  0
C  C108  1  0.47232607  0.74866841  0.43121686  1  1.656477  0  0.284661  0.730133  0  4.129288  0
C  C109  1  0.75689655  0.32045470  0.68347026  1  -0.048593  0  -0.00474  0.07627  0  4.038193  0
C  C110  1  0.30108899  0.90582972  0.79284522  1  0.061235  0  -0.005318  0.075642  0  4.034718  0
C  C111  1  0.94968012  0.77479502  0.78853151  1  -0.009095  0  -0.007899  0.07505  0  4.042024  0
C  C112  1  0.80874663  0.25099032  0.78257441  1  -0.069038  0  -0.006818  0.074743  0  4.050639  0
C  C113  1  0.78016780  0.73992725  0.56881077  1  1.569775  0  0.272474  0.638351  0  4.090476  0
C  C114  1  0.76841263  0.44182308  0.55941351  1  1.549343  0  0.270775  0.635465  0  4.093782  0
C  C115  1  0.47982096  0.74734876  0.56616171  1  1.53589  0  0.277472  0.649181  0  4.070709  0
C  C116  1  0.29705472  0.99508208  0.76534037  1  -0.029218  0  -0.084395  -0.112133  0  3.980413  0
C  C117  1  0.04381978  0.69757081  0.75888716  1  -0.053701  0  -0.088494  -0.124613  0  3.999591  0
C  C118  1  0.71252491  0.25574534  0.75960146  1  -0.007182  0  -0.085736  -0.12238  0  3.999139  0
C  C119  1  0.31877858  0.73126560  0.21505141  1  -0.021537  0  -0.158523  -0.301154  0  3.836575  0
C  C120  1  0.32794657  0.98289665  0.71665640  1  -0.081192  0  -0.086482  -0.130594  0  4.004666  0
C  C121  1  0.03054695  0.67678581  0.71111769  1  0.002662  0  -0.089055  -0.133298  0  4.012461  0
C  C122  1  0.68748026  0.28939062  0.71210643  1  -0.042838  0  -0.089789  -0.135335  0  4.022318  0
C  C123  1  0.26793069  0.91752742  0.84252142  1  -0.040566  0  -0.072009  -0.117177  0  3.9047  0
C  C124  1  0.96093931  0.79598217  0.83782494  1  -0.07016  0  -0.076652  -0.128534  0  3.9203  0
C  C125  1  0.83418601  0.21947498  0.83149243  1  0.023871  0  -0.071193  -0.122155  0  3.91002  0
C  C126  1  0.26879955  0.83162701  0.86956207  1  0.025211  0  -0.018726  -0.093469  0  3.969074  0
C  C127  1  0.86862342  0.87145764  0.86663181  1  0.097674  0  -0.019628  -0.086577  0  3.986855  0
C  C128  1  0.92730009  0.21586428  0.85453620  1  -0.01797  0  -0.019447  -0.089698  0  3.973  0
C  C129  1  0.43814975  0.67695159  0.64343350  1  -0.034261  0  -0.072286  -0.131922  0  3.910461  0
C  C130  1  0.73879448  0.98089703  0.22579722  1  -0.039584  0  -0.16174  -0.311586  0  3.833444  0
C  C131  1  0.70765903  0.84874155  0.64618164  1  -0.046566  0  -0.078432  -0.139825  0  3.931958  0
C  C132  1  0.89820451  0.37892026  0.62890854  1  -0.094069  0  -0.070051  -0.132134  0  3.902338  0
C  C133  1  0.40698461  0.68774538  0.69351124  1  -0.023193  0  -0.004191  0.077318  0  4.038982  0
C  C134  1  0.71953905  0.87050837  0.69529506  1  0.006067  0  -0.007492  0.075228  0  4.050964  0
C  C135  1  0.92641597  0.34224450  0.67718025  1  -0.029031  0  -0.005812  0.076758  0  4.050778  0
C  C136  1  0.36996461  0.79025515  0.71809081  1  -0.00975  0  0.01076  0.010087  0  3.888262  0
C  C137  1  0.82767672  0.81234423  0.71714071  1  -0.02439  0  0.007181  0.009261  0  3.89444  0
C  C138  1  0.85521423  0.31332300  0.70523990  1  0.014246  0  0.007775  0.007092  0  3.896866  0
C  C139  1  0.41229422  0.59867872  0.72144459  1  -0.080879  0  -0.083105  -0.113713  0  3.985048  0
C  C140  1  0.62586028  0.94809605  0.72474896  1  -0.056392  0  -0.087915  -0.117333  0  4.002465  0
C  C141  1  0.96564583  0.31237755  0.21078389  1  -0.056342  0  -0.162512  -0.316791  0  3.856021  0
C  C142  1  0.02327146  0.33569442  0.69999086  1  0.015229  0  -0.08361  -0.11601  0  3.995463  0
C  C143  1  0.38203400  0.61032100  0.77023025  1  -0.043181  0  -0.094318  -0.125866  0  4.01362  0
C  C144  1  0.63759232  0.96570166  0.77306700  1  -0.065959  0  -0.098877  -0.129229  0  4.026164  0
C  C145  1  0.04674104  0.30526039  0.74790362  1  -0.052782  0  -0.09889  -0.131515  0  4.030715  0
C  C146  1  0.34265622  0.71260788  0.79592261  1  0.021886  0  -0.010305  0.027175  0  4.004689  0
C  C147  1  0.74490781  0.90906317  0.79619859  1  0.056565  0  -0.012062  0.027837  0  4.016433  0
C  C148  1  0.97663106  0.27656082  0.77740728  1  -0.006033  0  -0.012269  0.027807  0  4.009687  0
C  C149  1  0.41609922  0.84461425  0.26609960  1  -0.017974  0  -0.159927  -0.188908  0  3.844241  0
C  C150  1  0.84335368  0.75930999  0.27234144  1  -0.049891  0  -0.163789  -0.190193  0  3.858172  0
C  C151  1  0.74194797  0.37954631  0.26080483  1  -0.063702  0  -0.168159  -0.197008  0  3.866219  0
C  C152  1  0.33434589  0.71525394  0.27094798  1  0.566247  0  0.105569  0.283914  0  3.69757  0
C  C153  1  0.33783365  0.80278691  0.76893147  1  -0.028522  0  0.011602  0.0194  0  3.899251  0
C  C154  1  0.84090335  0.83259026  0.76721842  1  -0.022384  0  0.009262  0.015793  0  3.901192  0
C  C155  1  0.88071417  0.27956859  0.75495429  1  0.041643  0  0.00986  0.017682  0  3.903015  0
C  C156  1  0.30788216  0.72887869  0.84617877  1  -0.07855  0  -0.002429  0.048389  0  3.868814  0
C  C157  1  0.76072479  0.92542935  0.84601708  1  -0.154581  0  -0.004772  0.046829  0  3.872982  0
C  C158  1  0.99705137  0.24599054  0.82741590  1  -0.073844  0  -0.003612  0.047901  0  3.864546  0
C  C159  1  0.43521127  0.76497531  0.61773680  1  0.010979  0  -0.016256  -0.046497  0  4.018071  0
C  C160  1  0.79942660  0.76793689  0.61917628  1  -0.002927  0  -0.0161  -0.040454  0  4.024252  0
C  C161  1  0.79986449  0.38950667  0.60848777  1  0.017238  0  -0.016289  -0.039968  0  4.02004  0
C  C162  1  0.21275085  0.91481756  0.28890565  1  -0.056954  0  -0.153321  -0.180665  0  3.831189  0
C  C163  1  0.73007431  0.96859214  0.28209970  1  0.55897  0  0.110138  0.292623  0  3.669168  0
C  C164  1  0.93949308  0.87031508  0.28464920  1  -0.053274  0  -0.156104  -0.184695  0  3.825991  0
C  C165  1  0.89991562  0.18917536  0.27453442  1  -0.002639  0  -0.154592  -0.182571  0  3.816949  0
C  C166  1  0.18251302  0.92984185  0.23377758  1  -0.03035  0  -0.155888  -0.193534  0  3.826929  0
C  C167  1  0.95028393  0.87054655  0.22789010  1  -0.017287  0  -0.153703  -0.188589  0  3.827535  0
C  C168  1  0.89754694  0.17511570  0.21816175  1  -0.000772  0  -0.153435  -0.189719  0  3.829527  0
C  C169  1  0.23174086  0.87533478  0.10574878  1  0.137693  0  -0.04659  -0.220581  0  3.944169  0
C  C170  1  0.86363128  0.89699219  0.10699313  1  0.087923  0  -0.045843  -0.212905  0  3.963446  0
C  C171  1  0.91199822  0.24429462  0.09498575  1  0.090962  0  -0.046256  -0.218793  0  3.958901  0
C  C172  1  0.33350703  0.81701673  0.29511550  1  0.109516  0  -0.002374  0.078145  0  3.882485  0
C  C173  1  0.83380125  0.86111184  0.29935432  1  0.151657  0  -0.002356  0.090031  0  3.891488  0
C  C174  1  0.94444282  0.34052150  0.26619218  1  0.59487  0  0.110342  0.289745  0  3.702509  0
C  C175  1  0.85520316  0.31195916  0.28711886  1  0.143124  0  -0.000239  0.090968  0  3.894463  0
C  C176  1  0.38424432  0.86997494  0.21155061  1  -0.00425  0  -0.153691  -0.189101  0  3.838346  0
C  C177  1  0.83638302  0.77538752  0.21628716  1  -0.038114  0  -0.157788  -0.197101  0  3.867414  0
C  C178  1  0.75875801  0.37274806  0.20452697  1  -0.021306  0  -0.156809  -0.197493  0  3.860033  0
C  C179  1  0.28460366  0.85027365  0.20085003  1  0.142891  0  0.003427  0.186376  0  3.886757  0
C  C180  1  0.84397671  0.87909081  0.20383831  1  0.125767  0  0.00215  0.189458  0  3.891769  0
C  C181  1  0.87950431  0.28053583  0.19162456  1  0.130198  0  0.002219  0.188756  0  3.895073  0
C  C182  1  0.24819920  0.66609894  0.33976835  1  0.366112  0  -0.073445  0.025396  0  3.878125  0
C  C183  1  0.19415332  0.59387541  0.34350957  1  0.006515  0  -0.168985  -0.128591  0  3.985184  0
C  C184  1  0.17559754  0.57197717  0.39707282  1  -0.072955  0  -0.239095  -0.350764  0  3.957343  0
Br  Br185  1  0.32059585  0.60613806  0.88160786  1  -0.025451  0  0.058454  -0.026039  0  1.456301  0
Br  Br186  1  0.62981644  0.01637758  0.88556461  1  -0.044412  0  0.056215  -0.036698  0  1.478579  0
Br  Br187  1  0.11841880  0.25433654  0.85742186  1  -0.047111  0  0.051458  -0.042275  0  1.492428  0
Br  Br188  1  0.49127750  0.58430283  0.28174564  1  -0.194695  0  -0.001159  -0.170493  0  1.449509  0
Br  Br189  1  0.58990781  0.95365255  0.29675350  1  -0.192351  0  0.001963  -0.163725  0  1.385811  0
Br  Br190  1  0.87844096  0.50871178  0.27290038  1  -0.224581  0  -0.037086  -0.198569  0  1.326118  0
O  O191  1  0.84235844  0.48472751  0.43491085  1  -1.219556  0  -0.213073  -0.568482  0  2.2811  0
O  O192  1  0.83931523  0.45991505  0.53677954  1  -1.242577  0  -0.215392  -0.571429  0  2.37868  0
O  O193  1  0.49913086  0.65938068  0.54393591  1  -1.264742  0  -0.23305  -0.59775  0  2.313765  0
O  O194  1  0.69079486  0.81252990  0.54752074  1  -1.274551  0  -0.249403  -0.621241  0  2.317839  0
O  O195  1  0.84959248  0.64690431  0.55100744  1  -1.247102  0  -0.211585  -0.5434  0  2.320848  0
O  O196  1  0.66832423  0.47037905  0.54397231  1  -1.269274  0  -0.250544  -0.609873  0  2.261845  0
O  O197  1  0.50181969  0.81936049  0.54767342  1  -1.265731  0  -0.23573  -0.596066  0  2.28685  0
O  O198  1  0.68974449  0.64367695  0.49478732  1  -1.613563  0  -0.391229  -1.268108  0  2.296997  0
O  O199  1  0.83329686  0.99494485  0.93226053  1  -1.25421  0  -0.220338  -0.589591  0  2.449103  0
O  O200  1  0.04270567  0.13884017  0.92501698  1  -1.280753  0  -0.249859  -0.621561  0  2.373958  0
O  O201  1  0.17427950  0.80708343  0.93963060  1  -1.263449  0  -0.232423  -0.600651  0  2.384116  0
O  O202  1  0.50123165  0.65190700  0.44657902  1  -1.244478  0  -0.228784  -0.589242  0  2.227263  0
O  O203  1  0.86286779  0.17133499  0.92743929  1  -1.24411  0  -0.214401  -0.561783  0  2.363881  0
O  O204  1  0.20638726  0.95022022  0.93923941  1  -1.265243  0  -0.23374  -0.591678  0  2.302247  0
O  O205  1  0.98195649  0.82390078  0.93762436  1  -1.274372  0  -0.245583  -0.601106  0  2.276027  0
O  O206  1  0.99417810  0.00011804  0.98377295  1  -1.611954  0  -0.392418  -1.268517  0  2.294962  0
O  O207  1  0.84775927  0.18679939  0.03078995  1  -1.208146  0  -0.196077  -0.525368  0  2.288218  0
O  O208  1  0.18036111  0.98167630  0.03556142  1  -1.241449  0  -0.230007  -0.591198  0  2.243352  0
O  O209  1  0.97328465  0.83311258  0.03547916  1  -1.254146  0  -0.247769  -0.614026  0  2.223673  0
O  O210  1  0.25296927  0.69105471  0.28816437  1  -1.056445  0  -0.200071  -0.243446  0  2.53175  0
O  O211  1  0.72759944  0.05229938  0.31024278  1  -1.067201  0  -0.203241  -0.254051  0  2.549671  0
O  O212  1  0.03802965  0.29069176  0.29484658  1  -1.065045  0  -0.195071  -0.231666  0  2.530049  0
O  O213  1  0.67418610  0.84048400  0.45192186  1  -1.262129  0  -0.243344  -0.606995  0  2.223573  0
O  O214  1  0.82565352  0.00759168  0.03886752  1  -1.215461  0  -0.203604  -0.54239  0  2.281329  0
O  O215  1  0.02047482  0.17429917  0.02259941  1  -1.255704  0  -0.245432  -0.611144  0  2.224196  0
O  O216  1  0.16218689  0.82883395  0.03766733  1  -1.241275  0  -0.228712  -0.590225  0  2.23684  0
O  O217  1  0.84368712  0.68252109  0.44829694  1  -1.224999  0  -0.207749  -0.561024  0  2.283624  0
O  O218  1  0.68602444  0.46644279  0.44672246  1  -1.26247  0  -0.244024  -0.613014  0  2.239199  0
O  O219  1  0.50010777  0.81469425  0.45052615  1  -1.238611  0  -0.224545  -0.58691  0  2.249683  0
O  O220  1  0.99902899  0.49402361  0.49169360  1  -1.377559  0  -0.580334  -0.997992  0  1.805586  0
O  O221  1  0.68696510  0.17885497  0.98162267  1  -1.36533  0  -0.581558  -0.990017  0  1.805609  0
