# generated using pymatgen
data_MnH9C7N3O5
_symmetry_space_group_name_H-M   'P 1'
_cell_length_a   6.72375080
_cell_length_b   11.44604835
_cell_length_c   12.09807255
_cell_angle_alpha   107.18623645
_cell_angle_beta   90.00189192
_cell_angle_gamma   89.99840953
_symmetry_Int_Tables_number   1
_chemical_formula_structural   MnH9C7N3O5
_chemical_formula_sum   'Mn4 H36 C28 N12 O20'
_cell_volume   889.49925910
_cell_formula_units_Z   4
loop_
 _symmetry_equiv_pos_site_id
 _symmetry_equiv_pos_as_xyz
  1  'x, y, z'
loop_
 _atom_site_type_symbol
 _atom_site_label
 _atom_site_symmetry_multiplicity
 _atom_site_fract_x
 _atom_site_fract_y
 _atom_site_fract_z
 _atom_site_occupancy
 _atom_site_hle17_ddec_charge
 _atom_site_hle17_ddec_spin_density
 _atom_site_hle17_ddec_sum_bond_order
 _atom_site_hle17_magmom
 _atom_site_hse06_10hf_ddec_charge
 _atom_site_hse06_10hf_ddec_spin_density
 _atom_site_hse06_10hf_ddec_sum_bond_order
 _atom_site_hse06_10hf_magmom
 _atom_site_hse06_ddec_charge
 _atom_site_hse06_ddec_spin_density
 _atom_site_hse06_ddec_sum_bond_order
 _atom_site_hse06_magmom
 _atom_site_pbe_cm5_charge
 _atom_site_pbe_ddec_charge
 _atom_site_pbe_ddec_spin_density
 _atom_site_pbe_ddec_sum_bond_order
 _atom_site_pbe_magmom
Mn  Mn0  1  0.90135167  0.57407044  0.82985771  1  1.145771  -4.788542  1.78231  -4.668  0.984863  -4.70972  2.271417  -4.522  1.038221  -4.757322  2.206893  -4.589  0.612617  0.945424  -4.656409  2.31921  -4.45
Mn  Mn1  1  0.40127416  0.92595639  0.67014944  1  1.145711  -4.788671  1.782339  -4.668  0.984722  -4.709802  2.2715  -4.522  1.038173  -4.757508  2.206939  -4.589  0.612541  0.945149  -4.656274  2.31936  -4.45
Mn  Mn2  1  0.09881940  0.42559234  0.17020089  1  1.145229  -4.786014  1.78665  -4.666  0.984303  -4.705088  2.276889  -4.518  1.037631  -4.754762  2.212029  -4.587  0.613037  0.944798  -4.646877  2.325316  -4.442
Mn  Mn3  1  0.59887607  0.07437511  0.32980472  1  1.145113  4.790299  1.786715  4.666  0.984155  4.706944  2.277077  4.518  1.037551  4.760512  2.212108  4.587  0.612896  0.944551  4.644596  2.325648  4.441
H  H4  1  0.80994308  0.38353793  0.53397981  1  0.101534  9.3e-05  0.937917  0.0  0.109456  -0.0002  1.003215  0.0  0.112772  -0.00016  0.999278  0.0  0.140029  0.106891  -0.000237  1.006232  0.0
H  H5  1  0.30995088  0.11646605  0.96603583  1  0.101653  0.000651  0.937959  0.0  0.109599  0.00047  1.003259  0.0  0.112932  0.000502  0.999271  0.0  0.140083  0.107027  0.000428  1.006289  0.0
H  H6  1  0.19044512  0.61648435  0.46603982  1  0.101778  0.000688  0.938153  0.0  0.109615  0.000488  1.003502  0.0  0.112969  0.000536  0.999519  0.0  0.139994  0.106992  0.000419  1.006585  0.0
H  H7  1  0.69044029  0.88351417  0.03396457  1  0.101733  -8.9e-05  0.938061  0.0  0.109564  0.000152  1.003435  0.0  0.112911  0.000136  0.999467  0.0  0.139997  0.106941  0.000154  1.00652  0.0
H  H8  1  0.51947891  0.67775207  0.01413341  1  0.056699  0.000298  0.936679  0.0  0.072204  0.000108  1.005435  0.0  0.0716  0.000193  1.006456  0.0  0.100561  0.0728  -5e-06  1.004669  0.0
H  H9  1  0.01951697  0.82224758  0.48583175  1  0.05666  8.6e-05  0.936899  0.0  0.072079  -2.8e-05  1.005708  0.0  0.071488  7.4e-05  1.006721  0.0  0.1005  0.072676  -0.000158  1.004938  0.0
H  H10  1  0.48035752  0.32214581  0.98588691  1  0.056581  0.000348  0.936545  0.0  0.072194  0.000239  1.005258  0.0  0.07156  0.000288  1.006306  0.0  0.100558  0.072829  0.000181  1.004479  0.0
H  H11  1  0.98031796  0.17785158  0.51412757  1  0.056515  -3.7e-05  0.936538  0.0  0.072071  -2.9e-05  1.00534  0.0  0.071443  -5.9e-05  1.006377  0.0  0.100523  0.072709  7e-06  1.004558  0.0
H  H12  1  0.73356600  0.66276655  0.09458201  1  0.071067  0.000197  0.942503  0.0  0.088411  3.9e-05  1.004359  0.0  0.08888  0.000151  1.004162  0.0  0.107779  0.088207  -7.4e-05  1.004426  -0.001
H  H13  1  0.23356294  0.83726169  0.40536703  1  0.071018  0.000382  0.942892  0.0  0.088334  0.000407  1.004761  0.0  0.0888  0.000376  1.004592  0.0  0.107768  0.088148  0.000432  1.004805  0.0
H  H14  1  0.26622135  0.33713862  0.90547671  1  0.0709  0.000314  0.943  0.0  0.088271  0.000172  1.004841  0.0  0.088713  0.0003  1.004638  0.0  0.107987  0.088095  3.7e-05  1.004859  -0.001
H  H15  1  0.76622291  0.16283567  0.59455708  1  0.070962  -0.000268  0.942984  0.0  0.088312  -0.0003  1.004857  0.0  0.088752  -0.000249  1.00467  0.0  0.107968  0.088147  -0.000352  1.004876  0.0
H  H16  1  0.41911134  0.62813117  0.19492556  1  0.070272  -0.000382  0.95225  0.0  0.085297  -0.000727  1.017886  -0.001  0.085737  -0.000566  1.017915  -0.001  0.105649  0.08511  -0.000873  1.017908  -0.001
H  H17  1  0.91907092  0.87189943  0.30505982  1  0.070196  -0.000161  0.952275  0.0  0.085241  -0.000143  1.01798  0.0  0.085672  -9.3e-05  1.018001  0.0  0.105733  0.085073  -0.000213  1.017995  0.0
H  H18  1  0.58069088  0.37177675  0.80513558  1  0.070638  -0.000448  0.951687  0.0  0.085466  -0.000977  1.017648  -0.001  0.085877  -0.000728  1.017672  -0.001  0.105752  0.085305  -0.001205  1.01766  -0.001
H  H19  1  0.08071494  0.12818604  0.69486012  1  0.070697  3.1e-05  0.951895  0.0  0.085475  -0.00028  1.017857  0.0  0.085877  -0.00017  1.017884  0.0  0.105749  0.085335  -0.000396  1.017846  0.0
H  H20  1  0.57380521  0.49766777  0.15767593  1  0.077744  0.000434  0.932069  0.0  0.092744  0.000207  0.996989  0.0  0.093412  0.000295  0.996945  0.0  0.106383  0.092427  0.000128  0.996967  0.0
H  H21  1  0.07372778  0.00237589  0.34232824  1  0.077559  -0.000208  0.932196  0.0  0.092703  -9.7e-05  0.997002  0.0  0.093364  -0.000163  0.996959  0.0  0.106356  0.092394  -4.7e-05  0.996976  0.0
H  H22  1  0.42605352  0.50226119  0.84237788  1  0.077862  0.000428  0.931843  0.0  0.092889  0.000147  0.996724  0.0  0.093563  0.000263  0.996661  0.0  0.106523  0.092524  3.5e-05  0.996734  0.0
H  H23  1  0.92610716  0.99768854  0.65759903  1  0.077937  0.000147  0.93198  0.0  0.092868  -8e-05  0.996975  0.0  0.093543  5e-05  0.996914  0.0  0.106481  0.09251  -0.000211  0.996983  0.0
H  H24  1  0.74365028  0.49039349  0.38422480  1  0.319424  0.000148  0.901707  0.0  0.294721  5.4e-05  0.969272  0.0  0.304837  0.000144  0.961012  0.0  0.314879  0.287526  -4.2e-05  0.975189  -0.001
H  H25  1  0.24364992  0.00961249  0.11578603  1  0.319558  -0.000678  0.901463  0.0  0.294827  -0.000801  0.969076  0.0  0.304939  -0.000723  0.960821  0.0  0.314909  0.287626  -0.000893  0.975012  0.0
H  H26  1  0.25661151  0.50971564  0.61584809  1  0.319716  0.000292  0.901597  0.0  0.295045  0.000249  0.969254  0.0  0.30519  0.000326  0.960965  0.0  0.314683  0.287818  0.00018  0.975228  -0.001
H  H27  1  0.75662376  0.99027721  0.88415843  1  0.319407  0.000826  0.902088  0.0  0.294805  0.000889  0.969639  0.0  0.304958  0.000857  0.961347  0.0  0.314581  0.287579  0.000901  0.975591  0.0
H  H28  1  0.77631519  0.46138245  0.97299186  1  0.25182  0.000122  0.956712  -0.001  0.245664  -0.001013  1.008639  -0.002  0.251038  -0.000739  1.006066  -0.001  0.29267  0.24201  -0.001252  1.010222  -0.002
H  H29  1  0.27634397  0.03862194  0.52699599  1  0.252237  -0.000839  0.956664  -0.001  0.246024  -0.001803  1.008558  -0.002  0.251406  -0.001595  1.005981  -0.001  0.292799  0.242371  -0.001964  1.010131  -0.002
H  H30  1  0.22340226  0.53848427  0.02712387  1  0.252179  0.000124  0.956022  -0.001  0.246062  -0.001016  1.00786  -0.002  0.251418  -0.00074  1.005297  -0.001  0.292776  0.242406  -0.00125  1.009423  -0.002
H  H31  1  0.72337049  0.96150929  0.47288388  1  0.251994  0.000842  0.956247  0.001  0.245811  0.001805  1.008089  0.002  0.251175  0.001598  1.005524  0.001  0.292703  0.242161  0.00196  1.00964  0.002
H  H32  1  0.93670148  0.31700998  0.79480718  1  0.417953  -0.000148  0.889114  -0.001  0.382867  -0.000753  0.960885  -0.002  0.394934  -0.000486  0.943215  -0.002  0.291194  0.374241  -0.001004  0.973508  -0.002
H  H33  1  0.43668790  0.18301354  0.70520637  1  0.418027  -0.000393  0.889044  -0.001  0.382883  -0.001036  0.960909  -0.002  0.394951  -0.000757  0.943234  -0.002  0.291155  0.37425  -0.0013  0.973544  -0.002
H  H34  1  0.06351123  0.68283217  0.20513057  1  0.417795  -0.000166  0.889169  -0.001  0.382678  -0.00079  0.96104  -0.002  0.394718  -0.000515  0.94341  -0.002  0.291051  0.374053  -0.001046  0.973659  -0.002
H  H35  1  0.56351737  0.81715963  0.29485718  1  0.417758  0.000419  0.889211  0.001  0.382597  0.001078  0.961164  0.002  0.394657  0.000798  0.943502  0.002  0.291028  0.373972  0.001338  0.973786  0.002
H  H36  1  0.11430034  0.35363766  0.72074839  1  0.427514  -0.000302  0.873096  -0.001  0.395625  -0.000932  0.9386  -0.002  0.406362  -0.000645  0.923047  -0.002  0.295443  0.388205  -0.001204  0.949321  -0.003
H  H37  1  0.61428823  0.14635948  0.77925674  1  0.427562  -0.000318  0.873026  -0.002  0.395658  -0.000999  0.93855  -0.002  0.406395  -0.000699  0.923005  -0.002  0.295475  0.388242  -0.001278  0.94926  -0.003
H  H38  1  0.88600756  0.64627306  0.27923336  1  0.428227  -0.000318  0.872207  -0.001  0.396192  -0.001007  0.937977  -0.002  0.406937  -0.000707  0.922405  -0.002  0.295666  0.388768  -0.001286  0.948703  -0.003
H  H39  1  0.38599735  0.85372135  0.22075201  1  0.428063  0.0003  0.872399  0.001  0.396068  0.000934  0.938114  0.002  0.406795  0.00065  0.922565  0.002  0.295612  0.388636  0.001199  0.948859  0.003
C  C40  1  0.72190163  0.77814612  0.75167116  1  0.64322  -0.008944  3.902217  -0.009  0.587439  -0.018161  4.203856  -0.016  0.623753  -0.012534  4.193971  -0.011  0.217988  0.56141  -0.02526  4.2108  -0.021
C  C41  1  0.22190216  0.72186727  0.74832973  1  0.643195  -0.008938  3.902114  -0.009  0.587515  -0.018149  4.203618  -0.016  0.623819  -0.012522  4.193742  -0.011  0.217997  0.561494  -0.025231  4.210556  -0.021
C  C42  1  0.27801214  0.22185958  0.24849922  1  0.642823  0.004904  3.899945  0.004  0.586556  0.007733  4.201753  0.006  0.623154  0.00491  4.19169  0.004  0.21736  0.560065  0.012383  4.209036  0.01
C  C43  1  0.77799227  0.27813594  0.25150766  1  0.642624  -0.004896  3.900484  -0.004  0.586338  -0.007776  4.202272  -0.006  0.622948  -0.004906  4.192214  -0.004  0.217166  0.559841  -0.01257  4.209539  -0.01
C  C44  1  0.72209580  0.67225656  0.64511889  1  0.005091  -0.001625  3.72237  -0.002  -0.000645  -0.004387  3.980371  -0.004  -0.002142  -0.003044  3.999054  -0.003  0.086107  6e-06  -0.006345  3.968747  -0.005
C  C45  1  0.22211104  0.82774951  0.85488821  1  0.004924  -0.00157  3.722369  -0.002  -0.000772  -0.004317  3.980246  -0.004  -0.002269  -0.002992  3.998939  -0.003  0.08613  -0.000131  -0.00622  3.968636  -0.005
C  C46  1  0.27773469  0.32767877  0.35497969  1  0.005699  -0.002808  3.722591  -0.003  -0.000202  -0.003439  3.980921  -0.004  -0.001647  -0.003502  3.999457  -0.004  0.086104  0.000347  -0.002799  3.969537  -0.004
C  C47  1  0.77772985  0.17231950  0.14502300  1  0.005698  0.002616  3.722466  0.003  -7e-05  0.003106  3.980612  0.003  -0.001546  0.003303  3.999185  0.003  0.086126  0.000483  0.002198  3.969232  0.003
C  C48  1  0.77661331  0.48022347  0.55460932  1  0.264338  -0.005814  3.628918  -0.006  0.196058  -0.008135  3.91583  -0.008  0.210736  -0.006847  3.925423  -0.007  0.160525  0.186331  -0.009466  3.90941  -0.009
C  C49  1  0.27662738  0.01978456  0.94540352  1  0.264257  -0.005747  3.628678  -0.006  0.19591  -0.008031  3.915626  -0.008  0.210605  -0.006709  3.925208  -0.007  0.160431  0.186166  -0.009402  3.909234  -0.009
C  C50  1  0.22357411  0.51977136  0.44542988  1  0.264205  -0.005726  3.629193  -0.006  0.195899  -0.007429  3.916166  -0.007  0.210624  -0.006386  3.925682  -0.007  0.160307  0.186112  -0.008651  3.90989  -0.009
C  C51  1  0.72357194  0.98022769  0.05457609  1  0.26449  0.005793  3.628732  0.006  0.196189  0.007447  3.915806  0.007  0.210916  0.006548  3.925324  0.007  0.160422  0.1864  0.008446  3.90953  0.008
C  C52  1  0.69749479  0.65751774  0.52691510  1  0.007834  -1.5e-05  3.673482  0.0  -0.009564  -0.002372  3.942285  -0.002  -0.009971  -0.000682  3.958422  -0.001  0.08882  -0.010054  -0.005004  3.932549  -0.003
C  C53  1  0.19749695  0.84248953  0.97308940  1  0.007862  -0.000115  3.673715  0.0  -0.009515  -0.00246  3.942355  -0.002  -0.009942  -0.000765  3.958539  -0.001  0.08882  -0.010016  -0.005136  3.932647  -0.003
C  C54  1  0.30242790  0.34247063  0.47319173  1  0.008285  0.001443  3.673071  0.002  -0.009424  0.001473  3.942455  0.002  -0.009755  0.001017  3.958509  0.001  0.088971  -0.010057  0.003038  3.932913  0.003
C  C55  1  0.80244655  0.15752003  0.02681589  1  0.008311  -0.001438  3.673006  -0.001  -0.009409  -0.001628  3.942446  -0.002  -0.00973  -0.001106  3.958521  -0.001  0.088867  -0.010058  -0.003359  3.932912  -0.003
C  C56  1  0.64154294  0.74207105  0.46070821  1  0.641614  -0.004479  3.930881  -0.005  0.58207  -0.008778  4.238558  -0.008  0.61784  -0.006125  4.227869  -0.006  0.220859  0.557172  -0.012356  4.245934  -0.011
C  C57  1  0.14153100  0.75794086  0.03929489  1  0.641444  -0.00425  3.930957  -0.005  0.582073  -0.00841  4.23845  -0.008  0.617779  -0.005838  4.227811  -0.006  0.220777  0.557164  -0.011844  4.245842  -0.011
C  C58  1  0.35846006  0.25792284  0.53936545  1  0.640376  0.003832  3.930847  0.004  0.580831  0.007506  4.238648  0.007  0.616682  0.005309  4.227915  0.006  0.219953  0.555835  0.010446  4.246164  0.009
C  C59  1  0.85848538  0.24206045  0.96063372  1  0.640251  -0.004301  3.930597  -0.005  0.580715  -0.008565  4.238434  -0.008  0.616539  -0.005888  4.227708  -0.006  0.21998  0.555759  -0.012251  4.245935  -0.011
C  C60  1  0.60736235  0.61276208  0.04534384  1  0.01534  -0.002629  3.624484  -0.003  -0.042239  -0.004085  3.888018  -0.004  -0.038028  -0.003114  3.900582  -0.003  -0.073039  -0.044988  -0.004996  3.878496  -0.004
C  C61  1  0.10737622  0.88724751  0.45463069  1  0.015295  0.000747  3.625144  0.001  -0.04216  -0.000647  3.888451  0.0  -0.038046  -0.00037  3.901176  0.0  -0.07299  -0.044878  -0.000894  3.878862  0.0
C  C62  1  0.39243690  0.38713305  0.95469884  1  0.014951  -0.002464  3.624365  -0.003  -0.042524  -0.003998  3.887794  -0.004  -0.038282  -0.003001  3.90032  -0.003  -0.073341  -0.045344  -0.004928  3.878306  -0.004
C  C63  1  0.89241707  0.11285167  0.54530798  1  0.015041  -0.00071  3.62432  -0.001  -0.042511  0.000473  3.887646  0.0  -0.038294  0.000332  3.900213  0.0  -0.073174  -0.045329  0.000548  3.878134  0.0
C  C64  1  0.48086061  0.55665551  0.12166602  1  -0.008702  -0.002903  3.633527  -0.002  -0.065721  -0.005137  3.898739  -0.003  -0.062467  -0.004052  3.911089  -0.003  -0.078409  -0.067947  -0.006109  3.889545  -0.004
C  C65  1  0.98080778  0.94337527  0.37832552  1  -0.008434  -4.7e-05  3.633183  -0.001  -0.065656  0.001849  3.898318  0.0  -0.062373  0.001585  3.910661  0.0  -0.07838  -0.067882  0.001982  3.889098  0.0
C  C66  1  0.51895053  0.44325606  0.87840193  1  -0.008407  -0.00296  3.632431  -0.002  -0.065699  -0.005295  3.898303  -0.003  -0.06232  -0.004168  3.910429  -0.003  -0.078534  -0.06792  -0.006304  3.889165  -0.004
C  C67  1  0.01898402  0.05671111  0.62159055  1  -0.008513  -0.000116  3.633205  0.001  -0.065639  -0.002417  3.89874  0.0  -0.062269  -0.00196  3.910899  0.0  -0.078288  -0.067853  -0.002798  3.889568  0.0
N  N68  1  0.77083798  0.56059087  0.65954859  1  -0.408094  -0.027217  3.20244  -0.013  -0.349943  -0.031408  3.496455  -0.012  -0.369164  -0.027823  3.509293  -0.009  -0.342765  -0.336413  -0.035068  3.487963  -0.015
N  N69  1  0.27086800  0.93941188  0.84046097  1  -0.407943  -0.027205  3.202146  -0.013  -0.349858  -0.031363  3.496266  -0.012  -0.369082  -0.027778  3.509084  -0.009  -0.342773  -0.336321  -0.035008  3.487802  -0.015
N  N70  1  0.22917543  0.43935182  0.34048841  1  -0.408583  -0.026567  3.202524  -0.012  -0.350364  -0.029801  3.49682  -0.01  -0.36955  -0.027074  3.509505  -0.008  -0.343227  -0.336877  -0.031809  3.488556  -0.012
N  N71  1  0.72914838  0.06064794  0.15951462  1  -0.408705  0.026537  3.20242  0.012  -0.350476  0.029616  3.496665  0.01  -0.36965  0.026958  3.50933  0.008  -0.343231  -0.336978  0.031524  3.488436  0.012
N  N72  1  0.73460182  0.53526213  0.47281946  1  -0.289774  -0.001569  3.419822  -0.002  -0.228699  -0.003542  3.662807  -0.003  -0.244571  -0.002371  3.676855  -0.002  -0.362158  -0.218272  -0.005183  3.653749  -0.005
N  N73  1  0.23460037  0.96474319  0.02719013  1  -0.289862  -0.001561  3.419692  -0.001  -0.228733  -0.003507  3.66259  -0.003  -0.244612  -0.002393  3.676645  -0.002  -0.362113  -0.218319  -0.0051  3.65356  -0.004
N  N74  1  0.26551867  0.46476744  0.52723857  1  -0.290308  -0.00067  3.419839  -0.001  -0.229212  -0.001453  3.662901  -0.002  -0.245199  -0.00123  3.677009  -0.001  -0.362097  -0.218727  -0.001328  3.653943  -0.001
N  N75  1  0.76554243  0.03522334  0.97276841  1  -0.290131  0.000958  3.419933  0.001  -0.229204  0.001528  3.663213  0.001  -0.245208  0.001501  3.677327  0.001  -0.361997  -0.218711  0.001127  3.654268  0.001
N  N76  1  0.68497112  0.51807907  0.94294032  1  -0.4401  -0.033418  3.188073  -0.019  -0.36911  -0.036016  3.449334  -0.016  -0.390636  -0.032039  3.458926  -0.013  -0.492847  -0.352324  -0.039377  3.441136  -0.019
N  N77  1  0.18499888  0.98191191  0.55703045  1  -0.440235  -0.033853  3.188761  -0.019  -0.369194  -0.036354  3.449928  -0.017  -0.390733  -0.032473  3.459531  -0.013  -0.493009  -0.352381  -0.039583  3.441715  -0.019
N  N78  1  0.31482218  0.48179682  0.05713995  1  -0.440153  -0.033274  3.187106  -0.019  -0.369349  -0.035645  3.448714  -0.016  -0.390894  -0.031866  3.458241  -0.013  -0.492841  -0.35238  -0.03863  3.440573  -0.018
N  N79  1  0.81478252  0.01820558  0.44287532  1  -0.439907  0.033663  3.187882  0.019  -0.368793  0.035856  3.449293  0.016  -0.390376  0.032237  3.458822  0.013  -0.492717  -0.351781  0.038616  3.441142  0.018
O  O80  1  0.68301147  0.88626610  0.74760869  1  -0.636866  -0.024007  2.059011  -0.013  -0.570818  -0.030786  2.312223  -0.016  -0.598838  -0.027812  2.29938  -0.014  -0.303911  -0.550433  -0.033619  2.320685  -0.018
O  O81  1  0.18303661  0.61374044  0.75238790  1  -0.63708  -0.024148  2.058961  -0.013  -0.571095  -0.030975  2.312172  -0.017  -0.599071  -0.027948  2.299282  -0.014  -0.304024  -0.550756  -0.033865  2.320679  -0.019
O  O82  1  0.31787645  0.11378453  0.25240648  1  -0.636708  0.018706  2.059676  0.006  -0.569669  0.02058  2.312645  0.005  -0.597891  0.020235  2.2997  0.005  -0.303328  -0.549085  0.020571  2.321379  0.004
O  O83  1  0.81787363  0.38620868  0.24760628  1  -0.636751  -0.018866  2.060065  -0.007  -0.569631  -0.020851  2.312929  -0.005  -0.597837  -0.020397  2.29995  -0.005  -0.303249  -0.549043  -0.020992  2.321651  -0.005
O  O84  1  0.76620461  0.75413048  0.84510239  1  -0.626019  -0.037003  2.009335  -0.029  -0.571262  -0.048534  2.273987  -0.037  -0.599075  -0.041683  2.263405  -0.031  -0.304068  -0.551481  -0.05654  2.281258  -0.045
O  O85  1  0.26615838  0.74588970  0.65490039  1  -0.625759  -0.03698  2.00921  -0.028  -0.571152  -0.048517  2.273993  -0.037  -0.598969  -0.041677  2.263412  -0.031  -0.304011  -0.551367  -0.056503  2.281259  -0.045
O  O86  1  0.23287034  0.24583585  0.15512390  1  -0.62542  -0.026681  2.009575  -0.016  -0.570993  -0.02908  2.275633  -0.016  -0.598825  -0.027627  2.264716  -0.014  -0.304215  -0.551102  -0.030028  2.28322  -0.017
O  O87  1  0.73283328  0.25416112  0.34487759  1  -0.62517  0.026662  2.009696  0.016  -0.570843  0.028998  2.275812  0.015  -0.59869  0.027609  2.264885  0.014  -0.304027  -0.550933  0.029804  2.283406  0.016
O  O88  1  0.56658542  0.84580306  0.51427342  1  -0.631396  -0.030205  2.098791  -0.017  -0.561522  -0.036327  2.362347  -0.019  -0.58951  -0.032922  2.3478  -0.016  -0.302788  -0.54162  -0.039847  2.372239  -0.022
O  O89  1  0.06660453  0.65419936  0.98571903  1  -0.631437  -0.02927  2.09902  -0.016  -0.561699  -0.035188  2.362633  -0.018  -0.58963  -0.031912  2.348045  -0.016  -0.302891  -0.541805  -0.03852  2.372527  -0.021
O  O90  1  0.43326439  0.15414788  0.48574605  1  -0.630842  0.029973  2.098322  0.016  -0.561022  0.035438  2.362008  0.018  -0.589037  0.0325  2.347336  0.016  -0.302471  -0.541122  0.038364  2.372  0.021
O  O91  1  0.93326015  0.34584033  0.01425587  1  -0.630804  -0.029529  2.098328  -0.016  -0.560923  -0.035409  2.361869  -0.019  -0.58894  -0.032206  2.347313  -0.016  -0.302531  -0.541037  -0.038709  2.371794  -0.022
O  O92  1  0.67165764  0.70828049  0.35165572  1  -0.633992  -0.00444  2.000907  -0.005  -0.56591  -0.00772  2.220437  -0.009  -0.5912  -0.005698  2.210344  -0.007  -0.304427  -0.549093  -0.010289  2.227723  -0.011
O  O93  1  0.17161335  0.79174112  0.14834983  1  -0.633648  -0.004736  2.000897  -0.005  -0.565772  -0.008156  2.220451  -0.009  -0.590934  -0.006028  2.210308  -0.007  -0.30426  -0.548959  -0.010896  2.227738  -0.012
O  O94  1  0.32860117  0.29174721  0.64845552  1  -0.633478  0.004515  2.001457  0.005  -0.565412  0.007277  2.220905  0.008  -0.590633  0.005587  2.210699  0.006  -0.304176  -0.548696  0.009511  2.228318  0.01
O  O95  1  0.82863653  0.20823278  0.85154135  1  -0.633422  -0.004288  2.001346  -0.005  -0.565329  -0.007461  2.220718  -0.009  -0.59057  -0.005395  2.210551  -0.007  -0.304193  -0.548614  -0.010156  2.228107  -0.012
O  O96  1  0.98709201  0.38190247  0.76199112  1  -0.842582  -0.030955  1.889334  -0.018  -0.781876  -0.041931  2.110458  -0.025  -0.804605  -0.037712  2.073007  -0.022  -0.576822  -0.76471  -0.04579  2.136407  -0.028
O  O97  1  0.48707296  0.11811223  0.73801841  1  -0.842781  -0.031171  1.889304  -0.018  -0.781952  -0.042202  2.110427  -0.025  -0.804685  -0.037995  2.072956  -0.022  -0.576837  -0.764788  -0.046039  2.136398  -0.028
O  O98  1  0.01316680  0.61796435  0.23797421  1  -0.843191  -0.030844  1.888548  -0.018  -0.782291  -0.041877  2.109296  -0.025  -0.805013  -0.037675  2.071868  -0.022  -0.576859  -0.76507  -0.045703  2.135281  -0.028
O  O99  1  0.51316056  0.88202713  0.26201086  1  -0.843033  0.031118  1.888763  0.018  -0.782096  0.042078  2.109477  0.025  -0.804836  0.037955  2.072073  0.022  -0.576776  -0.764861  0.045802  2.135467  0.028
