# generated using pymatgen
data_CdH14(C4O3)2
_symmetry_space_group_name_H-M   'P 1'
_cell_length_a   5.35781082
_cell_length_b   6.53130259
_cell_length_c   16.17572105
_cell_angle_alpha   79.28075985
_cell_angle_beta   80.45442565
_cell_angle_gamma   65.76657990
_symmetry_Int_Tables_number   1
_chemical_formula_structural   CdH14(C4O3)2
_chemical_formula_sum   'Cd2 H28 C16 O12'
_cell_volume   504.62254040
_cell_formula_units_Z   2
loop_
 _symmetry_equiv_pos_site_id
 _symmetry_equiv_pos_as_xyz
  1  'x, y, z'
loop_
 _atom_site_type_symbol
 _atom_site_label
 _atom_site_symmetry_multiplicity
 _atom_site_fract_x
 _atom_site_fract_y
 _atom_site_fract_z
 _atom_site_occupancy
 _atom_site_hle17_bader_spin_density
 _atom_site_hle17_ddec_charge
 _atom_site_hle17_ddec_spin_density
 _atom_site_hle17_ddec_sum_bond_order
 _atom_site_hle17_magmom
 _atom_site_hse06_10hf_bader_spin_density
 _atom_site_hse06_10hf_ddec_charge
 _atom_site_hse06_10hf_ddec_spin_density
 _atom_site_hse06_10hf_ddec_sum_bond_order
 _atom_site_hse06_10hf_magmom
 _atom_site_hse06_bader_spin_density
 _atom_site_hse06_ddec_charge
 _atom_site_hse06_ddec_spin_density
 _atom_site_hse06_ddec_sum_bond_order
 _atom_site_hse06_magmom
 _atom_site_pbe_bader_spin_density
 _atom_site_pbe_cm5_charge
 _atom_site_pbe_ddec_charge
 _atom_site_pbe_ddec_spin_density
 _atom_site_pbe_ddec_sum_bond_order
 _atom_site_pbe_magmom
Cd  Cd0  1  0.43118729  0.25014989  0.74993942  1  0  1.257457  0  1.524222  0  0  1.072053  0  1.968128  0  0  1.132745  0  1.905897  0  0  0.782175  1.028379  0  2.011415  0
Cd  Cd1  1  0.56874585  0.74987388  0.25004956  1  0  1.257623  0  1.52415  0  0  1.072201  0  1.968072  0  0  1.132874  0  1.905846  0  0  0.782158  1.028533  0  2.011357  0
H  H2  1  0.87768569  0.05071518  0.62021858  1  0  0.074902  0  0.933404  0  0  0.089367  0  0.994768  0  0  0.09066  0  0.99431  0  0  0.10176  0.088425  0  0.995273  0
H  H3  1  0.54855721  0.44905216  0.87983666  1  0  0.075372  0  0.933859  0  0  0.089517  0  0.995115  0  0  0.09086  0  0.994638  0  0  0.101593  0.088525  0  0.995648  0
H  H4  1  0.12230006  0.94932713  0.37977244  1  0  0.074996  0  0.933301  0  0  0.089467  0  0.994699  0  0  0.090765  0  0.99424  0  0  0.101792  0.088524  0  0.995201  0
H  H5  1  0.45143967  0.55094762  0.12016361  1  0  0.075351  0  0.933809  0  0  0.089516  0  0.995019  0  0  0.090858  0  0.99454  0  0  0.101576  0.088522  0  0.995554  0
H  H6  1  0.16424001  0.23262117  0.46205901  1  0  0.068357  0  0.940848  0  0  0.085659  0  1.005755  0  0  0.086678  0  1.005713  0  0  0.088176  0.084842  0  1.005946  0
H  H7  1  0.85929975  0.26773194  0.03786715  1  0  0.067829  0  0.94034  0  0  0.085829  0  1.004339  0  0  0.086961  0  1.004156  0  0  0.088115  0.084933  0  1.004597  0
H  H8  1  0.83573833  0.76739401  0.53793468  1  0  0.068465  0  0.940956  0  0  0.085689  0  1.005929  0  0  0.086708  0  1.005884  0  0  0.088239  0.084871  0  1.006121  0
H  H9  1  0.14067067  0.73228298  0.96213655  1  0  0.067858  0  0.940413  0  0  0.085891  0  1.004329  0  0  0.086963  0  1.004219  0  0  0.088106  0.084992  0  1.004588  0
H  H10  1  0.87153584  0.39690960  0.52392451  1  0  0.073583  0  0.958137  0  0  0.088137  0  1.026088  0  0  0.08957  0  1.025667  0  0  0.091226  0.087056  0  1.026516  0
H  H11  1  0.79289007  0.10311780  0.97608087  1  0  0.073665  0  0.958381  0  0  0.088003  0  1.026365  0  0  0.089395  0  1.026015  0  0  0.091231  0.086921  0  1.026713  0
H  H12  1  0.12849927  0.60310042  0.47607188  1  0  0.073595  0  0.958201  0  0  0.088102  0  1.026214  0  0  0.089511  0  1.025821  0  0  0.091254  0.087023  0  1.026638  0
H  H13  1  0.20711270  0.89688699  0.02392226  1  0  0.073643  0  0.958431  0  0  0.087948  0  1.026438  0  0  0.089344  0  1.026079  0  0  0.091222  0.086867  0  1.026785  0
H  H14  1  0.25093449  0.67846040  0.60494957  1  0  0.071014  0  0.959368  0  0  0.088343  0  1.022674  0  0  0.089819  0  1.021734  0  0  0.089896  0.087224  0  1.023445  0
H  H15  1  0.53371944  0.82153179  0.89499100  1  0  0.070925  0  0.960021  0  0  0.087863  0  1.023946  0  0  0.089376  0  1.022985  0  0  0.089531  0.086731  0  1.02472  0
H  H16  1  0.74909731  0.32152750  0.39505226  1  0  0.070983  0  0.959406  0  0  0.088368  0  1.022587  0  0  0.089845  0  1.021647  0  0  0.089881  0.087251  0  1.023353  0
H  H17  1  0.46627143  0.17846794  0.10501154  1  0  0.070896  0  0.960133  0  0  0.087843  0  1.024017  0  0  0.089353  0  1.023064  0  0  0.089575  0.086712  0  1.024789  0
H  H18  1  0.40252626  0.79294245  0.51294062  1  0  0.064987  0  0.936421  0  0  0.08594  0  0.995299  0  0  0.08615  0  0.996412  0  0  0.087668  0.085661  0  0.994674  0
H  H19  1  0.70825249  0.70725970  0.98692351  1  0  0.06551  0  0.936704  0  0  0.086219  0  0.995911  0  0  0.086422  0  0.997017  0  0  0.087932  0.085977  0  0.995229  0
H  H20  1  0.59750627  0.20705389  0.48706175  1  0  0.065068  0  0.936501  0  0  0.085955  0  0.995372  0  0  0.086195  0  0.996444  0  0  0.087722  0.085677  0  0.994747  0
H  H21  1  0.29171287  0.29274858  0.01307545  1  0  0.065483  0  0.936696  0  0  0.086204  0  0.9959  0  0  0.086405  0  0.99701  0  0  0.087932  0.085959  0  0.995219  0
H  H22  1  0.82518903  0.43604788  0.67890200  1  0  0.431919  0  0.872603  0  0  0.399972  0  0.937009  0  0  0.411308  0  0.920875  0  0  0.291682  0.39195  0  0.94841  0
H  H23  1  0.94011857  0.06390537  0.82108895  1  0  0.433311  0  0.870716  0  0  0.401546  0  0.934817  0  0  0.41284  0  0.918711  0  0  0.292126  0.393484  0  0.946287  0
H  H24  1  0.17484440  0.56394178  0.32109727  1  0  0.43175  0  0.872811  0  0  0.399888  0  0.937091  0  0  0.411221  0  0.92096  0  0  0.291642  0.391865  0  0.948494  0
H  H25  1  0.05988902  0.93613338  0.17890861  1  0  0.433207  0  0.870887  0  0  0.401517  0  0.934836  0  0  0.412807  0  0.918727  0  0  0.292176  0.393457  0  0.946304  0
H  H26  1  0.54600288  0.66238706  0.68933757  1  0  0.446601  0  0.849053  0  0  0.414254  0  0.913332  0  0  0.42605  0  0.896359  0  0  0.293406  0.405873  0  0.925371  0
H  H27  1  0.89735054  0.83784918  0.81060901  1  0  0.446621  0  0.848837  0  0  0.414788  0  0.912377  0  0  0.426557  0  0.895438  0  0  0.293802  0.406339  0  0.924523  0
H  H28  1  0.45397975  0.33759747  0.31066411  1  0  0.446629  0  0.849031  0  0  0.414274  0  0.913319  0  0  0.426078  0  0.896335  0  0  0.293424  0.40589  0  0.925364  0
H  H29  1  0.10262034  0.16213876  0.18939128  1  0  0.446637  0  0.848843  0  0  0.41479  0  0.912394  0  0  0.426557  0  0.895459  0  0  0.293829  0.406343  0  0.924534  0
C  C30  1  0.23248390  0.09531835  0.63375678  1  0  0.675145  0  3.807138  0  0  0.616873  0  4.114405  0  0  0.650853  0  4.108826  0  0  0.215081  0.593766  0  4.117301  0
C  C31  1  0.96136067  0.40480019  0.86616525  1  0  0.675142  0  3.809069  0  0  0.616257  0  4.116908  0  0  0.650269  0  4.111289  0  0  0.214336  0.593087  0  4.119847  0
C  C32  1  0.76757008  0.90470463  0.36626138  1  0  0.675267  0  3.807266  0  0  0.616811  0  4.114866  0  0  0.650805  0  4.109264  0  0  0.215132  0.593701  0  4.117766  0
C  C33  1  0.03867721  0.59515907  0.13383221  1  0  0.675392  0  3.808312  0  0  0.616398  0  4.116274  0  0  0.65041  0  4.110656  0  0  0.214329  0.593222  0  4.119214  0
C  C34  1  0.06575364  0.04552838  0.57859390  1  0  -0.122963  0  3.652895  0  0  -0.122126  0  3.892532  0  0  -0.128583  0  3.907982  0  0  -0.090877  -0.117751  0  3.881887  0
C  C35  1  0.68977351  0.45453649  0.92137638  1  0  -0.124551  0  3.657772  0  0  -0.122656  0  3.896122  0  0  -0.129261  0  3.91185  0  0  -0.09062  -0.118205  0  3.885276  0
C  C36  1  0.93426063  0.95447973  0.42141114  1  0  -0.122957  0  3.65392  0  0  -0.12225  0  3.893813  0  0  -0.128733  0  3.9093  0  0  -0.090852  -0.117873  0  3.883164  0
C  C37  1  0.31022025  0.54545484  0.07862385  1  0  -0.124673  0  3.657953  0  0  -0.122708  0  3.896173  0  0  -0.129311  0  3.911885  0  0  -0.090605  -0.11825  0  3.885315  0
C  C38  1  0.97835357  0.22999032  0.50256469  1  0  -0.11497  0  3.659996  0  0  -0.16095  0  3.919684  0  0  -0.16124  0  3.932629  0  0  -0.168131  -0.160528  0  3.910686  0
C  C39  1  0.71129092  0.27006470  0.99741849  1  0  -0.11534  0  3.658981  0  0  -0.160944  0  3.91778  0  0  -0.161265  0  3.930789  0  0  -0.168267  -0.160481  0  3.908764  0
C  C40  1  0.02161337  0.77001654  0.49742392  1  0  -0.114941  0  3.660144  0  0  -0.160783  0  3.919864  0  0  -0.161046  0  3.932799  0  0  -0.168118  -0.16036  0  3.910863  0
C  C41  1  0.28870319  0.72993854  0.00257894  1  0  -0.115365  0  3.659015  0  0  -0.160908  0  3.917658  0  0  -0.161196  0  3.930661  0  0  -0.168248  -0.160448  0  3.908644  0
C  C42  1  0.20455897  0.81035444  0.55018831  1  0  -0.108297  0  3.667903  0  0  -0.152562  0  3.921272  0  0  -0.152492  0  3.934743  0  0  -0.168107  -0.152359  0  3.911866  0
C  C43  1  0.56483505  0.68971552  0.94976747  1  0  -0.106817  0  3.667932  0  0  -0.151941  0  3.922192  0  0  -0.151875  0  3.935698  0  0  -0.167567  -0.151776  0  3.912765  0
C  C44  1  0.79545288  0.18961658  0.44981202  1  0  -0.108343  0  3.668898  0  0  -0.15248  0  3.922094  0  0  -0.152423  0  3.93559  0  0  -0.168094  -0.15228  0  3.912689  0
C  C45  1  0.43516195  0.31027932  0.05022766  1  0  -0.106806  0  3.66804  0  0  -0.151936  0  3.92229  0  0  -0.151876  0  3.935812  0  0  -0.167573  -0.151769  0  3.912857  0
O  O46  1  0.15378217  0.30279343  0.64725464  1  0  -0.673131  0  2.039564  0  0  -0.592648  0  2.284518  0  0  -0.624955  0  2.274254  0  0  -0.321584  -0.569981  0  2.290795  0
O  O47  1  0.10367680  0.19739935  0.85253297  1  0  -0.673436  0  2.040336  0  0  -0.592537  0  2.284963  0  0  -0.624815  0  2.274668  0  0  -0.321452  -0.569794  0  2.29126  0
O  O48  1  0.84615919  0.69725376  0.35274420  1  0  -0.67348  0  2.039514  0  0  -0.592914  0  2.284489  0  0  -0.62521  0  2.274207  0  0  -0.321834  -0.570265  0  2.290796  0
O  O49  1  0.89633077  0.80258694  0.14746553  1  0  -0.673675  0  2.039675  0  0  -0.592759  0  2.284273  0  0  -0.625039  0  2.273986  0  0  -0.321515  -0.570015  0  2.290566  0
O  O50  1  0.43932178  0.94238282  0.66723606  1  0  -0.639604  0  1.974198  0  0  -0.57157  0  2.205953  0  0  -0.599911  0  2.195351  0  0  -0.307697  -0.551709  0  2.212637  0
O  O51  1  0.04891587  0.55769188  0.83282665  1  0  -0.639292  0  1.973178  0  0  -0.571291  0  2.205051  0  0  -0.59962  0  2.194441  0  0  -0.30753  -0.551358  0  2.211762  0
O  O52  1  0.56068323  0.05758469  0.33276917  1  0  -0.639583  0  1.973974  0  0  -0.571495  0  2.205854  0  0  -0.599849  0  2.195244  0  0  -0.30773  -0.55163  0  2.212536  0
O  O53  1  0.95110511  0.44226400  0.16717055  1  0  -0.639319  0  1.972716  0  0  -0.571282  0  2.204591  0  0  -0.599615  0  2.193998  0  0  -0.307473  -0.55135  0  2.2113  0
O  O54  1  0.63472297  0.49585536  0.70822416  1  0  -0.876262  0  1.867917  0  0  -0.804725  0  2.079879  0  0  -0.830308  0  2.042769  0  0  -0.593601  -0.786671  0  2.105733  0
O  O55  1  0.83846107  0.00436480  0.79180184  1  0  -0.877693  0  1.867217  0  0  -0.806736  0  2.078469  0  0  -0.832243  0  2.041436  0  0  -0.594325  -0.788617  0  2.104441  0
O  O56  1  0.36530375  0.50413921  0.29178118  1  0  -0.876121  0  1.868148  0  0  -0.804689  0  2.080119  0  0  -0.830251  0  2.042953  0  0  -0.593569  -0.786634  0  2.10598  0
O  O57  1  0.16154577  0.99562128  0.20820513  1  0  -0.877563  0  1.867682  0  0  -0.806594  0  2.078952  0  0  -0.832097  0  2.041942  0  0  -0.594351  -0.788477  0  2.104922  0
