# generated using pymatgen
data_CdH28C38N2O5
_symmetry_space_group_name_H-M   'P 1'
_cell_length_a   10.20909128
_cell_length_b   10.06807403
_cell_length_c   15.68800000
_cell_angle_alpha   74.40227867
_cell_angle_beta   75.78796118
_cell_angle_gamma   75.39908642
_symmetry_Int_Tables_number   1
_chemical_formula_structural   CdH28C38N2O5
_chemical_formula_sum   'Cd2 H56 C76 N4 O10'
_cell_volume   1475.38676954
_cell_formula_units_Z   2
loop_
 _symmetry_equiv_pos_site_id
 _symmetry_equiv_pos_as_xyz
  1  'x, y, z'
loop_
 _atom_site_type_symbol
 _atom_site_label
 _atom_site_symmetry_multiplicity
 _atom_site_fract_x
 _atom_site_fract_y
 _atom_site_fract_z
 _atom_site_occupancy
 _atom_site_hle17_bader_spin_density
 _atom_site_hle17_ddec_charge
 _atom_site_hle17_ddec_spin_density
 _atom_site_hle17_ddec_sum_bond_order
 _atom_site_hle17_magmom
 _atom_site_hse06_10hf_bader_spin_density
 _atom_site_hse06_10hf_ddec_charge
 _atom_site_hse06_10hf_ddec_spin_density
 _atom_site_hse06_10hf_ddec_sum_bond_order
 _atom_site_hse06_10hf_magmom
 _atom_site_hse06_bader_spin_density
 _atom_site_hse06_ddec_charge
 _atom_site_hse06_ddec_spin_density
 _atom_site_hse06_ddec_sum_bond_order
 _atom_site_hse06_magmom
 _atom_site_pbe_bader_charge
 _atom_site_pbe_bader_spin_density
 _atom_site_pbe_cm5_charge
 _atom_site_pbe_ddec_charge
 _atom_site_pbe_ddec_spin_density
 _atom_site_pbe_ddec_sum_bond_order
 _atom_site_pbe_magmom
Cd  Cd0  1  0.20061145  0.30492844  0.47230245  1  0  1.186091  0  1.628647  0  0  0.99505  0  2.081353  0  0  1.051025  0  2.026469  0  1.308541  0  0.787795  0.954652  0  2.118735  0
Cd  Cd1  1  0.79938792  0.69507084  0.52769752  1  0  1.186039  0  1.628763  0  0  0.994989  0  2.081481  0  0  1.050964  0  2.026596  0  1.308686  0  0.787771  0.954592  0  2.118862  0
H  H2  1  0.18846692  0.01415900  0.47410173  1  0  0.419099  0  0.832743  0  0  0.40188  0  0.888228  0  0  0.409956  0  0.878812  0  0.605502  0  0.313485  0.395803  0  0.895564  0
H  H3  1  0.81153002  0.98584238  0.52589827  1  0  0.419072  0  0.832777  0  0  0.401854  0  0.888262  0  0  0.409929  0  0.878847  0  0.605529  0  0.313464  0.395776  0  0.8956  0
H  H4  1  0.35133320  0.99276983  0.46705996  1  0  0.42817  0  0.879327  0  0  0.391372  0  0.953177  0  0  0.40332  0  0.935884  0  0.656658  0  0.282467  0.382797  0  0.965608  0
H  H5  1  0.64866475  0.00723156  0.53293988  1  0  0.428168  0  0.879318  0  0  0.391365  0  0.953173  0  0  0.403313  0  0.93588  0  0.656635  0  0.282476  0.382789  0  0.965604  0
H  H6  1  0.13100454  0.56466278  0.31097240  1  0  0.084025  0  0.975182  0  0  0.091433  0  1.041381  0  0  0.093274  0  1.040518  0  0.127353  0  0.112708  0.090161  0  1.041593  0
H  H7  1  0.86899927  0.43533966  0.68902887  1  0  0.084141  0  0.975112  0  0  0.091451  0  1.041389  0  0  0.093294  0  1.040521  0  0.127375  0  0.1127  0.09016  0  1.041632  0
H  H8  1  0.35138645  0.16166310  0.30538296  1  0  0.079405  0  0.965607  0  0  0.087819  0  1.031173  0  0  0.089713  0  1.029586  0  0.124976  0  0.114003  0.086261  0  1.032763  0
H  H9  1  0.64861655  0.83833829  0.69461415  1  0  0.079376  0  0.965621  0  0  0.087783  0  1.031204  0  0  0.089673  0  1.029627  0  0.12493  0  0.113967  0.086225  0  1.032795  0
H  H10  1  0.39830355  0.59683860  0.69315088  1  0  0.086479  0  0.966714  0  0  0.096663  0  1.031147  0  0  0.098169  0  1.031708  0  0.059276  0  0.097658  0.095655  0  1.030572  0
H  H11  1  0.60169623  0.40315858  0.30684748  1  0  0.086467  0  0.966767  0  0  0.096671  0  1.031177  0  0  0.098162  0  1.031755  0  0.059265  0  0.097645  0.095663  0  1.030602  0
H  H12  1  0.54416158  0.39562394  0.63166674  1  0  0.104149  0  0.966704  0  0  0.114232  0  1.030487  0  0  0.116218  0  1.030272  0  0.108679  0  0.102377  0.1127  0  1.031006  0
H  H13  1  0.45583679  0.60437008  0.36833430  1  0  0.104161  0  0.966733  0  0  0.114266  0  1.030477  0  0  0.116252  0  1.030262  0  0.108666  0  0.102398  0.112731  0  1.031  0
H  H14  1  0.43538530  0.22379646  0.14076218  1  0  0.096267  0  0.986603  0  0  0.105336  0  1.05185  0  0  0.107604  0  1.052677  0  0.059473  0  0.099794  0.103259  0  1.052575  0
H  H15  1  0.56461366  0.77620493  0.85923494  1  0  0.09628  0  0.986594  0  0  0.105347  0  1.051848  0  0  0.107617  0  1.052671  0  0.059594  0  0.0998  0.103269  0  1.052574  0
H  H16  1  0.36730986  0.59561896  0.85381289  1  0  0.084826  0  0.975109  0  0  0.095372  0  1.040282  0  0  0.097459  0  1.040738  0  0.085499  0  0.094676  0.094033  0  1.04  0
H  H17  1  0.63269052  0.40438032  0.14618628  1  0  0.084838  0  0.975133  0  0  0.095386  0  1.040305  0  0  0.097469  0  1.040773  0  0.085495  0  0.094678  0.094046  0  1.040022  0
H  H18  1  0.28100796  0.41157400  0.61581905  1  0  0.077865  0  0.960407  0  0  0.085471  0  1.027415  0  0  0.086516  0  1.027568  0  0.116604  0  0.114839  0.084743  0  1.027029  0
H  H19  1  0.71898959  0.58842423  0.38417948  1  0  0.077821  0  0.960444  0  0  0.085422  0  1.027465  0  0  0.086465  0  1.027619  0  0.116586  0  0.114827  0.084693  0  1.027079  0
H  H20  1  0.01452766  0.14247926  0.65356380  1  0  0.077944  0  0.926073  0  0  0.089633  0  0.984363  0  0  0.091418  0  0.983275  0  0.084819  0  0.117829  0.088576  0  0.984828  0
H  H21  1  0.98546930  0.85751687  0.34643774  1  0  0.077957  0  0.926164  0  0  0.089646  0  0.984439  0  0  0.091431  0  0.98335  0  0.084808  0  0.117832  0.088588  0  0.984906  0
H  H22  1  0.95300079  0.12774674  0.81760328  1  0  0.101382  0  0.960079  0  0  0.110811  0  1.023517  0  0  0.113185  0  1.024227  0  0.054946  0  0.103446  0.109127  0  1.02299  0
H  H23  1  0.04699677  0.87225150  0.18239779  1  0  0.101412  0  0.959945  0  0  0.110844  0  1.023391  0  0  0.113218  0  1.0241  0  0.054991  0  0.103465  0.109159  0  1.022864  0
H  H24  1  0.20111122  0.64467720  0.14450394  1  0  0.097286  0  0.978804  0  0  0.107609  0  1.042572  0  0  0.109328  0  1.044161  0  0.064175  0  0.101154  0.10607  0  1.042191  0
H  H25  1  0.79888955  0.35532524  0.85549589  1  0  0.097304  0  0.97879  0  0  0.107639  0  1.042553  0  0  0.109364  0  1.044134  0  0.064202  0  0.101155  0.106099  0  1.042171  0
H  H26  1  0.59024423  0.12609985  0.98697272  1  0  0.081217  0  0.99627  0  0  0.092184  0  1.061522  0  0  0.094719  0  1.060688  0  0.027028  0  0.093734  0.09044  0  1.062075  0
H  H27  1  0.40975817  0.87389943  0.01302868  1  0  0.081208  0  0.996382  0  0  0.092185  0  1.061613  0  0  0.094716  0  1.060785  0  0.026889  0  0.09373  0.090441  0  1.062166  0
H  H28  1  0.30674497  0.56241291  0.99472029  1  0  0.072085  0  0.935238  0  0  0.083906  0  0.996776  0  0  0.084916  0  0.997168  0  0.064345  0  0.099325  0.083256  0  0.996394  0
H  H29  1  0.69325500  0.43758848  0.00527794  1  0  0.072064  0  0.935148  0  0  0.083886  0  0.9967  0  0  0.084896  0  0.997088  0  0.064374  0  0.099317  0.083236  0  0.996318  0
H  H30  1  0.67911114  0.15296986  0.65699819  1  0  0.090508  0  0.976024  0  0  0.100034  0  1.041007  0  0  0.101978  0  1.04101  0  0.095976  0  0.098955  0.09859  0  1.041274  0
H  H31  1  0.32088965  0.84702732  0.34300319  1  0  0.090475  0  0.976057  0  0  0.100014  0  1.041028  0  0  0.10196  0  1.041028  0  0.095948  0  0.098931  0.098571  0  1.041293  0
H  H32  1  0.53251984  0.30066233  0.02208310  1  0  0.056454  0  0.981085  0  0  0.069379  0  1.044393  0  0  0.070731  0  1.043864  0  0.031238  0  0.094475  0.068421  0  1.04479  0
H  H33  1  0.46748033  0.69933801  0.97791784  1  0  0.056513  0  0.981048  0  0  0.069397  0  1.044393  0  0  0.070748  0  1.043864  0  0.031228  0  0.094483  0.068439  0  1.044789  0
H  H34  1  0.22677198  0.41361972  0.77895211  1  0  0.098191  0  0.99307  0  0  0.107869  0  1.055895  0  0  0.109944  0  1.057646  0  0.092854  0  0.100198  0.105801  0  1.056116  0
H  H35  1  0.77322658  0.58637851  0.22104753  1  0  0.098223  0  0.993113  0  0  0.107891  0  1.055949  0  0  0.109964  0  1.057705  0  0.092698  0  0.10021  0.105814  0  1.056177  0
H  H36  1  0.55695196  0.96503270  0.31546036  1  0  0.10178  0  0.966127  0  0  0.111153  0  1.028909  0  0  0.113883  0  1.028086  0  0.124668  0  0.101673  0.109212  0  1.029537  0
H  H37  1  0.44304477  0.03496974  0.68453757  1  0  0.101822  0  0.966098  0  0  0.111172  0  1.028909  0  0  0.113903  0  1.028082  0  0.12465  0  0.101684  0.109239  0  1.029529  0
H  H38  1  0.86576000  0.24071781  0.32531861  1  0  0.098198  0  0.964773  0  0  0.105693  0  1.031989  0  0  0.10818  0  1.031201  0  0.104195  0  0.099934  0.104005  0  1.03247  0
H  H39  1  0.13424099  0.75927832  0.67468355  1  0  0.098208  0  0.964738  0  0  0.105722  0  1.031941  0  0  0.10821  0  1.031155  0  0.104346  0  0.099959  0.104024  0  1.032433  0
H  H40  1  0.92049824  0.13712083  0.95955758  1  0  0.083458  0  0.972071  0  0  0.097023  0  1.033818  0  0  0.099374  0  1.032518  0  0.060265  0  0.099186  0.095186  0  1.034999  0
H  H41  1  0.07950235  0.86287740  0.04044428  1  0  0.083483  0  0.972046  0  0  0.097053  0  1.033794  0  0  0.0994  0  1.032497  0  0.060254  0  0.09922  0.095226  0  1.034965  0
H  H42  1  0.10845427  0.34882715  0.92270708  1  0  0.088027  0  0.958544  0  0  0.10102  0  1.017635  0  0  0.103967  0  1.016317  0  0.050857  0  0.09986  0.098875  0  1.018589  0
H  H43  1  0.89154611  0.65117214  0.07729145  1  0  0.088092  0  0.958434  0  0  0.101035  0  1.017583  0  0  0.103981  0  1.016265  0  0.050836  0  0.099867  0.098891  0  1.018535  0
H  H44  1  0.77600058  0.05935732  0.04194288  1  0  0.078018  0  0.999502  0  0  0.089106  0  1.065166  0  0  0.09132  0  1.06492  0  0.027512  0  0.092799  0.087502  0  1.065401  0
H  H45  1  0.22399999  0.94064617  0.95805617  1  0  0.078029  0  0.999514  0  0  0.089115  0  1.065172  0  0  0.091335  0  1.064919  0  0.027556  0  0.092813  0.087511  0  1.065409  0
H  H46  1  0.73541162  0.92652400  0.92491780  1  0  0.084451  0  0.95612  0  0  0.096896  0  1.014726  0  0  0.099399  0  1.014464  0  0.057419  0  0.094987  0.095265  0  1.014788  0
H  H47  1  0.26458896  0.07347424  0.07508343  1  0  0.084447  0  0.956134  0  0  0.096898  0  1.014734  0  0  0.099401  0  1.01447  0  0.057435  0  0.094983  0.095268  0  1.014795  0
H  H48  1  0.60014002  0.94782406  0.15406486  1  0  0.085279  0  0.965411  0  0  0.095392  0  1.027811  0  0  0.0971  0  1.029018  0  0.081856  0  0.095788  0.094318  0  1.026657  0
H  H49  1  0.39985529  0.05218048  0.84593103  1  0  0.085239  0  0.965473  0  0  0.095331  0  1.027904  0  0  0.097039  0  1.029111  0  0.081798  0  0.095772  0.094257  0  1.026749  0
H  H50  1  0.78676072  0.94113024  0.75901746  1  0  0.08595  0  0.969602  0  0  0.098228  0  1.028411  0  0  0.100555  0  1.028553  0  0.078276  0  0.097538  0.095844  0  1.029972  0
H  H51  1  0.21324188  0.05886799  0.24098408  1  0  0.085846  0  0.969694  0  0  0.098141  0  1.02848  0  0  0.100484  0  1.028605  0  0.078526  0  0.097498  0.095759  0  1.030039  0
H  H52  1  0.68864657  0.09883943  0.36117830  1  0  0.095781  0  0.961907  0  0  0.10635  0  1.025324  0  0  0.108634  0  1.024642  0  0.068489  0  0.10247  0.104602  0  1.026053  0
H  H53  1  0.31135220  0.90115775  0.63882277  1  0  0.095793  0  0.961867  0  0  0.106364  0  1.025282  0  0  0.108648  0  1.024602  0  0.068416  0  0.102482  0.104616  0  1.026009  0
H  H54  1  0.09256918  0.34090947  0.05513054  1  0  0.085858  0  0.958838  0  0  0.100019  0  1.015818  0  0  0.103011  0  1.014347  0  0.043043  0  0.098387  0.098116  0  1.01632  0
H  H55  1  0.90743444  0.65908876  0.94487148  1  0  0.085912  0  0.958857  0  0  0.100069  0  1.015825  0  0  0.103061  0  1.014353  0  0.043039  0  0.098433  0.09817  0  1.016324  0
H  H56  1  0.04355384  0.35756984  0.21363976  1  0  0.088907  0  0.978554  0  0  0.097711  0  1.042474  0  0  0.099486  0  1.044154  0  0.083085  0  0.09598  0.096044  0  1.042303  0
H  H57  1  0.95644594  0.64242733  0.78636242  1  0  0.088862  0  0.978562  0  0  0.097668  0  1.042483  0  0  0.09944  0  1.044171  0  0.083096  0  0.095966  0.095993  0  1.042315  0
C  C58  1  0.19609973  0.49250184  0.26977408  1  0  0.129466  0  3.707029  0  0  0.098644  0  3.958678  0  0  0.106177  0  3.977092  0  0.482004  0  0.045326  0.094842  0  3.945684  0
C  C59  1  0.80389861  0.50750270  0.73022387  1  0  0.129267  0  3.706981  0  0  0.098547  0  3.958608  0  0  0.106082  0  3.977019  0  0.482349  0  0.045294  0.094751  0  3.945616  0
C  C60  1  0.57762372  0.26543056  0.76268140  1  0  0.054921  0  3.77945  0  0  0.073573  0  4.002374  0  0  0.073173  0  4.027372  0  -0.062921  0  -0.006693  0.074236  0  3.985632  0
C  C61  1  0.42237666  0.73456873  0.23731904  1  0  0.054895  0  3.779488  0  0  0.073538  0  4.002423  0  0  0.073138  0  4.027419  0  -0.062915  0  -0.006694  0.074201  0  3.98568  0
C  C62  1  0.32026405  0.26778671  0.26675901  1  0  0.131788  0  3.721393  0  0  0.101877  0  3.970599  0  0  0.109408  0  3.98967  0  0.531604  0  0.047029  0.097682  0  3.958283  0
C  C63  1  0.67973773  0.73221573  0.73323940  1  0  0.131883  0  3.721311  0  0  0.101942  0  3.970561  0  0  0.109474  0  3.989632  0  0.531871  0  0.047113  0.097746  0  3.958247  0
C  C64  1  0.44161187  0.50217690  0.73834660  1  0  -0.053743  0  3.7777  0  0  -0.067204  0  4.031427  0  0  -0.068287  0  4.052022  0  0.016225  0  -0.090803  -0.065857  0  4.017749  0
C  C65  1  0.55838791  0.49782028  0.26165303  1  0  -0.053795  0  3.777678  0  0  -0.067269  0  4.031407  0  0  -0.06834  0  4.052004  0  0.016382  0  -0.090823  -0.065921  0  4.017728  0
C  C66  1  0.55539496  0.26129598  0.85756717  1  0  0.009051  0  3.761052  0  0  0.021604  0  3.98564  0  0  0.021025  0  4.009904  0  -0.011532  0  -0.010074  0.023254  0  3.968568  0
C  C67  1  0.44460462  0.73870225  0.14243295  1  0  0.009068  0  3.761074  0  0  0.021636  0  3.98564  0  0  0.021059  0  4.009902  0  -0.01171  0  -0.010058  0.023286  0  3.968569  0
C  C68  1  0.52126803  0.38902588  0.70405794  1  0  -0.097541  0  3.703063  0  0  -0.121342  0  3.95249  0  0  -0.123505  0  3.973129  0  -0.088659  0  -0.085158  -0.120754  0  3.939373  0
C  C69  1  0.47873074  0.61097130  0.29594185  1  0  -0.097569  0  3.703195  0  0  -0.121379  0  3.952613  0  0  -0.123543  0  3.973246  0  -0.088736  0  -0.085216  -0.120791  0  3.939495  0
C  C70  1  0.36581063  0.30426864  0.17382231  1  0  -0.173349  0  3.719877  0  0  -0.190023  0  3.968054  0  0  -0.198716  0  3.990777  0  -0.082426  0  -0.088752  -0.18504  0  3.955119  0
C  C71  1  0.63418752  0.69573170  0.82617512  1  0  -0.173388  0  3.719887  0  0  -0.190052  0  3.968032  0  0  -0.198746  0  3.990758  0  -0.082765  0  -0.088764  -0.18507  0  3.955101  0
C  C72  1  0.42269279  0.50002174  0.83072447  1  0  -0.122192  0  3.764656  0  0  -0.144967  0  4.019205  0  0  -0.146788  0  4.040174  0  -0.120673  0  -0.098411  -0.144322  0  4.006464  0
C  C73  1  0.57730759  0.49997754  0.16927343  1  0  -0.122173  0  3.764515  0  0  -0.14495  0  4.019059  0  0  -0.14677  0  4.040022  0  -0.120718  0  -0.098383  -0.144304  0  4.006318  0
C  C74  1  0.20807090  0.35105281  0.66298253  1  0  0.136424  0  3.715887  0  0  0.107374  0  3.961758  0  0  0.114726  0  3.981588  0  0.471493  0  0.047605  0.103056  0  3.947632  0
C  C75  1  0.79192767  0.64894542  0.33701519  1  0  0.136509  0  3.715868  0  0  0.10747  0  3.96171  0  0  0.114823  0  3.98154  0  0.47127  0  0.047657  0.103152  0  3.947585  0
C  C76  1  0.06074265  0.19976035  0.68440253  1  0  0.135205  0  3.726968  0  0  0.102849  0  3.983502  0  0  0.110574  0  4.001637  0  0.488871  0  0.047832  0.097665  0  3.971358  0
C  C77  1  0.93925410  0.80023683  0.31559886  1  0  0.135258  0  3.727059  0  0  0.102909  0  3.983601  0  0  0.110633  0  4.001739  0  0.489024  0  0.04788  0.097722  0  3.971459  0
C  C78  1  0.08509306  0.27098472  0.81411978  1  0  0.135997  0  3.814869  0  0  0.148868  0  4.044792  0  0  0.155169  0  4.065419  0  -0.083163  0  0.005866  0.144516  0  4.031596  0
C  C79  1  0.91490510  0.72901562  0.18588084  1  0  0.135988  0  3.814916  0  0  0.148894  0  4.044785  0  0  0.155199  0  4.065404  0  -0.083109  0  0.005844  0.144539  0  4.031591  0
C  C80  1  0.75040010  0.31917163  0.48890412  1  0  -0.144306  0  3.704429  0  0  -0.141146  0  3.968999  0  0  -0.141726  0  3.980901  0  -0.432094  0  -0.034827  -0.1403  0  3.960262  0
C  C81  1  0.24960088  0.68082975  0.51109523  1  0  -0.144392  0  3.704528  0  0  -0.141259  0  3.969106  0  0  -0.141837  0  3.981004  0  -0.432121  0  -0.034825  -0.140412  0  3.960369  0
C  C82  1  0.83566507  0.14952035  0.13461767  1  0  0.007985  0  3.736508  0  0  0.021102  0  3.961781  0  0  0.020538  0  3.986313  0  -0.028212  0  -0.008652  0.021528  0  3.944912  0
C  C83  1  0.16433652  0.85047788  0.86538403  1  0  0.008041  0  3.736409  0  0  0.021173  0  3.961711  0  0  0.020612  0  3.986243  0  -0.028158  0  -0.008644  0.021599  0  3.944842  0
C  C84  1  0.64215914  0.29185544  0.48548483  1  0  -0.162323  0  3.711529  0  0  -0.161928  0  3.980564  0  0  -0.163104  0  3.992921  0  0.062377  0  -0.038905  -0.160572  0  3.971618  0
C  C85  1  0.35784042  0.70814806  0.51451821  1  0  -0.162307  0  3.711469  0  0  -0.161905  0  3.98052  0  0  -0.163082  0  3.992876  0  0.062407  0  -0.038966  -0.16055  0  3.971574  0
C  C86  1  0.80880425  0.15976682  0.22743618  1  0  0.048143  0  3.798104  0  0  0.065664  0  4.022477  0  0  0.065159  0  4.048031  0  -0.065881  0  -0.009029  0.065607  0  4.005511  0
C  C87  1  0.19119977  0.84022931  0.77256422  1  0  0.048146  0  3.797731  0  0  0.065648  0  4.022145  0  0  0.065144  0  4.047698  0  -0.066007  0  -0.008976  0.065592  0  4.005178  0
C  C88  1  0.02621596  0.19287710  0.77652982  1  0  -0.162583  0  3.687682  0  0  -0.17666  0  3.933959  0  0  -0.184008  0  3.954695  0  0.011671  0  -0.081901  -0.17202  0  3.920485  0
C  C89  1  0.97378038  0.80712218  0.22347127  1  0  -0.16268  0  3.687638  0  0  -0.176795  0  3.933963  0  0  -0.184144  0  3.954698  0  0.01159  0  -0.081971  -0.172154  0  3.920491  0
C  C90  1  0.23592692  0.53588806  0.17722778  1  0  -0.167109  0  3.727058  0  0  -0.184729  0  3.975783  0  0  -0.192997  0  3.999175  0  -0.026882  0  -0.088164  -0.180096  0  3.96125  0
C  C91  1  0.76407487  0.46411438  0.82277062  1  0  -0.16716  0  3.727112  0  0  -0.184816  0  3.975796  0  0  -0.193088  0  3.999183  0  -0.027431  0  -0.088216  -0.180179  0  3.961258  0
C  C92  1  0.48277173  0.38526067  0.89015698  1  0  0.007708  0  3.731598  0  0  0.021999  0  3.968018  0  0  0.021071  0  3.99215  0  -0.028078  0  -0.020493  0.021946  0  3.952462  0
C  C93  1  0.51722744  0.61473967  0.10984284  1  0  0.007788  0  3.731598  0  0  0.022073  0  3.968007  0  0  0.021145  0  3.992138  0  -0.027883  0  -0.020448  0.02202  0  3.952451  0
C  C94  1  0.61205165  0.13498461  0.91439934  1  0  -0.133979  0  3.785562  0  0  -0.154319  0  4.03815  0  0  -0.156525  0  4.058472  0  -0.038507  0  -0.102701  -0.153102  0  4.023976  0
C  C95  1  0.38794954  0.86501572  0.08560080  1  0  -0.133993  0  3.785714  0  0  -0.154345  0  4.038297  0  0  -0.156549  0  4.058614  0  -0.038371  0  -0.102694  -0.153128  0  4.024123  0
C  C96  1  0.38961468  0.50151814  0.03125210  1  0  -0.0651  0  3.522361  0  0  -0.074212  0  3.755191  0  0  -0.075475  0  3.76828  0  -0.002536  0  -0.074151  -0.072942  0  3.745477  0
C  C97  1  0.61038529  0.49848324  0.96874614  1  0  -0.064987  0  3.522224  0  0  -0.074139  0  3.755089  0  0  -0.075392  0  3.768163  0  -0.002469  0  -0.074131  -0.072871  0  3.745377  0
C  C98  1  0.94086553  0.21658278  0.07080934  1  0  0.02625  0  3.799227  0  0  0.040619  0  4.036771  0  0  0.039079  0  4.061828  0  -0.017334  0  -0.017389  0.041924  0  4.01915  0
C  C99  1  0.05913627  0.78341440  0.92919315  1  0  0.02629  0  3.799195  0  0  0.040594  0  4.036816  0  0  0.039049  0  4.06188  0  -0.017381  0  -0.017371  0.041899  0  4.019199  0
C  C100  1  0.66145850  0.14757881  0.72915395  1  0  -0.102644  0  3.720954  0  0  -0.117448  0  3.959951  0  0  -0.119862  0  3.981655  0  -0.019697  0  -0.086531  -0.11689  0  3.945882  0
C  C101  1  0.33854167  0.85242152  0.27084698  1  0  -0.102622  0  3.721001  0  0  -0.117448  0  3.960007  0  0  -0.119861  0  3.981714  0  -0.019698  0  -0.086502  -0.116889  0  3.945936  0
C  C102  1  0.51121370  0.25183455  0.49353231  1  0  0.699709  0  4.024858  0  0  0.645347  0  4.322552  0  0  0.682525  0  4.30879  0  1.700458  0  0.208101  0.619978  0  4.33079  0
C  C103  1  0.48878606  0.74816790  0.50646769  1  0  0.699782  0  4.024619  0  0  0.645401  0  4.322347  0  0  0.682582  0  4.308582  0  1.70082  0  0.208118  0.620034  0  4.330585  0
C  C104  1  0.50090353  0.40266083  0.97827907  1  0  -0.046029  0  3.5492  0  0  -0.060658  0  3.780466  0  0  -0.060964  0  3.794378  0  -0.001613  0  -0.076371  -0.060038  0  3.770589  0
C  C105  1  0.49909745  0.59734056  0.02171964  1  0  -0.046024  0  3.549096  0  0  -0.060623  0  3.780366  0  0  -0.060928  0  3.794276  0  -0.001634  0  -0.076354  -0.060004  0  3.77049  0
C  C106  1  0.87886252  0.34272367  0.50153210  1  0  0.714  0  4.020841  0  0  0.661047  0  4.316006  0  0  0.698835  0  4.301212  0  1.723315  0  0.205271  0.635107  0  4.325025  0
C  C107  1  0.12113784  0.65728087  0.49846871  1  0  0.713985  0  4.020828  0  0  0.661086  0  4.315908  0  0  0.698875  0  4.301112  0  1.723424  0  0.205286  0.635145  0  4.324929  0
C  C108  1  0.32750165  0.44276591  0.12696361  1  0  0.124542  0  3.726237  0  0  0.135524  0  3.961053  0  0  0.140745  0  3.982732  0  -0.024656  0  0.009597  0.132384  0  3.946478  0
C  C109  1  0.67249731  0.55723548  0.87303479  1  0  0.124545  0  3.726278  0  0  0.13558  0  3.961038  0  0  0.140798  0  3.982717  0  -0.024433  0  0.009642  0.13244  0  3.946466  0
C  C110  1  0.17751072  0.35145269  0.75403843  1  0  -0.164395  0  3.696217  0  0  -0.178449  0  3.936243  0  0  -0.186806  0  3.958106  0  0.054788  0  -0.084544  -0.173441  0  3.923084  0
C  C111  1  0.82248521  0.64854870  0.24595981  1  0  -0.164464  0  3.696283  0  0  -0.178514  0  3.936285  0  0  -0.186873  0  3.958149  0  0.055001  0  -0.084572  -0.173495  0  3.92313  0
C  C112  1  0.63214411  0.01851141  0.26496385  1  0  -0.059507  0  3.751814  0  0  -0.076037  0  4.003901  0  0  -0.078171  0  4.025844  0  -0.060845  0  -0.089221  -0.074515  0  3.988844  0
C  C113  1  0.36785707  0.98148892  0.73503437  1  0  -0.059684  0  3.751865  0  0  -0.076203  0  4.003955  0  0  -0.078336  0  4.025897  0  -0.060721  0  -0.089292  -0.074689  0  3.988896  0
C  C114  1  0.88570198  0.23482480  0.25470347  1  0  -0.099481  0  3.715112  0  0  -0.117781  0  3.959335  0  0  -0.120367  0  3.980574  0  -0.051742  0  -0.082002  -0.116648  0  3.945878  0
C  C115  1  0.11430043  0.76516922  0.74529883  1  0  -0.099531  0  3.714997  0  0  -0.117836  0  3.959236  0  0  -0.120426  0  3.98048  0  -0.051961  0  -0.082057  -0.116697  0  3.945783  0
C  C116  1  0.97157678  0.20689194  0.97657988  1  0  -0.085551  0  3.741696  0  0  -0.108627  0  3.99715  0  0  -0.108004  0  4.016246  0  -0.02914  0  -0.084153  -0.10886  0  3.98367  0
C  C117  1  0.02842401  0.79310524  0.02342278  1  0  -0.0857  0  3.741684  0  0  -0.108772  0  3.997174  0  0  -0.108145  0  4.016266  0  -0.028998  0  -0.084251  -0.109013  0  3.983693  0
C  C118  1  0.05616432  0.27714607  0.90853326  1  0  -0.127165  0  3.740163  0  0  -0.143926  0  3.990182  0  0  -0.14759  0  4.00906  0  -0.083834  0  -0.091606  -0.141029  0  3.977029  0
C  C119  1  0.94383526  0.72285216  0.09146749  1  0  -0.127144  0  3.739953  0  0  -0.143864  0  3.98995  0  0  -0.147525  0  4.008823  0  -0.08399  0  -0.09157  -0.140966  0  3.976802  0
C  C120  1  0.75679418  0.07207570  0.11088472  1  0  -0.135702  0  3.77994  0  0  -0.157198  0  4.033679  0  0  -0.160862  0  4.055752  0  -0.048151  0  -0.102283  -0.15429  0  4.018276  0
C  C121  1  0.24320357  0.92792674  0.88911496  1  0  -0.135794  0  3.780042  0  0  -0.157282  0  4.033774  0  0  -0.160949  0  4.055845  0  -0.048283  0  -0.102323  -0.154374  0  4.018374  0
C  C122  1  0.69272978  0.02207984  0.87975575  1  0  -0.086208  0  3.810529  0  0  -0.099723  0  4.065055  0  0  -0.101057  0  4.085565  0  -0.088617  0  -0.102972  -0.098148  0  4.051241  0
C  C123  1  0.30727241  0.97792050  0.12024359  1  0  -0.086215  0  3.810537  0  0  -0.099734  0  4.065069  0  0  -0.101068  0  4.085583  0  -0.088644  0  -0.10298  -0.098159  0  4.051255  0
C  C124  1  0.65770982  0.00849119  0.17407954  1  0  -0.068233  0  3.781761  0  0  -0.080565  0  4.03319  0  0  -0.08163  0  4.054757  0  -0.062062  0  -0.093449  -0.079129  0  4.017799  0
C  C125  1  0.34228590  0.99151125  0.82591855  1  0  -0.068032  0  3.781712  0  0  -0.080343  0  4.033113  0  0  -0.081407  0  4.054683  0  -0.062048  0  -0.093355  -0.078908  0  4.017724  0
C  C126  1  0.72037689  0.02955028  0.78590125  1  0  -0.083023  0  3.79892  0  0  -0.096055  0  4.046618  0  0  -0.098247  0  4.06834  0  -0.075234  0  -0.099099  -0.094269  0  4.033674  0
C  C127  1  0.27962531  0.97045006  0.21409808  1  0  -0.082879  0  3.798919  0  0  -0.095918  0  4.046624  0  0  -0.098124  0  4.068342  0  -0.075443  0  -0.099051  -0.094133  0  4.033678  0
C  C128  1  0.70651460  0.09273174  0.29075179  1  0  -0.102249  0  3.7116  0  0  -0.119938  0  3.956379  0  0  -0.122845  0  3.978353  0  -0.023905  0  -0.083942  -0.117767  0  3.94167  0
C  C129  1  0.29348517  0.90727070  0.70924693  1  0  -0.102194  0  3.711416  0  0  -0.119875  0  3.956205  0  0  -0.122781  0  3.978177  0  -0.023848  0  -0.083947  -0.117704  0  3.941499  0
C  C130  1  0.01200067  0.29013489  0.10189006  1  0  -0.111132  0  3.747683  0  0  -0.132393  0  3.996867  0  0  -0.134484  0  4.017946  0  -0.064591  0  -0.091676  -0.130387  0  3.981692  0
C  C131  1  0.98800356  0.70986019  0.89811304  1  0  -0.111139  0  3.747798  0  0  -0.132359  0  3.996965  0  0  -0.134447  0  4.018043  0  -0.064664  0  -0.091691  -0.130347  0  3.981771  0
C  C132  1  0.98500645  0.29946057  0.19252678  1  0  -0.072299  0  3.804647  0  0  -0.085337  0  4.057843  0  0  -0.087714  0  4.080655  0  -0.051516  0  -0.096701  -0.083616  0  4.043665  0
C  C133  1  0.01499333  0.70053660  0.80747604  1  0  -0.072305  0  3.804707  0  0  -0.085345  0  4.057892  0  0  -0.087722  0  4.080702  0  -0.051143  0  -0.096719  -0.083613  0  4.043718  0
N  N134  1  0.15010759  0.27734180  0.62782422  1  0  -0.349598  0  3.267703  0  0  -0.270876  0  3.535887  0  0  -0.291505  0  3.554105  0  -1.229449  0  -0.330875  -0.256747  0  3.523464  0
N  N135  1  0.84989139  0.72265433  0.37217636  1  0  -0.349615  0  3.267749  0  0  -0.270905  0  3.535946  0  0  -0.291532  0  3.554158  0  -1.22943  0  -0.330893  -0.256776  0  3.523524  0
N  N136  1  0.23947047  0.36043953  0.31464927  1  0  -0.329601  0  3.244383  0  0  -0.250281  0  3.504478  0  0  -0.271171  0  3.523041  0  -1.229016  0  -0.327412  -0.236756  0  3.490879  0
N  N137  1  0.76053010  0.63956396  0.68534851  1  0  -0.329536  0  3.244245  0  0  -0.250184  0  3.50428  0  0  -0.271076  0  3.522841  0  -1.229154  0  -0.327386  -0.236658  0  3.490678  0
O  O138  1  0.41503447  0.34924597  0.46501329  1  0  -0.626876  0  1.989622  0  0  -0.563097  0  2.241554  0  0  -0.593014  0  2.230643  0  -1.142498  0  -0.313216  -0.542218  0  2.248059  0
O  O139  1  0.58496509  0.65075752  0.53498847  1  0  -0.626925  0  1.989595  0  0  -0.563152  0  2.241569  0  0  -0.593058  0  2.230636  0  -1.142768  0  -0.313216  -0.542272  0  2.248076  0
O  O140  1  0.98751695  0.26044149  0.47086097  1  0  -0.652456  0  1.929954  0  0  -0.589903  0  2.168003  0  0  -0.618715  0  2.153936  0  -1.15063  0  -0.335644  -0.569613  0  2.176548  0
O  O141  1  0.01248079  0.73956095  0.52913999  1  0  -0.652437  0  1.929926  0  0  -0.589904  0  2.16796  0  0  -0.618716  0  2.153894  0  -1.150924  0  -0.335672  -0.569612  0  2.176505  0
O  O142  1  0.87230125  0.43607524  0.54309073  1  0  -0.632182  0  1.979047  0  0  -0.577993  0  2.230868  0  0  -0.605001  0  2.218154  0  -1.163475  0  -0.314393  -0.558264  0  2.238643  0
O  O143  1  0.12770074  0.56392615  0.45691228  1  0  -0.632157  0  1.979042  0  0  -0.577991  0  2.230845  0  0  -0.604999  0  2.218127  0  -1.163336  0  -0.314374  -0.558265  0  2.238622  0
O  O144  1  0.50472814  0.12456872  0.52970387  1  0  -0.599407  0  1.94525  0  0  -0.542205  0  2.161405  0  0  -0.56816  0  2.151253  0  -1.151558  0  -0.299537  -0.523698  0  2.167643  0
O  O145  1  0.49527284  0.87543267  0.47029612  1  0  -0.599393  0  1.945143  0  0  -0.542167  0  2.161274  0  0  -0.568134  0  2.151139  0  -1.151635  0  -0.299497  -0.523661  0  2.167506  0
O  O146  1  0.26364030  0.06454738  0.45838492  1  0  -0.842435  0  1.864954  0  0  -0.785763  0  2.066729  0  0  -0.805341  0  2.035014  0  -1.249369  0  -0.582455  -0.771756  0  2.089416  0
O  O147  1  0.73635786  0.93545296  0.54161442  1  0  -0.842401  0  1.864962  0  0  -0.78572  0  2.06674  0  0  -0.805294  0  2.035021  0  -1.249374  0  -0.582439  -0.771711  0  2.089428  0
