# generated using pymatgen
data_Ag5H16C25N9
_symmetry_space_group_name_H-M   'P 1'
_cell_length_a   8.59571696
_cell_length_b   8.89248810
_cell_length_c   9.22462736
_cell_angle_alpha   73.15785489
_cell_angle_beta   76.25156126
_cell_angle_gamma   80.51698526
_symmetry_Int_Tables_number   1
_chemical_formula_structural   Ag5H16C25N9
_chemical_formula_sum   'Ag5 H16 C25 N9'
_cell_volume   652.02890913
_cell_formula_units_Z   1
loop_
 _symmetry_equiv_pos_site_id
 _symmetry_equiv_pos_as_xyz
  1  'x, y, z'
loop_
 _atom_site_type_symbol
 _atom_site_label
 _atom_site_symmetry_multiplicity
 _atom_site_fract_x
 _atom_site_fract_y
 _atom_site_fract_z
 _atom_site_occupancy
 _atom_site_hle17_bader_spin_density
 _atom_site_hle17_ddec_charge
 _atom_site_hle17_ddec_spin_density
 _atom_site_hle17_ddec_sum_bond_order
 _atom_site_hle17_magmom
 _atom_site_hse06_10hf_bader_spin_density
 _atom_site_hse06_10hf_ddec_charge
 _atom_site_hse06_10hf_ddec_spin_density
 _atom_site_hse06_10hf_ddec_sum_bond_order
 _atom_site_hse06_10hf_magmom
 _atom_site_hse06_bader_spin_density
 _atom_site_hse06_ddec_charge
 _atom_site_hse06_ddec_spin_density
 _atom_site_hse06_ddec_sum_bond_order
 _atom_site_hse06_magmom
 _atom_site_pbe_bader_spin_density
 _atom_site_pbe_cm5_charge
 _atom_site_pbe_ddec_charge
 _atom_site_pbe_ddec_spin_density
 _atom_site_pbe_ddec_sum_bond_order
 _atom_site_pbe_magmom
Ag  Ag0  1  0.32370377  0.23140244  0.31608022  1  0  0.33573  0  1.933143  0  0  0.206548  0  2.440838  0  0  0.227558  0  2.392  0  0  0.398652  0.19299  0  2.473888  0
Ag  Ag1  1  0.97551659  0.23177380  0.52577317  1  0  0.564113  0  1.73081  0  0  0.450597  0  2.220345  0  0  0.470972  0  2.175144  0  0  0.503285  0.437698  0  2.250736  0
Ag  Ag2  1  0.22884843  0.62751604  0.67314860  1  0  0.446173  0  1.940912  0  0  0.343859  0  2.440591  0  0  0.357586  0  2.39839  0  0  0.437536  0.33558  0  2.468835  0
Ag  Ag3  1  0.87913153  0.61300735  0.89367624  1  0  0.32652  0  1.955665  0  0  0.198008  0  2.464445  0  0  0.218357  0  2.415861  0  0  0.397632  0.184996  0  2.497258  0
Ag  Ag4  1  0.60124730  0.42174844  0.10384828  1  0  0.275342  0  2.085379  0  0  0.183364  0  2.592421  0  0  0.200991  0  2.541222  0  0  0.332014  0.171959  0  2.62711  0
H  H5  1  0.14131890  0.33316716  0.03429002  1  0  0.065365  0  0.962719  0  0  0.072621  0  1.037004  0  0  0.07465  0  1.034485  0  0  0.106942  0.071092  0  1.038854  0
H  H6  1  0.09602905  0.22351010  0.83015931  1  0  0.10893  0  0.972738  0  0  0.116398  0  1.039193  0  0  0.118885  0  1.039201  0  0  0.103712  0.114613  0  1.039332  0
H  H7  1  0.20708300  0.94308745  0.83032936  1  0  0.10081  0  0.953004  0  0  0.112162  0  1.011996  0  0  0.114146  0  1.011055  0  0  0.105587  0.110688  0  1.012733  0
H  H8  1  0.36535000  0.79016090  0.02890291  1  0  0.101201  0  0.973674  0  0  0.112597  0  1.035293  0  0  0.114252  0  1.036286  0  0  0.103044  0.1114  0  1.034722  0
H  H9  1  0.43003141  0.66060076  0.23596928  1  0  0.093256  0  0.983938  0  0  0.103144  0  1.052976  0  0  0.105809  0  1.051702  0  0  0.096342  0.101165  0  1.054056  0
H  H10  1  0.60548149  0.53523872  0.42637755  1  0  0.104341  0  0.93908  0  0  0.117997  0  0.99196  0  0  0.119434  0  0.992093  0  0  0.108749  0.116926  0  0.991973  0
H  H11  1  0.70796853  0.70577253  0.54975538  1  0  0.107163  0  0.950255  0  0  0.118452  0  1.007553  0  0  0.120435  0  1.008441  0  0  0.106794  0.117064  0  1.00702  0
H  H12  1  0.62849183  0.99951993  0.47295233  1  0  0.07058  0  0.955032  0  0  0.08043  0  1.01885  0  0  0.082054  0  1.018267  0  0  0.11285  0.079266  0  1.019263  0
H  H13  1  0.05676837  0.50906735  0.17852295  1  0  0.065724  0  0.963653  0  0  0.072402  0  1.039288  0  0  0.07461  0  1.036505  0  0  0.106324  0.070697  0  1.041446  0
H  H14  1  0.10950540  0.62209535  0.37767427  1  0  0.10497  0  0.979228  0  0  0.11107  0  1.049126  0  0  0.113491  0  1.049208  0  0  0.102517  0.109331  0  1.049187  0
H  H15  1  0.00557024  0.90552338  0.37152938  1  0  0.104374  0  0.951825  0  0  0.115331  0  1.010081  0  0  0.117338  0  1.009284  0  0  0.106553  0.113852  0  1.010705  0
H  H16  1  0.84797893  0.05771159  0.17327703  1  0  0.101223  0  0.97882  0  0  0.112932  0  1.039909  0  0  0.114508  0  1.041026  0  0  0.102721  0.111746  0  1.039338  0
H  H17  1  0.77519332  0.18515402  0.97155605  1  0  0.090036  0  0.987125  0  0  0.10037  0  1.056144  0  0  0.102959  0  1.054955  0  0  0.095485  0.09845  0  1.057226  0
H  H18  1  0.60246750  0.31056464  0.77903553  1  0  0.104743  0  0.941381  0  0  0.118442  0  0.993687  0  0  0.119789  0  0.994027  0  0  0.108588  0.117439  0  0.993546  0
H  H19  1  0.50396032  0.14097041  0.65211428  1  0  0.108262  0  0.953347  0  0  0.119492  0  1.011269  0  0  0.12148  0  1.012094  0  0  0.10827  0.118077  0  1.010835  0
H  H20  1  0.58394762  0.84716714  0.72844440  1  0  0.068075  0  0.957044  0  0  0.0782  0  1.021224  0  0  0.079762  0  1.020593  0  0  0.111987  0.077049  0  1.021728  0
C  C21  1  0.30263552  0.36185514  0.46763515  1  0  -0.110731  0  3.526833  0  0  -0.080397  0  3.882281  0  0  -0.077314  0  3.885297  0  0  -0.036844  -0.08293  0  3.880368  0
C  C22  1  0.75788035  0.32848905  0.24787517  1  0  -0.061362  0  3.484079  0  0  -0.042171  0  3.829139  0  0  -0.039529  0  3.834703  0  0  -0.034349  -0.044209  0  3.825574  0
C  C23  1  0.44628898  0.50930206  0.95736415  1  0  -0.067957  0  3.480774  0  0  -0.046371  0  3.822793  0  0  -0.044498  0  3.828909  0  0  -0.032289  -0.04783  0  3.818804  0
C  C24  1  0.12658267  0.85652020  0.61550321  1  0  -0.101791  0  3.466733  0  0  -0.090707  0  3.833542  0  0  -0.083706  0  3.835557  0  0  -0.037052  -0.095674  0  3.832074  0
C  C25  1  0.89986259  0.48064746  0.74472161  1  0  -0.097285  0  3.540808  0  0  -0.071331  0  3.899125  0  0  -0.067257  0  3.902189  0  0  -0.040052  -0.074571  0  3.897174  0
C  C26  1  0.18942615  0.21296456  0.03004303  1  0  0.135409  0  3.700317  0  0  0.10546  0  3.945807  0  0  0.11114  0  3.967125  0  0  0.049405  0.101857  0  3.931279  0
C  C27  1  0.16340574  0.15086180  0.91654416  1  0  -0.108465  0  3.701199  0  0  -0.119859  0  3.945394  0  0  -0.127004  0  3.968188  0  0  -0.080175  -0.115229  0  3.930058  0
C  C28  1  0.22576046  0.99590877  0.91690796  1  0  0.003222  0  3.710265  0  0  -0.0121  0  3.950301  0  0  -0.00867  0  3.969197  0  0  -0.064911  -0.014097  0  3.937349  0
C  C29  1  0.31343278  0.91039260  0.02858736  1  0  -0.141  0  3.723575  0  0  -0.156674  0  3.961285  0  0  -0.164055  0  3.985061  0  0  -0.078946  -0.151865  0  3.945292  0
C  C30  1  0.33799294  0.98112198  0.13743209  1  0  0.170726  0  3.736848  0  0  0.168743  0  3.968334  0  0  0.174905  0  3.990009  0  0  0.116778  0.164671  0  3.953624  0
C  C31  1  0.43729624  0.89711784  0.25371771  1  0  0.170583  0  3.761933  0  0  0.167775  0  3.998602  0  0  0.173745  0  4.02002  0  0  0.114106  0.1638  0  3.984124  0
C  C32  1  0.47684006  0.73330472  0.28934131  1  0  -0.141266  0  3.704571  0  0  -0.160414  0  3.956068  0  0  -0.167561  0  3.977497  0  0  -0.082938  -0.155768  0  3.94186  0
C  C33  1  0.57360741  0.66248879  0.39760051  1  0  0.007233  0  3.71375  0  0  -0.011765  0  3.961622  0  0  -0.007868  0  3.979683  0  0  -0.065894  -0.014165  0  3.949379  0
C  C34  1  0.62881405  0.75694355  0.46755318  1  0  -0.11789  0  3.72696  0  0  -0.128855  0  3.973698  0  0  -0.13512  0  3.994782  0  0  -0.081118  -0.124889  0  3.959598  0
C  C35  1  0.58411481  0.91937388  0.42586387  1  0  0.118618  0  3.735023  0  0  0.091877  0  3.984111  0  0  0.097817  0  4.002885  0  0  0.042693  0.088082  0  3.971285  0
C  C36  1  0.01268707  0.63081569  0.18003320  1  0  0.12759  0  3.702541  0  0  0.097895  0  3.946481  0  0  0.103267  0  3.968101  0  0  0.045604  0.094502  0  3.931745  0
C  C37  1  0.04263456  0.69451978  0.29075733  1  0  -0.109835  0  3.712812  0  0  -0.120463  0  3.957451  0  0  -0.127761  0  3.980682  0  0  -0.079594  -0.115711  0  3.941812  0
C  C38  1  0.98431962  0.85102713  0.28723541  1  0  -0.001594  0  3.713103  0  0  -0.016938  0  3.953801  0  0  -0.013669  0  3.972801  0  0  -0.066647  -0.018834  0  3.940781  0
C  C39  1  0.89670379  0.93638582  0.17547500  1  0  -0.138523  0  3.722826  0  0  -0.154717  0  3.961892  0  0  -0.161749  0  3.985291  0  0  -0.079749  -0.150129  0  3.946154  0
C  C40  1  0.86852974  0.86431377  0.06921988  1  0  0.171823  0  3.730422  0  0  0.167752  0  3.964318  0  0  0.173844  0  3.98584  0  0  0.116998  0.163739  0  3.949695  0
C  C41  1  0.77023425  0.94871950  0.95211051  1  0  0.175863  0  3.748649  0  0  0.17253  0  3.986324  0  0  0.178756  0  4.007346  0  0  0.116156  0.168413  0  3.972081  0
C  C42  1  0.73027159  0.11245055  0.91680852  1  0  -0.133508  0  3.697184  0  0  -0.152436  0  3.946629  0  0  -0.159541  0  3.96808  0  0  -0.079652  -0.147867  0  3.932358  0
C  C43  1  0.63504458  0.18347158  0.80725959  1  0  0.004887  0  3.7142  0  0  -0.0138  0  3.962161  0  0  -0.009914  0  3.980196  0  0  -0.06751  -0.016189  0  3.94992  0
C  C44  1  0.58166580  0.08949152  0.73557873  1  0  -0.120944  0  3.731781  0  0  -0.133322  0  3.980054  0  0  -0.139491  0  4.000965  0  0  -0.084555  -0.129412  0  3.966063  0
C  C45  1  0.62655603  0.92714237  0.77707421  1  0  0.125632  0  3.734471  0  0  0.098925  0  3.982447  0  0  0.104967  0  4.001167  0  0  0.048771  0.095052  0  3.96968  0
N  N46  1  0.29723993  0.43481337  0.55667976  1  0  -0.369376  0  3.151011  0  0  -0.308493  0  3.439072  0  0  -0.324197  0  3.45289  0  0  -0.391402  -0.298002  0  3.429726  0
N  N47  1  0.84911794  0.27927454  0.33095356  1  0  -0.401611  0  3.125125  0  0  -0.338723  0  3.429618  0  0  -0.354444  0  3.44017  0  0  -0.38165  -0.328308  0  3.422531  0
N  N48  1  0.36021712  0.54867451  0.86892501  1  0  -0.378885  0  3.117514  0  0  -0.317287  0  3.415274  0  0  -0.33219  0  3.427121  0  0  -0.382461  -0.307437  0  3.407271  0
N  N49  1  0.07439081  0.99004008  0.59144337  1  0  -0.424197  0  3.233088  0  0  -0.355561  0  3.557732  0  0  -0.374128  0  3.566339  0  0  -0.414224  -0.343211  0  3.551794  0
N  N50  1  0.90996248  0.40950544  0.65320479  1  0  -0.399037  0  3.20628  0  0  -0.334915  0  3.507465  0  0  -0.351964  0  3.519984  0  0  -0.396803  -0.323474  0  3.498947  0
N  N51  1  0.27447539  0.13112559  0.13805041  1  0  -0.296935  0  3.268641  0  0  -0.218789  0  3.536331  0  0  -0.236724  0  3.552962  0  0  -0.336501  -0.206731  0  3.524902  0
N  N52  1  0.49035979  0.98769665  0.32295906  1  0  -0.317952  0  3.235549  0  0  -0.255254  0  3.509191  0  0  -0.271259  0  3.524703  0  0  -0.333981  -0.244412  0  3.498539  0
N  N53  1  0.92826355  0.71280209  0.07160137  1  0  -0.297441  0  3.274621  0  0  -0.217008  0  3.540825  0  0  -0.234801  0  3.557614  0  0  -0.336699  -0.205062  0  3.529283  0
N  N54  1  0.71846307  0.85862417  0.88149907  1  0  -0.32093  0  3.243528  0  0  -0.257023  0  3.517276  0  0  -0.273093  0  3.532718  0  0  -0.340098  -0.246187  0  3.506694  0
