# generated using pymatgen
data_ZnH14C10(NO2)2
_symmetry_space_group_name_H-M   'P 1'
_cell_length_a   6.06320297
_cell_length_b   9.54056825
_cell_length_c   10.88218902
_cell_angle_alpha   88.06979978
_cell_angle_beta   90.00053942
_cell_angle_gamma   90.00264997
_symmetry_Int_Tables_number   1
_chemical_formula_structural   ZnH14C10(NO2)2
_chemical_formula_sum   'Zn2 H28 C20 N4 O8'
_cell_volume   629.13830267
_cell_formula_units_Z   2
loop_
 _symmetry_equiv_pos_site_id
 _symmetry_equiv_pos_as_xyz
  1  'x, y, z'
loop_
 _atom_site_type_symbol
 _atom_site_label
 _atom_site_symmetry_multiplicity
 _atom_site_fract_x
 _atom_site_fract_y
 _atom_site_fract_z
 _atom_site_occupancy
 _atom_site_hle17_bader_spin_density
 _atom_site_hle17_ddec_charge
 _atom_site_hle17_ddec_spin_density
 _atom_site_hle17_ddec_sum_bond_order
 _atom_site_hle17_magmom
 _atom_site_hse06_10hf_bader_spin_density
 _atom_site_hse06_10hf_ddec_charge
 _atom_site_hse06_10hf_ddec_spin_density
 _atom_site_hse06_10hf_ddec_sum_bond_order
 _atom_site_hse06_10hf_magmom
 _atom_site_hse06_bader_spin_density
 _atom_site_hse06_ddec_charge
 _atom_site_hse06_ddec_spin_density
 _atom_site_hse06_ddec_sum_bond_order
 _atom_site_hse06_magmom
 _atom_site_pbe_bader_spin_density
 _atom_site_pbe_cm5_charge
 _atom_site_pbe_ddec_charge
 _atom_site_pbe_ddec_spin_density
 _atom_site_pbe_ddec_sum_bond_order
 _atom_site_pbe_magmom
Zn  Zn0  1  0.07952843  0.08845717  0.81416056  1  0  0.9872  0  1.870732  0  0  0.803239  0  2.336024  0  0  0.849527  0  2.282898  0  0  0.704216  0.770956  0  2.372678  0
Zn  Zn1  1  0.57952670  0.91153305  0.18581997  1  0  0.987271  0  1.870672  0  0  0.803315  0  2.336046  0  0  0.849593  0  2.282913  0  0  0.704252  0.771024  0  2.372688  0
H  H2  1  0.73466545  0.04469128  0.51670710  1  0  -0.004768  0  0.91025  0  0  -0.006698  0  0.985266  0  0  -0.006557  0  0.985285  0  0  -0.010197  -0.006894  0  0.98529  0
H  H3  1  0.23469927  0.95533670  0.48327256  1  0  -0.004814  0  0.910055  0  0  -0.006689  0  0.985078  0  0  -0.006548  0  0.985095  0  0  -0.010192  -0.006889  0  0.985102  0
H  H4  1  0.78955378  0.38238523  0.48167614  1  0  0.094853  0  0.935715  0  0  0.111847  0  0.998306  0  0  0.112794  0  0.998421  0  0  0.104832  0.111013  0  0.998403  0
H  H5  1  0.28955657  0.61765615  0.51834227  1  0  0.094892  0  0.935731  0  0  0.111849  0  0.998377  0  0  0.112797  0  0.998498  0  0  0.10484  0.111011  0  0.998479  0
H  H6  1  0.94437011  0.50267009  0.56392654  1  0  0.103571  0  0.941008  0  0  0.120631  0  1.000864  0  0  0.121612  0  1.001284  0  0  0.104857  0.11978  0  1.000816  0
H  H7  1  0.44435877  0.49736446  0.43610976  1  0  0.10342  0  0.941137  0  0  0.120475  0  1.001012  0  0  0.121448  0  1.001452  0  0  0.104783  0.119622  0  1.000965  0
H  H8  1  0.49267599  0.40216540  0.62203965  1  0  0.074493  0  0.977437  0  0  0.09015  0  1.042209  0  0  0.090808  0  1.04308  0  0  0.092549  0.089517  0  1.041796  0
H  H9  1  0.99267675  0.59784061  0.37798648  1  0  0.074506  0  0.977502  0  0  0.090243  0  1.042242  0  0  0.090896  0  1.043116  0  0  0.092572  0.08961  0  1.04182  0
H  H10  1  0.64221695  0.53407205  0.69567016  1  0  0.07006  0  0.962525  0  0  0.085452  0  1.027893  0  0  0.086706  0  1.027466  0  0  0.089423  0.084559  0  1.028171  0
H  H11  1  0.14221252  0.46592289  0.30437440  1  0  0.070086  0  0.962215  0  0  0.085532  0  1.027594  0  0  0.086787  0  1.027153  0  0  0.089374  0.084595  0  1.027915  0
H  H12  1  0.56198926  0.24295622  0.78804233  1  0  0.088502  0  0.935317  0  0  0.103122  0  0.997465  0  0  0.103931  0  0.997302  0  0  0.108545  0.102442  0  0.99764  0
H  H13  1  0.06199036  0.75702693  0.21196969  1  0  0.088401  0  0.935281  0  0  0.10309  0  0.997395  0  0  0.103882  0  0.997249  0  0  0.108516  0.102398  0  0.997583  0
H  H14  1  0.73229794  0.36628945  0.86055144  1  0  0.054388  0  0.931517  0  0  0.073685  0  0.990947  0  0  0.073193  0  0.991478  0  0  0.101369  0.074019  0  0.990635  0
H  H15  1  0.23228384  0.63368079  0.13946376  1  0  0.054345  0  0.931329  0  0  0.073618  0  0.990821  0  0  0.073128  0  0.991345  0  0  0.101303  0.073949  0  0.990509  0
H  H16  1  0.42745337  0.83011888  0.74219533  1  0  0.088818  0  0.898977  0  0  0.108532  0  0.949753  0  0  0.108707  0  0.950229  0  0  0.116879  0.108281  0  0.949602  0
H  H17  1  0.92746994  0.16988328  0.25776783  1  0  0.088778  0  0.89903  0  0  0.10864  0  0.949722  0  0  0.108815  0  0.950201  0  0  0.116946  0.108386  0  0.949563  0
H  H18  1  0.88623293  0.60302864  0.83138906  1  0  0.099316  0  0.929306  0  0  0.119605  0  0.98385  0  0  0.120099  0  0.984792  0  0  0.1071  0.119136  0  0.98342  0
H  H19  1  0.38621418  0.39693507  0.16863215  1  0  0.099258  0  0.929193  0  0  0.119551  0  0.983756  0  0  0.120045  0  0.984703  0  0  0.10707  0.119089  0  0.983313  0
H  H20  1  0.01575280  0.60169382  0.97673178  1  0  0.095135  0  0.941086  0  0  0.10988  0  1.004828  0  0  0.111712  0  1.003769  0  0  0.102618  0.108252  0  1.006281  0
H  H21  1  0.51570971  0.39830153  0.02327937  1  0  0.09516  0  0.941185  0  0  0.109882  0  1.004947  0  0  0.11172  0  1.003884  0  0  0.10256  0.108255  0  1.006404  0
H  H22  1  0.25914642  0.55186351  0.75941693  1  0  0.080367  0  0.945978  0  0  0.099962  0  1.001961  0  0  0.100596  0  1.003012  0  0  0.097164  0.099245  0  1.001744  0
H  H23  1  0.75913634  0.44813166  0.24058352  1  0  0.080336  0  0.946004  0  0  0.10001  0  1.001887  0  0  0.100645  0  1.002937  0  0  0.097177  0.099289  0  1.001672  0
H  H24  1  0.37857557  0.63477778  0.88693992  1  0  0.071913  0  0.930744  0  0  0.090766  0  0.988216  0  0  0.091717  0  0.988641  0  0  0.09362  0.089849  0  0.988352  0
H  H25  1  0.87856114  0.36523800  0.11304183  1  0  0.071932  0  0.930679  0  0  0.090767  0  0.98818  0  0  0.091722  0  0.988597  0  0  0.093641  0.089848  0  0.988317  0
H  H26  1  0.13527976  0.92059923  0.45594079  1  0  0.011117  0  0.907626  0  0  0.005928  0  0.982229  0  0  0.008064  0  0.981211  0  0  -0.008768  0.004431  0  0.982996  0
H  H27  1  0.63524616  0.07942679  0.54402951  1  0  0.011062  0  0.90783  0  0  0.005938  0  0.98238  0  0  0.008072  0  0.981362  0  0  -0.008765  0.004441  0  0.983145  0
H  H28  1  0.20097140  0.78025273  0.65109918  1  0  0.083774  0  0.926219  0  0  0.098391  0  0.990802  0  0  0.098204  0  0.99125  0  0  0.114774  0.098506  0  0.990482  0
H  H29  1  0.70100485  0.21972816  0.34888757  1  0  0.083767  0  0.925936  0  0  0.09843  0  0.990605  0  0  0.098245  0  0.991054  0  0  0.114702  0.098526  0  0.990302  0
C  C30  1  0.18292968  0.22405108  0.58306228  1  0  0.578523  0  3.984715  0  0  0.534978  0  4.284756  0  0  0.565866  0  4.279026  0  0  0.200354  0.514139  0  4.287873  0
C  C31  1  0.68293199  0.77596969  0.41692530  1  0  0.57838  0  3.984985  0  0  0.534683  0  4.285084  0  0  0.565561  0  4.279363  0  0  0.200341  0.513849  0  4.288198  0
C  C32  1  0.97181752  0.28937796  0.63188883  1  0  0.17837  0  3.607399  0  0  0.170919  0  3.854431  0  0  0.17862  0  3.867593  0  0  0.156716  0.165287  0  3.845912  0
C  C33  1  0.47181799  0.71063295  0.36810916  1  0  0.178225  0  3.607682  0  0  0.1712  0  3.854246  0  0  0.178912  0  3.867405  0  0  0.156681  0.165557  0  3.845741  0
C  C34  1  0.84267037  0.40777248  0.57488065  1  0  -0.168348  0  3.66483  0  0  -0.21201  0  3.917332  0  0  -0.21414  0  3.928901  0  0  -0.15084  -0.210297  0  3.909403  0
C  C35  1  0.34266436  0.59224951  0.42514652  1  0  -0.168171  0  3.664737  0  0  -0.211872  0  3.917201  0  0  -0.214018  0  3.928772  0  0  -0.150766  -0.210154  0  3.909265  0
C  C36  1  0.65006999  0.42567778  0.66584586  1  0  -0.134298  0  3.626728  0  0  -0.177024  0  3.885842  0  0  -0.17815  0  3.897889  0  0  -0.163992  -0.176004  0  3.877233  0
C  C37  1  0.15007394  0.57431655  0.33419822  1  0  -0.134352  0  3.626461  0  0  -0.177286  0  3.88581  0  0  -0.178385  0  3.897813  0  0  -0.16402  -0.176231  0  3.877201  0
C  C38  1  0.69679950  0.31817068  0.77211977  1  0  0.033703  0  3.605063  0  0  -0.018205  0  3.863995  0  0  -0.014007  0  3.87611  0  0  -0.062525  -0.0208  0  3.855438  0
C  C39  1  0.19679504  0.68181231  0.22789572  1  0  0.033912  0  3.604402  0  0  -0.018017  0  3.863466  0  0  -0.013811  0  3.875577  0  0  -0.062412  -0.020606  0  3.854895  0
C  C40  1  0.82687898  0.88493335  0.96412807  1  0  0.608837  0  3.931643  0  0  0.560248  0  4.228752  0  0  0.59354  0  4.220737  0  0  0.216078  0.5378  0  4.233124  0
C  C41  1  0.32688662  0.11504489  0.03585907  1  0  0.608651  0  3.932016  0  0  0.560114  0  4.22903  0  0  0.593403  0  4.22102  0  0  0.216047  0.537667  0  4.233403  0
C  C42  1  0.98470993  0.80566876  0.88498847  1  0  0.187932  0  3.594316  0  0  0.182162  0  3.839637  0  0  0.189267  0  3.8512  0  0  0.161905  0.177005  0  3.831795  0
C  C43  1  0.48470403  0.19431682  0.11500339  1  0  0.188204  0  3.594142  0  0  0.182441  0  3.839349  0  0  0.189554  0  3.85091  0  0  0.162033  0.177282  0  3.83151  0
C  C44  1  0.02081559  0.65048282  0.88408112  1  0  -0.168313  0  3.664521  0  0  -0.213016  0  3.918485  0  0  -0.214741  0  3.929731  0  0  -0.148174  -0.211732  0  3.911131  0
C  C45  1  0.52079337  0.34950558  0.11592609  1  0  -0.168218  0  3.664604  0  0  -0.212956  0  3.918587  0  0  -0.214692  0  3.929846  0  0  -0.1481  -0.211679  0  3.911234  0
C  C46  1  0.24558183  0.64230280  0.81823748  1  0  -0.117124  0  3.621904  0  0  -0.158332  0  3.88207  0  0  -0.159746  0  3.895138  0  0  -0.155392  -0.157195  0  3.873328  0
C  C47  1  0.74557995  0.35769714  0.18175367  1  0  -0.117141  0  3.621611  0  0  -0.158344  0  3.881844  0  0  -0.159759  0  3.89492  0  0  -0.155379  -0.157206  0  3.873091  0
C  C48  1  0.26152144  0.78426247  0.74629578  1  0  0.027285  0  3.58821  0  0  -0.026885  0  3.851954  0  0  -0.022706  0  3.863736  0  0  -0.053333  -0.029596  0  3.843702  0
C  C49  1  0.76153272  0.21572706  0.25368618  1  0  0.027291  0  3.587979  0  0  -0.027202  0  3.852036  0  0  -0.023029  0  3.863828  0  0  -0.053427  -0.029891  0  3.84375  0
N  N50  1  0.89478413  0.24241065  0.73537152  1  0  -0.331147  0  3.184114  0  0  -0.253192  0  3.458492  0  0  -0.271599  0  3.470227  0  0  -0.33694  -0.240747  0  3.450626  0
N  N51  1  0.39479088  0.75758355  0.26462592  1  0  -0.331129  0  3.184481  0  0  -0.253329  0  3.458769  0  0  -0.271741  0  3.470494  0  0  -0.336919  -0.24088  0  3.450897  0
N  N52  1  0.11157265  0.87694045  0.81200095  1  0  -0.304688  0  3.144622  0  0  -0.230045  0  3.421153  0  0  -0.246884  0  3.431011  0  0  -0.317774  -0.218584  0  3.414743  0
N  N53  1  0.61158392  0.12304625  0.18798034  1  0  -0.304834  0  3.144758  0  0  -0.230099  0  3.421282  0  0  -0.246938  0  3.431142  0  0  -0.317837  -0.218639  0  3.414854  0
O  O54  1  0.27400183  0.13369444  0.65776477  1  0  -0.625569  0  1.99986  0  0  -0.562392  0  2.254331  0  0  -0.590293  0  2.242955  0  0  -0.325753  -0.542773  0  2.261423  0
O  O55  1  0.77401274  0.86632910  0.34222441  1  0  -0.625496  0  2.000108  0  0  -0.562328  0  2.254656  0  0  -0.590226  0  2.243277  0  0  -0.325793  -0.542707  0  2.261745  0
O  O56  1  0.25018433  0.26432872  0.47935080  1  0  -0.57687  0  1.867977  0  0  -0.539919  0  2.078086  0  0  -0.560968  0  2.072118  0  0  -0.325338  -0.525312  0  2.081819  0
O  O57  1  0.75020195  0.73571239  0.52063883  1  0  -0.576874  0  1.86802  0  0  -0.539853  0  2.07812  0  0  -0.560902  0  2.072162  0  0  -0.325331  -0.525259  0  2.081869  0
O  O58  1  0.80308426  0.01388610  0.94037074  1  0  -0.588144  0  1.992792  0  0  -0.537771  0  2.234327  0  0  -0.563451  0  2.224939  0  0  -0.300182  -0.519905  0  2.240105  0
O  O59  1  0.30309099  0.98608688  0.05960873  1  0  -0.58803  0  1.992943  0  0  -0.53771  0  2.234477  0  0  -0.563403  0  2.225115  0  0  -0.300143  -0.519838  0  2.240244  0
O  O60  1  0.73747153  0.81226335  0.05175613  1  0  -0.598804  0  2.032529  0  0  -0.534022  0  2.294518  0  0  -0.561716  0  2.28026  0  0  -0.313752  -0.514362  0  2.303758  0
O  O61  1  0.23749914  0.18771638  0.94823018  1  0  -0.598905  0  2.032834  0  0  -0.53408  0  2.294726  0  0  -0.561778  0  2.280471  0  0  -0.313793  -0.514428  0  2.303979  0
