# generated using pymatgen
data_CuH5C6NClO
_symmetry_space_group_name_H-M   'P 1'
_cell_length_a   3.73642694
_cell_length_b   13.02635861
_cell_length_c   14.46186952
_cell_angle_alpha   108.50940453
_cell_angle_beta   89.99744568
_cell_angle_gamma   89.99839302
_symmetry_Int_Tables_number   1
_chemical_formula_structural   CuH5C6NClO
_chemical_formula_sum   'Cu4 H20 C24 N4 Cl4 O4'
_cell_volume   667.47758842
_cell_formula_units_Z   4
loop_
 _symmetry_equiv_pos_site_id
 _symmetry_equiv_pos_as_xyz
  1  'x, y, z'
loop_
 _atom_site_type_symbol
 _atom_site_label
 _atom_site_symmetry_multiplicity
 _atom_site_fract_x
 _atom_site_fract_y
 _atom_site_fract_z
 _atom_site_occupancy
 _atom_site_hle17_bader_spin_density
 _atom_site_hle17_ddec_charge
 _atom_site_hle17_ddec_spin_density
 _atom_site_hle17_ddec_sum_bond_order
 _atom_site_hle17_magmom
 _atom_site_hse06_10hf_bader_spin_density
 _atom_site_hse06_10hf_ddec_charge
 _atom_site_hse06_10hf_ddec_spin_density
 _atom_site_hse06_10hf_ddec_sum_bond_order
 _atom_site_hse06_10hf_magmom
 _atom_site_hse06_bader_spin_density
 _atom_site_hse06_ddec_charge
 _atom_site_hse06_ddec_spin_density
 _atom_site_hse06_ddec_sum_bond_order
 _atom_site_hse06_magmom
 _atom_site_pbe_bader_spin_density
 _atom_site_pbe_cm5_charge
 _atom_site_pbe_ddec_charge
 _atom_site_pbe_ddec_spin_density
 _atom_site_pbe_ddec_sum_bond_order
 _atom_site_pbe_magmom
Cu  Cu0  1  0.91956814  0.57339976  0.82567347  1  0  0.413049  0  1.960093  0  0  0.319103  0  2.447422  0  0  0.318644  0  2.399086  0  0  0.367162  0.322571  0  2.47794  0
Cu  Cu1  1  0.41956216  0.42657951  0.67433041  1  0  0.412948  0  1.960271  0  0  0.318975  0  2.44759  0  0  0.318537  0  2.399302  0  0  0.367147  0.322431  0  2.478171  0
Cu  Cu2  1  0.08046359  0.42657536  0.17433301  1  0  0.412934  0  1.960271  0  0  0.318954  0  2.447585  0  0  0.318566  0  2.399184  0  0  0.367154  0.322412  0  2.478165  0
Cu  Cu3  1  0.58044548  0.57343390  0.32567014  1  0  0.412951  0  1.960277  0  0  0.318983  0  2.447601  0  0  0.31853  0  2.399303  0  0  0.36718  0.322439  0  2.4782  0
H  H4  1  0.76802697  0.74054931  0.79007194  1  0  0.031394  0  0.962697  0  0  0.031503  0  1.05213  0  0  0.037823  0  1.041621  0  0  0.087796  0.026552  0  1.060099  0
H  H5  1  0.26819897  0.25942504  0.70992377  1  0  0.031436  0  0.962917  0  0  0.031445  0  1.052369  0  0  0.037751  0  1.04188  0  0  0.087802  0.026503  0  1.060379  0
H  H6  1  0.23183882  0.25942260  0.20993151  1  0  0.031451  0  0.962946  0  0  0.031556  0  1.052371  0  0  0.037861  0  1.041893  0  0  0.087832  0.026615  0  1.060343  0
H  H7  1  0.73186219  0.74059582  0.29006791  1  0  0.031432  0  0.962907  0  0  0.031497  0  1.052394  0  0  0.037813  0  1.041895  0  0  0.087834  0.026558  0  1.060374  0
H  H8  1  0.69332396  0.95853787  0.03833587  1  0  0.115091  0  0.974611  0  0  0.118074  0  1.046507  0  0  0.12191  0  1.044107  0  0  0.108096  0.115399  0  1.048295  0
H  H9  1  0.19328202  0.04146748  0.46165179  1  0  0.114995  0  0.974788  0  0  0.118034  0  1.046586  0  0  0.121869  0  1.044194  0  0  0.108117  0.11536  0  1.048375  0
H  H10  1  0.30670777  0.04144702  0.96166936  1  0  0.11517  0  0.974677  0  0  0.118172  0  1.04657  0  0  0.122025  0  1.044127  0  0  0.10818  0.115493  0  1.048362  0
H  H11  1  0.80671491  0.95855340  0.53833852  1  0  0.115214  0  0.97462  0  0  0.118207  0  1.046538  0  0  0.122048  0  1.044127  0  0  0.108202  0.115533  0  1.048328  0
H  H12  1  0.95116435  0.93115280  0.18945348  1  0  0.1049  0  0.934025  0  0  0.114919  0  0.991811  0  0  0.118077  0  0.989067  0  0  0.111425  0.112694  0  0.993657  0
H  H13  1  0.45107595  0.06885375  0.31052076  1  0  0.10516  0  0.933915  0  0  0.115078  0  0.99176  0  0  0.118251  0  0.989005  0  0  0.111477  0.112852  0  0.993611  0
H  H14  1  0.04882455  0.06881997  0.81054677  1  0  0.104827  0  0.933855  0  0  0.114838  0  0.991662  0  0  0.118002  0  0.988931  0  0  0.111345  0.112612  0  0.99351  0
H  H15  1  0.54891027  0.93116795  0.68946910  1  0  0.104939  0  0.934121  0  0  0.114923  0  0.99191  0  0  0.118094  0  0.989162  0  0  0.111449  0.112697  0  0.99376  0
H  H16  1  0.22284333  0.75025856  0.17545446  1  0  0.104086  0  0.961928  0  0  0.11277  0  1.025831  0  0  0.115085  0  1.025929  0  0  0.102689  0.111017  0  1.026055  0
H  H17  1  0.72277357  0.24975447  0.32453309  1  0  0.104079  0  0.96208  0  0  0.11277  0  1.025975  0  0  0.11509  0  1.026061  0  0  0.10273  0.111026  0  1.02615  0
H  H18  1  0.77718036  0.24972227  0.82455026  1  0  0.104093  0  0.961813  0  0  0.112778  0  1.025683  0  0  0.115091  0  1.025782  0  0  0.102726  0.111016  0  1.025929  0
H  H19  1  0.27719928  0.75027521  0.67546674  1  0  0.103977  0  0.961968  0  0  0.112658  0  1.025875  0  0  0.114987  0  1.025935  0  0  0.102716  0.110909  0  1.026088  0
H  H20  1  0.22735216  0.60574192  0.01519808  1  0  0.091314  0  0.952356  0  0  0.097025  0  1.019718  0  0  0.100475  0  1.017523  0  0  0.101504  0.094206  0  1.021685  0
H  H21  1  0.72733222  0.39424894  0.48480014  1  0  0.09135  0  0.952281  0  0  0.097066  0  1.019676  0  0  0.100525  0  1.017456  0  0  0.101571  0.094246  0  1.021646  0
H  H22  1  0.77267689  0.39423902  0.98479906  1  0  0.091509  0  0.952391  0  0  0.09719  0  1.019774  0  0  0.100655  0  1.017544  0  0  0.101587  0.094367  0  1.021752  0
H  H23  1  0.27264865  0.60577336  0.51520373  1  0  0.091467  0  0.95237  0  0  0.097166  0  1.019711  0  0  0.100635  0  1.017474  0  0  0.101555  0.094335  0  1.021707  0
C  C24  1  0.82993823  0.79686004  0.94823723  1  0  0.12493  0  3.767353  0  0  0.130603  0  4.004573  0  0  0.130545  0  4.025899  0  0  0.092588  0.131018  0  3.990594  0
C  C25  1  0.33000216  0.20312075  0.55175490  1  0  0.124979  0  3.767533  0  0  0.130646  0  4.004697  0  0  0.130585  0  4.026018  0  0  0.092682  0.131077  0  3.990748  0
C  C26  1  0.17004264  0.20311991  0.05177275  1  0  0.124853  0  3.768153  0  0  0.130653  0  4.005272  0  0  0.130591  0  4.026609  0  0  0.092695  0.131087  0  3.991283  0
C  C27  1  0.66999745  0.79689283  0.44823394  1  0  0.124749  0  3.767819  0  0  0.130618  0  4.004945  0  0  0.130567  0  4.026273  0  0  0.092744  0.131061  0  3.990967  0
C  C28  1  0.69078658  0.80823110  0.85661182  1  0  0.305283  0  3.664648  0  0  0.257355  0  3.94385  0  0  0.281326  0  3.935465  0  0  0.094213  0.239693  0  3.951264  0
C  C29  1  0.19090135  0.19175250  0.64338676  1  0  0.305199  0  3.664767  0  0  0.257402  0  3.943859  0  0  0.281392  0  3.93545  0  0  0.094206  0.239678  0  3.951355  0
C  C30  1  0.30915148  0.19175371  0.14339892  1  0  0.305203  0  3.665004  0  0  0.257168  0  3.9443  0  0  0.281146  0  3.935905  0  0  0.094041  0.239484  0  3.951757  0
C  C31  1  0.80911967  0.80826668  0.35660858  1  0  0.305269  0  3.664952  0  0  0.257219  0  3.944291  0  0  0.281202  0  3.935884  0  0  0.094038  0.239511  0  3.951777  0
C  C32  1  0.81540642  0.88192499  0.03602501  1  0  -0.098894  0  3.67732  0  0  -0.122053  0  3.925397  0  0  -0.127273  0  3.947935  0  0  -0.069967  -0.118756  0  3.909917  0
C  C33  1  0.31540613  0.11806882  0.46395864  1  0  -0.09875  0  3.677376  0  0  -0.121965  0  3.925451  0  0  -0.127177  0  3.947971  0  0  -0.070013  -0.118673  0  3.90999  0
C  C34  1  0.18459319  0.11805819  0.96398594  1  0  -0.09888  0  3.677287  0  0  -0.122146  0  3.925443  0  0  -0.127347  0  3.947963  0  0  -0.070012  -0.118853  0  3.90997  0
C  C35  1  0.68460419  0.88194558  0.53602975  1  0  -0.098811  0  3.677116  0  0  -0.122134  0  3.925353  0  0  -0.12734  0  3.947872  0  0  -0.07006  -0.118846  0  3.909887  0
C  C36  1  0.95740393  0.86677243  0.11962731  1  0  -0.008435  0  3.691929  0  0  -0.025858  0  3.942166  0  0  -0.023459  0  3.959836  0  0  -0.064522  -0.026693  0  3.929701  0
C  C37  1  0.45736171  0.13323475  0.38035258  1  0  -0.008817  0  3.692201  0  0  -0.026158  0  3.942451  0  0  -0.023782  0  3.96013  0  0  -0.064583  -0.026995  0  3.93001  0
C  C38  1  0.04260906  0.13321571  0.88037819  1  0  -0.008469  0  3.691726  0  0  -0.025914  0  3.942045  0  0  -0.023538  0  3.959715  0  0  -0.06449  -0.026745  0  3.929584  0
C  C39  1  0.54264057  0.86678774  0.61963821  1  0  -0.008664  0  3.692068  0  0  -0.026048  0  3.942384  0  0  -0.023672  0  3.960062  0  0  -0.064596  -0.026887  0  3.929949  0
C  C40  1  0.10685536  0.76632383  0.11246588  1  0  -0.085296  0  3.69725  0  0  -0.100622  0  3.948569  0  0  -0.105216  0  3.969504  0  0  -0.074422  -0.09839  0  3.935262  0
C  C41  1  0.60683141  0.23367715  0.38751932  1  0  -0.085232  0  3.697815  0  0  -0.10052  0  3.949069  0  0  -0.105117  0  3.97002  0  0  -0.074406  -0.098274  0  3.935779  0
C  C42  1  0.89316031  0.23366188  0.88753890  1  0  -0.085142  0  3.697519  0  0  -0.100382  0  3.948726  0  0  -0.104975  0  3.969674  0  0  -0.074398  -0.098147  0  3.935414  0
C  C43  1  0.39317890  0.76634202  0.61247602  1  0  -0.084947  0  3.697547  0  0  -0.100214  0  3.948744  0  0  -0.104805  0  3.9697  0  0  -0.07436  -0.097981  0  3.935453  0
C  C44  1  0.11144079  0.68476980  0.02276260  1  0  0.133151  0  3.649052  0  0  0.100726  0  3.9053  0  0  0.107877  0  3.918857  0  0  0.037723  0.095795  0  3.897239  0
C  C45  1  0.61143122  0.31522293  0.47722702  1  0  0.133208  0  3.649182  0  0  0.100684  0  3.905503  0  0  0.107832  0  3.919059  0  0  0.037643  0.09575  0  3.89746  0
C  C46  1  0.88858558  0.31521842  0.97723739  1  0  0.133019  0  3.649422  0  0  0.100582  0  3.905605  0  0  0.107728  0  3.919178  0  0  0.037712  0.09565  0  3.897554  0
C  C47  1  0.38854966  0.68479786  0.52276880  1  0  0.132943  0  3.64934  0  0  0.100527  0  3.905565  0  0  0.107675  0  3.919138  0  0  0.037764  0.095595  0  3.897517  0
N  N48  1  0.97695758  0.69886582  0.94105888  1  0  -0.313773  0  3.389422  0  0  -0.247296  0  3.68755  0  0  -0.255538  0  3.693824  0  0  -0.364798  -0.242656  0  3.683245  0
N  N49  1  0.47700167  0.30111198  0.55893082  1  0  -0.313835  0  3.389495  0  0  -0.247274  0  3.687545  0  0  -0.255519  0  3.693838  0  0  -0.364893  -0.24263  0  3.683263  0
N  N50  1  0.02303133  0.30110938  0.05894140  1  0  -0.313826  0  3.389836  0  0  -0.247334  0  3.687862  0  0  -0.2556  0  3.69419  0  0  -0.364955  -0.242696  0  3.683576  0
N  N51  1  0.52298455  0.69890238  0.44106033  1  0  -0.313818  0  3.38956  0  0  -0.247386  0  3.687649  0  0  -0.255657  0  3.693975  0  0  -0.365093  -0.24275  0  3.683373  0
Cl  Cl52  1  0.45193478  0.45761486  0.84038282  1  0  -0.502756  0  1.459274  0  0  -0.428089  0  1.855753  0  0  -0.444149  0  1.818437  0  0  -0.278931  -0.416404  0  1.880411  0
Cl  Cl53  1  0.95193919  0.54236562  0.65961624  1  0  -0.502711  0  1.459251  0  0  -0.428022  0  1.855669  0  0  -0.444097  0  1.818367  0  0  -0.278927  -0.416332  0  1.880326  0
Cl  Cl54  1  0.54805680  0.54236776  0.15961067  1  0  -0.502752  0  1.459268  0  0  -0.428048  0  1.855683  0  0  -0.444134  0  1.818376  0  0  -0.278947  -0.416364  0  1.880362  0
Cl  Cl55  1  0.04808451  0.45764691  0.34038888  1  0  -0.502674  0  1.459431  0  0  -0.427942  0  1.855798  0  0  -0.444024  0  1.818502  0  0  -0.278901  -0.416258  0  1.880477  0
O  O56  1  0.49970579  0.88322604  0.85159248  1  0  -0.414021  0  1.976629  0  0  -0.35812  0  2.186422  0  0  -0.376103  0  2.183263  0  0  -0.250562  -0.345992  0  2.189186  0
O  O57  1  0.99979965  0.11675689  0.64841302  1  0  -0.414019  0  1.976358  0  0  -0.358185  0  2.186155  0  0  -0.376167  0  2.182986  0  0  -0.250554  -0.346031  0  2.188955  0
O  O58  1  0.50026973  0.11676191  0.14842610  1  0  -0.41402  0  1.976455  0  0  -0.358107  0  2.186365  0  0  -0.376088  0  2.183202  0  0  -0.250483  -0.34599  0  2.189171  0
O  O59  1  0.00024010  0.88325252  0.35158357  1  0  -0.414006  0  1.976511  0  0  -0.358051  0  2.186389  0  0  -0.376034  0  2.183221  0  0  -0.250452  -0.345901  0  2.189175  0
