# generated using pymatgen
data_CsH7C15N4O
_symmetry_space_group_name_H-M   'P 1'
_cell_length_a   8.88456183
_cell_length_b   10.19649059
_cell_length_c   16.36644509
_cell_angle_alpha   90.00052090
_cell_angle_beta   98.75413640
_cell_angle_gamma   90.00034697
_symmetry_Int_Tables_number   1
_chemical_formula_structural   CsH7C15N4O
_chemical_formula_sum   'Cs4 H28 C60 N16 O4'
_cell_volume   1465.38618164
_cell_formula_units_Z   4
loop_
 _symmetry_equiv_pos_site_id
 _symmetry_equiv_pos_as_xyz
  1  'x, y, z'
loop_
 _atom_site_type_symbol
 _atom_site_label
 _atom_site_symmetry_multiplicity
 _atom_site_fract_x
 _atom_site_fract_y
 _atom_site_fract_z
 _atom_site_occupancy
 _atom_site_hle17_bader_spin_density
 _atom_site_hle17_ddec_charge
 _atom_site_hle17_ddec_spin_density
 _atom_site_hle17_ddec_sum_bond_order
 _atom_site_hle17_magmom
 _atom_site_hse06_10hf_bader_spin_density
 _atom_site_hse06_10hf_ddec_charge
 _atom_site_hse06_10hf_ddec_spin_density
 _atom_site_hse06_10hf_ddec_sum_bond_order
 _atom_site_hse06_10hf_magmom
 _atom_site_hse06_bader_spin_density
 _atom_site_hse06_ddec_charge
 _atom_site_hse06_ddec_spin_density
 _atom_site_hse06_ddec_sum_bond_order
 _atom_site_hse06_magmom
 _atom_site_pbe_bader_spin_density
 _atom_site_pbe_cm5_charge
 _atom_site_pbe_ddec_charge
 _atom_site_pbe_ddec_spin_density
 _atom_site_pbe_ddec_sum_bond_order
 _atom_site_pbe_magmom
Cs  Cs0  1  0.85364752  0.87501469  0.08249033  1  0  0.950093  0  0.554102  0  0  0.894935  0  0.793126  0  0  0.908759  0  0.77208  0  0  0.93006  0.885371  0  0.807996  0
Cs  Cs1  1  0.64635075  0.37502173  0.91750929  1  0  0.950102  0  0.554075  0  0  0.894966  0  0.793168  0  0  0.908763  0  0.772068  0  0  0.93007  0.885385  0  0.807969  0
Cs  Cs2  1  0.14635200  0.12498144  0.91751018  1  0  0.950106  0  0.554099  0  0  0.894951  0  0.793128  0  0  0.908775  0  0.772079  0  0  0.93009  0.885394  0  0.807982  0
Cs  Cs3  1  0.35365104  0.62497833  0.08249202  1  0  0.950114  0  0.554081  0  0  0.894963  0  0.79309  0  0  0.90879  0  0.77205  0  0  0.93008  0.885407  0  0.807946  0
H  H4  1  0.75250989  0.79488332  0.27086467  1  0  0.09479  0  0.962413  0  0  0.100691  0  1.0325  0  0  0.104344  0  1.029232  0  0  0.108505  0.098112  0  1.034768  0
H  H5  1  0.74749446  0.29489109  0.72913868  1  0  0.094708  0  0.962476  0  0  0.100619  0  1.032574  0  0  0.104316  0  1.02926  0  0  0.108464  0.098042  0  1.034836  0
H  H6  1  0.24749305  0.20511183  0.72913552  1  0  0.094775  0  0.962379  0  0  0.100677  0  1.032469  0  0  0.104306  0  1.029225  0  0  0.108477  0.098096  0  1.03474  0
H  H7  1  0.25250507  0.70510602  0.27086060  1  0  0.094705  0  0.962503  0  0  0.100609  0  1.032609  0  0  0.104276  0  1.029329  0  0  0.108478  0.09803  0  1.034877  0
H  H8  1  0.92409637  0.92274028  0.37426902  1  0  0.10732  0  0.952473  0  0  0.116105  0  1.015171  0  0  0.118787  0  1.014947  0  0  0.104972  0.114273  0  1.015385  0
H  H9  1  0.57590681  0.42274564  0.62573557  1  0  0.10733  0  0.952587  0  0  0.116071  0  1.015303  0  0  0.118749  0  1.015083  0  0  0.104998  0.114247  0  1.015489  0
H  H10  1  0.07590545  0.07725977  0.62572924  1  0  0.107281  0  0.952506  0  0  0.116067  0  1.015209  0  0  0.118748  0  1.014987  0  0  0.104949  0.114235  0  1.015414  0
H  H11  1  0.42409725  0.57725736  0.37426655  1  0  0.107344  0  0.95252  0  0  0.116083  0  1.015253  0  0  0.118763  0  1.015031  0  0  0.104975  0.114251  0  1.015463  0
H  H12  1  0.16131487  0.56819731  0.46006173  1  0  0.101965  0  0.953494  0  0  0.115256  0  1.010004  0  0  0.117727  0  1.010173  0  0  0.10492  0.113405  0  1.01014  0
H  H13  1  0.33868652  0.06819790  0.53994185  1  0  0.10196  0  0.953573  0  0  0.115264  0  1.010055  0  0  0.117737  0  1.010221  0  0  0.104907  0.113412  0  1.010191  0
H  H14  1  0.83868807  0.43180373  0.53993846  1  0  0.101966  0  0.953506  0  0  0.11526  0  1.010019  0  0  0.117733  0  1.010185  0  0  0.104911  0.113419  0  1.010141  0
H  H15  1  0.66131075  0.93180902  0.46005602  1  0  0.101937  0  0.953538  0  0  0.115253  0  1.010012  0  0  0.117725  0  1.01018  0  0  0.104901  0.113411  0  1.010136  0
H  H16  1  0.99781210  0.44058717  0.35276845  1  0  0.088926  0  0.959648  0  0  0.097595  0  1.024547  0  0  0.099337  0  1.024961  0  0  0.100511  0.096472  0  1.024073  0
H  H17  1  0.50219353  0.94059142  0.64723523  1  0  0.088812  0  0.959565  0  0  0.097491  0  1.024486  0  0  0.099236  0  1.024898  0  0  0.100455  0.096368  0  1.024012  0
H  H18  1  0.00219082  0.55941092  0.64723357  1  0  0.088897  0  0.959516  0  0  0.097562  0  1.024441  0  0  0.099305  0  1.024854  0  0  0.100487  0.096437  0  1.023968  0
H  H19  1  0.49780147  0.05941059  0.35276184  1  0  0.088882  0  0.959571  0  0  0.097526  0  1.024531  0  0  0.09927  0  1.024944  0  0  0.100483  0.096403  0  1.024056  0
H  H20  1  0.12656095  0.81664609  0.54924168  1  0  0.122316  0  0.962822  0  0  0.14007  0  1.030221  0  0  0.140887  0  1.030054  0  0  0.090963  0.139461  0  1.030445  0
H  H21  1  0.37344491  0.31664164  0.45076184  1  0  0.122318  0  0.962823  0  0  0.140093  0  1.0302  0  0  0.14091  0  1.03003  0  0  0.090972  0.139482  0  1.030424  0
H  H22  1  0.87343857  0.18335984  0.45075821  1  0  0.12231  0  0.962824  0  0  0.14006  0  1.030236  0  0  0.140878  0  1.030068  0  0  0.090944  0.139451  0  1.030457  0
H  H23  1  0.62655461  0.68336528  0.54923867  1  0  0.122344  0  0.962792  0  0  0.140112  0  1.030182  0  0  0.14093  0  1.030013  0  0  0.090991  0.139502  0  1.030405  0
H  H24  1  0.14537276  0.93792948  0.47387624  1  0  0.114837  0  0.961695  0  0  0.133659  0  1.02672  0  0  0.135352  0  1.025745  0  0  0.089774  0.132448  0  1.02735  0
H  H25  1  0.35463192  0.43792995  0.52612481  1  0  0.114921  0  0.961681  0  0  0.133732  0  1.026696  0  0  0.135422  0  1.025724  0  0  0.089803  0.132522  0  1.027329  0
H  H26  1  0.85462452  0.06207352  0.52612041  1  0  0.114853  0  0.961672  0  0  0.133676  0  1.026702  0  0  0.135371  0  1.025725  0  0  0.089769  0.132464  0  1.027333  0
H  H27  1  0.64537215  0.56207697  0.47387609  1  0  0.114868  0  0.961632  0  0  0.133698  0  1.026647  0  0  0.135392  0  1.02567  0  0  0.089777  0.132486  0  1.027279  0
H  H28  1  0.27669712  0.80346211  0.48983281  1  0  0.113281  0  0.969292  0  0  0.132438  0  1.03332  0  0  0.132923  0  1.035277  0  0  0.088798  0.132062  0  1.031993  0
H  H29  1  0.22330978  0.30345675  0.51016951  1  0  0.113257  0  0.969263  0  0  0.132441  0  1.033261  0  0  0.132911  0  1.035231  0  0  0.088792  0.132064  0  1.031934  0
H  H30  1  0.72330583  0.19654481  0.51016677  1  0  0.113282  0  0.969264  0  0  0.132452  0  1.033272  0  0  0.132938  0  1.035229  0  0  0.088809  0.132077  0  1.031944  0
H  H31  1  0.77669202  0.69654919  0.48983119  1  0  0.113287  0  0.969257  0  0  0.13246  0  1.033267  0  0  0.132939  0  1.03523  0  0  0.088804  0.132085  0  1.031939  0
C  C32  1  0.77010458  0.54130469  0.23570486  1  0  0.387575  0  3.743972  0  0  0.375389  0  4.001616  0  0  0.395975  0  4.005023  0  0  0.167582  0.361211  0  3.999276  0
C  C33  1  0.72989757  0.04130503  0.76429443  1  0  0.387562  0  3.743967  0  0  0.37526  0  4.001718  0  0  0.395833  0  4.005144  0  0  0.167559  0.361081  0  3.999395  0
C  C34  1  0.22989264  0.45869733  0.76429667  1  0  0.387672  0  3.743986  0  0  0.375375  0  4.001717  0  0  0.395966  0  4.005109  0  0  0.167567  0.361197  0  3.999387  0
C  C35  1  0.27010314  0.95869306  0.23570129  1  0  0.38761  0  3.743927  0  0  0.375345  0  4.001627  0  0  0.395923  0  4.005039  0  0  0.167535  0.36118  0  3.999274  0
C  C36  1  0.86438266  0.60955538  0.30349003  1  0  -0.0737  0  3.81176  0  0  -0.05909  0  4.048913  0  0  -0.070881  0  4.078354  0  0  -0.027388  -0.05122  0  4.028966  0
C  C37  1  0.63562579  0.10955817  0.69651019  1  0  -0.073898  0  3.812286  0  0  -0.059219  0  4.049406  0  0  -0.071004  0  4.078856  0  0  -0.027377  -0.05135  0  4.029463  0
C  C38  1  0.13562255  0.39044369  0.69651096  1  0  -0.0737  0  3.811952  0  0  -0.059057  0  4.049087  0  0  -0.070849  0  4.078525  0  0  -0.02736  -0.051189  0  4.029148  0
C  C39  1  0.36437033  0.89044189  0.30348820  1  0  -0.073801  0  3.811993  0  0  -0.05913  0  4.049086  0  0  -0.070916  0  4.078527  0  0  -0.027365  -0.051264  0  4.029148  0
C  C40  1  0.84315320  0.74559631  0.31184334  1  0  -0.046988  0  3.732059  0  0  -0.072103  0  3.984335  0  0  -0.069158  0  4.004472  0  0  -0.072247  -0.073746  0  3.970538  0
C  C41  1  0.65685528  0.24559810  0.68815948  1  0  -0.046764  0  3.732111  0  0  -0.071926  0  3.984346  0  0  -0.069014  0  4.004455  0  0  -0.072219  -0.073569  0  3.970539  0
C  C42  1  0.15684973  0.25440276  0.68815746  1  0  -0.047024  0  3.732072  0  0  -0.072148  0  3.98435  0  0  -0.069184  0  4.004505  0  0  -0.072248  -0.073792  0  3.970552  0
C  C43  1  0.34314423  0.75440097  0.31184164  1  0  -0.046841  0  3.732095  0  0  -0.071993  0  3.984334  0  0  -0.069061  0  4.00447  0  0  -0.072231  -0.073638  0  3.97054  0
C  C44  1  0.93837677  0.81676952  0.37054941  1  0  -0.129023  0  3.689661  0  0  -0.145406  0  3.932941  0  0  -0.152298  0  3.955456  0  0  -0.081064  -0.140705  0  3.917541  0
C  C45  1  0.56162661  0.31677388  0.62945582  1  0  -0.129118  0  3.689647  0  0  -0.145376  0  3.932946  0  0  -0.152273  0  3.955478  0  0  -0.081068  -0.140673  0  3.91755  0
C  C46  1  0.06162048  0.18322956  0.62945029  1  0  -0.128917  0  3.689593  0  0  -0.145327  0  3.932862  0  0  -0.152217  0  3.95537  0  0  -0.081009  -0.14062  0  3.917457  0
C  C47  1  0.43837290  0.68322814  0.37054530  1  0  -0.129083  0  3.689642  0  0  -0.145358  0  3.932951  0  0  -0.152251  0  3.955472  0  0  -0.081048  -0.140656  0  3.91755  0
C  C48  1  0.05496672  0.75453539  0.42464046  1  0  0.200299  0  3.688655  0  0  0.223901  0  3.921027  0  0  0.228012  0  3.943854  0  0  0.019446  0.221136  0  3.905377  0
C  C49  1  0.44503634  0.25453804  0.57536125  1  0  0.20045  0  3.688551  0  0  0.223891  0  3.921116  0  0  0.228006  0  3.943934  0  0  0.019469  0.221123  0  3.905471  0
C  C50  1  0.94503169  0.24546466  0.57535750  1  0  0.200291  0  3.688722  0  0  0.223963  0  3.921001  0  0  0.228076  0  3.943823  0  0  0.019423  0.221193  0  3.905363  0
C  C51  1  0.55496663  0.74546594  0.42463711  1  0  0.200414  0  3.688588  0  0  0.223877  0  3.921135  0  0  0.227993  0  3.943952  0  0  0.019482  0.221108  0  3.905495  0
C  C52  1  0.07215777  0.61769910  0.41812259  1  0  -0.134414  0  3.698581  0  0  -0.149728  0  3.938612  0  0  -0.156154  0  3.961037  0  0  -0.086251  -0.145469  0  3.923544  0
C  C53  1  0.42784635  0.11770076  0.58187967  1  0  -0.13452  0  3.698553  0  0  -0.149778  0  3.938605  0  0  -0.156209  0  3.961032  0  0  -0.086233  -0.145518  0  3.923538  0
C  C54  1  0.92784632  0.38229998  0.58187709  1  0  -0.134422  0  3.69856  0  0  -0.149766  0  3.938574  0  0  -0.156196  0  3.961002  0  0  -0.086232  -0.145518  0  3.923505  0
C  C55  1  0.57215204  0.88230125  0.41811952  1  0  -0.134473  0  3.69845  0  0  -0.14974  0  3.938505  0  0  -0.15617  0  3.960929  0  0  -0.086251  -0.145487  0  3.923435  0
C  C56  1  0.98006311  0.54595675  0.35794415  1  0  -0.049302  0  3.722029  0  0  -0.072173  0  3.972282  0  0  -0.070801  0  3.994997  0  0  -0.074911  -0.07275  0  3.956475  0
C  C57  1  0.51994590  0.04596500  0.64205821  1  0  -0.049144  0  3.722012  0  0  -0.072035  0  3.972219  0  0  -0.070671  0  3.994942  0  0  -0.074926  -0.072615  0  3.956413  0
C  C58  1  0.01994438  0.45403742  0.64205705  1  0  -0.049337  0  3.72202  0  0  -0.072194  0  3.972246  0  0  -0.070829  0  3.994975  0  0  -0.074926  -0.072774  0  3.956443  0
C  C59  1  0.48004908  0.95403800  0.35794069  1  0  -0.049263  0  3.721901  0  0  -0.072126  0  3.972124  0  0  -0.070762  0  3.99485  0  0  -0.074942  -0.072707  0  3.956325  0
C  C60  1  0.80568181  0.39954900  0.21530984  1  0  0.039936  0  3.719257  0  0  0.025653  0  3.971255  0  0  0.037077  0  3.985217  0  0  0.03175  0.018252  0  3.961609  0
C  C61  1  0.69431212  0.89955626  0.78468954  1  0  0.039975  0  3.719286  0  0  0.025753  0  3.971223  0  0  0.037184  0  3.985182  0  0  0.03173  0.018346  0  3.961591  0
C  C62  1  0.19431202  0.60044517  0.78469018  1  0  0.039886  0  3.719234  0  0  0.025782  0  3.971125  0  0  0.037206  0  3.985078  0  0  0.031797  0.018365  0  3.961506  0
C  C63  1  0.30568399  0.10044281  0.21531006  1  0  0.039888  0  3.719189  0  0  0.025727  0  3.971117  0  0  0.037147  0  3.985052  0  0  0.03175  0.018306  0  3.961514  0
C  C64  1  0.88852616  0.38580969  0.14869252  1  0  -0.17835  0  3.946917  0  0  -0.16197  0  4.191229  0  0  -0.17559  0  4.21088  0  0  -0.027628  -0.15321  0  4.178376  0
C  C65  1  0.61147334  0.88581847  0.85130726  1  0  -0.17855  0  3.947137  0  0  -0.162084  0  4.19129  0  0  -0.175734  0  4.211024  0  0  -0.027611  -0.153334  0  4.178455  0
C  C66  1  0.11147108  0.61418644  0.85130840  1  0  -0.178411  0  3.947028  0  0  -0.162134  0  4.191392  0  0  -0.175763  0  4.211086  0  0  -0.027667  -0.153364  0  4.178535  0
C  C67  1  0.38852166  0.11418551  0.14868919  1  0  -0.178389  0  3.946825  0  0  -0.162092  0  4.191186  0  0  -0.175708  0  4.210875  0  0  -0.02765  -0.153341  0  4.178357  0
C  C68  1  0.94530081  0.49873864  0.11381526  1  0  0.306661  0  3.86151  0  0  0.290415  0  4.132798  0  0  0.303401  0  4.152656  0  0  0.185255  0.281587  0  4.120123  0
C  C69  1  0.55469396  0.99874958  0.88618659  1  0  0.306648  0  3.861498  0  0  0.290373  0  4.132777  0  0  0.303358  0  4.152632  0  0  0.185329  0.28155  0  4.120105  0
C  C70  1  0.05469866  0.50125553  0.88618952  1  0  0.306629  0  3.861603  0  0  0.290405  0  4.132919  0  0  0.303384  0  4.152781  0  0  0.185344  0.281578  0  4.12025  0
C  C71  1  0.44529990  0.00125145  0.11381037  1  0  0.30656  0  3.861465  0  0  0.290336  0  4.13279  0  0  0.303307  0  4.152634  0  0  0.185311  0.281514  0  4.120126  0
C  C72  1  0.91774845  0.26775219  0.10893869  1  0  0.306309  0  3.851265  0  0  0.291913  0  4.120725  0  0  0.305661  0  4.139461  0  0  0.184887  0.282717  0  4.108629  0
C  C73  1  0.58225230  0.76775355  0.89105932  1  0  0.306536  0  3.851371  0  0  0.292118  0  4.120782  0  0  0.305864  0  4.139517  0  0  0.18494  0.28292  0  4.1087  0
C  C74  1  0.08224993  0.73224590  0.89106172  1  0  0.306398  0  3.851221  0  0  0.292027  0  4.120688  0  0  0.305772  0  4.139427  0  0  0.184892  0.28283  0  4.108607  0
C  C75  1  0.41774725  0.23224749  0.10893814  1  0  0.306406  0  3.851531  0  0  0.292036  0  4.120993  0  0  0.305769  0  4.13971  0  0  0.184905  0.282842  0  4.108912  0
C  C76  1  0.74530989  0.30034542  0.25949536  1  0  -0.140295  0  3.946899  0  0  -0.125481  0  4.191406  0  0  -0.136417  0  4.209927  0  0  -0.018682  -0.118276  0  4.178805  0
C  C77  1  0.75468314  0.80034745  0.74050583  1  0  -0.140224  0  3.946522  0  0  -0.125473  0  4.191094  0  0  -0.136414  0  4.209612  0  0  -0.018719  -0.118258  0  4.178483  0
C  C78  1  0.25468619  0.69965169  0.74050729  1  0  -0.140205  0  3.94666  0  0  -0.125519  0  4.191274  0  0  -0.136457  0  4.209796  0  0  -0.018735  -0.118299  0  4.178662  0
C  C79  1  0.24531525  0.19965064  0.25949336  1  0  -0.140137  0  3.946614  0  0  -0.125392  0  4.191168  0  0  -0.136324  0  4.209684  0  0  -0.018699  -0.118174  0  4.178566  0
C  C80  1  0.76032219  0.16515667  0.24328216  1  0  0.294239  0  3.811682  0  0  0.279407  0  4.082946  0  0  0.29124  0  4.101586  0  0  0.184218  0.271379  0  4.07055  0
C  C81  1  0.73967078  0.66515494  0.75671888  1  0  0.294146  0  3.811677  0  0  0.279326  0  4.082975  0  0  0.291161  0  4.10161  0  0  0.184181  0.271294  0  4.070578  0
C  C82  1  0.23967164  0.83484044  0.75671786  1  0  0.294128  0  3.811584  0  0  0.279318  0  4.082892  0  0  0.291152  0  4.101532  0  0  0.184163  0.271287  0  4.070496  0
C  C83  1  0.26032986  0.33484217  0.24328234  1  0  0.294093  0  3.811911  0  0  0.279262  0  4.083213  0  0  0.291093  0  4.101859  0  0  0.18417  0.271232  0  4.070818  0
C  C84  1  0.66152315  0.33183592  0.32383145  1  0  0.265914  0  3.821518  0  0  0.249985  0  4.09628  0  0  0.260541  0  4.115626  0  0  0.178012  0.242967  0  4.083064  0
C  C85  1  0.83847813  0.83183647  0.67617002  1  0  0.265767  0  3.821703  0  0  0.249853  0  4.096481  0  0  0.260408  0  4.11583  0  0  0.178023  0.242833  0  4.083266  0
C  C86  1  0.33847636  0.66816119  0.67617028  1  0  0.265801  0  3.821429  0  0  0.249907  0  4.096216  0  0  0.260461  0  4.115564  0  0  0.178029  0.242885  0  4.082999  0
C  C87  1  0.16152026  0.16816260  0.32382917  1  0  0.265765  0  3.821681  0  0  0.249852  0  4.09647  0  0  0.260402  0  4.115819  0  0  0.178041  0.242832  0  4.083254  0
C  C88  1  0.15732070  0.83282874  0.48746120  1  0  -0.362186  0  3.71705  0  0  -0.442752  0  3.950255  0  0  -0.445361  0  3.959577  0  0  -0.2464  -0.440613  0  3.943648  0
C  C89  1  0.34268533  0.33282993  0.51253998  1  0  -0.362284  0  3.717031  0  0  -0.442833  0  3.9503  0  0  -0.445425  0  3.959632  0  0  -0.246449  -0.440697  0  3.943696  0
C  C90  1  0.84268338  0.16717523  0.51253909  1  0  -0.362234  0  3.717124  0  0  -0.442826  0  3.950314  0  0  -0.445439  0  3.959635  0  0  -0.246388  -0.440686  0  3.943707  0
C  C91  1  0.65731762  0.66717699  0.48745899  1  0  -0.362284  0  3.716997  0  0  -0.442871  0  3.950283  0  0  -0.445476  0  3.959608  0  0  -0.246455  -0.440729  0  3.943671  0
N  N92  1  0.99223565  0.59171661  0.08383754  1  0  -0.519094  0  2.675731  0  0  -0.492965  0  2.920177  0  0  -0.506064  0  2.932063  0  0  -0.481551  -0.484266  0  2.91271  0
N  N93  1  0.50776464  0.09172192  0.91616432  1  0  -0.518981  0  2.67577  0  0  -0.492866  0  2.920267  0  0  -0.505957  0  2.93213  0  0  -0.481598  -0.484163  0  2.91278  0
N  N94  1  0.00777518  0.40828050  0.91617005  1  0  -0.519001  0  2.67586  0  0  -0.492882  0  2.920326  0  0  -0.505975  0  2.932199  0  0  -0.481588  -0.484182  0  2.912845  0
N  N95  1  0.49223033  0.90827715  0.08383519  1  0  -0.51892  0  2.675792  0  0  -0.492793  0  2.920249  0  0  -0.50589  0  2.932134  0  0  -0.481545  -0.484099  0  2.912784  0
N  N96  1  0.94416421  0.17558792  0.07057205  1  0  -0.519248  0  2.65705  0  0  -0.496097  0  2.899782  0  0  -0.50874  0  2.910398  0  0  -0.453097  -0.487636  0  2.892835  0
N  N97  1  0.55584597  0.67559068  0.92942747  1  0  -0.519393  0  2.657178  0  0  -0.49625  0  2.899924  0  0  -0.508886  0  2.910523  0  0  -0.453155  -0.487785  0  2.892972  0
N  N98  1  0.05584209  0.82440919  0.92943331  1  0  -0.519321  0  2.656974  0  0  -0.496153  0  2.899662  0  0  -0.508798  0  2.910282  0  0  -0.453101  -0.487697  0  2.892726  0
N  N99  1  0.44415817  0.32440643  0.07056794  1  0  -0.519349  0  2.65727  0  0  -0.496194  0  2.899989  0  0  -0.508831  0  2.910592  0  0  -0.45314  -0.48773  0  2.893033  0
N  N100  1  0.77083341  0.05286111  0.23037451  1  0  -0.441206  0  2.619312  0  0  -0.417134  0  2.857206  0  0  -0.428881  0  2.870603  0  0  -0.378628  -0.409412  0  2.848591  0
N  N101  1  0.72916542  0.55286343  0.76962518  1  0  -0.44115  0  2.619411  0  0  -0.41708  0  2.857324  0  0  -0.42882  0  2.870708  0  0  -0.378613  -0.409352  0  2.848694  0
N  N102  1  0.22916270  0.94713698  0.76962510  1  0  -0.441143  0  2.619255  0  0  -0.417065  0  2.857143  0  0  -0.428811  0  2.870537  0  0  -0.378589  -0.409344  0  2.848531  0
N  N103  1  0.27083976  0.44713368  0.23037826  1  0  -0.441115  0  2.619645  0  0  -0.417034  0  2.857544  0  0  -0.428783  0  2.870949  0  0  -0.378593  -0.409315  0  2.848933  0
N  N104  1  0.59208553  0.35554919  0.37738341  1  0  -0.398693  0  2.602336  0  0  -0.372014  0  2.827642  0  0  -0.381614  0  2.840206  0  0  -0.296609  -0.365617  0  2.819234  0
N  N105  1  0.90791135  0.85555227  0.62262209  1  0  -0.398561  0  2.60259  0  0  -0.371891  0  2.827907  0  0  -0.381489  0  2.840472  0  0  -0.296604  -0.365494  0  2.8195  0
N  N106  1  0.40791399  0.64445283  0.62261649  1  0  -0.398594  0  2.602303  0  0  -0.371917  0  2.827594  0  0  -0.381516  0  2.840158  0  0  -0.296579  -0.365522  0  2.819187  0
N  N107  1  0.09208819  0.14444289  0.37737658  1  0  -0.398569  0  2.602561  0  0  -0.371908  0  2.827897  0  0  -0.381505  0  2.840462  0  0  -0.296615  -0.365512  0  2.81949  0
O  O108  1  0.66447252  0.59412911  0.18891690  1  0  -0.501983  0  1.953068  0  0  -0.460527  0  2.166254  0  0  -0.478076  0  2.162962  0  0  -0.32519  -0.447957  0  2.168034  0
O  O109  1  0.83552781  0.09413265  0.81108375  1  0  -0.501899  0  1.952922  0  0  -0.460422  0  2.16617  0  0  -0.47796  0  2.162877  0  0  -0.325141  -0.447853  0  2.167962  0
O  O110  1  0.33551786  0.40586898  0.81108526  1  0  -0.501977  0  1.953057  0  0  -0.460504  0  2.166314  0  0  -0.478038  0  2.162989  0  0  -0.325194  -0.447929  0  2.16809  0
O  O111  1  0.16447861  0.90586152  0.18891124  1  0  -0.50196  0  1.952935  0  0  -0.460489  0  2.166165  0  0  -0.478033  0  2.162878  0  0  -0.325169  -0.447918  0  2.167939  0
