# generated using pymatgen
data_ZnH30C28(NO)4
_symmetry_space_group_name_H-M   'P 1'
_cell_length_a   11.20984938
_cell_length_b   15.11130612
_cell_length_c   16.22476030
_cell_angle_alpha   89.99997605
_cell_angle_beta   90.00011057
_cell_angle_gamma   94.43016431
_symmetry_Int_Tables_number   1
_chemical_formula_structural   ZnH30C28(NO)4
_chemical_formula_sum   'Zn4 H120 C112 N16 O16'
_cell_volume   2740.18921742
_cell_formula_units_Z   4
loop_
 _symmetry_equiv_pos_site_id
 _symmetry_equiv_pos_as_xyz
  1  'x, y, z'
loop_
 _atom_site_type_symbol
 _atom_site_label
 _atom_site_symmetry_multiplicity
 _atom_site_fract_x
 _atom_site_fract_y
 _atom_site_fract_z
 _atom_site_occupancy
 _atom_site_pbe_bader_charge
 _atom_site_pbe_bader_spin_density
 _atom_site_pbe_cm5_charge
 _atom_site_pbe_ddec_charge
 _atom_site_pbe_ddec_spin_density
 _atom_site_pbe_ddec_sum_bond_order
 _atom_site_pbe_magmom
Zn  Zn0  1  0.64945154  0.43326207  0.53467759  1  1.272631  0  0.701919  0.828008  0  2.371649  0
Zn  Zn1  1  0.35054821  0.06673481  0.03467562  1  1.272801  0  0.701917  0.827991  0  2.37164  0
Zn  Zn2  1  0.35055196  0.56673838  0.46532349  1  1.272833  0  0.70192  0.828001  0  2.371629  0
Zn  Zn3  1  0.64945148  0.93326294  0.96532114  1  1.272663  0  0.701898  0.828049  0  2.371636  0
H  H4  1  0.80492497  0.49382560  0.69047043  1  0.113782  0  0.114396  0.104863  0  1.026839  0
H  H5  1  0.19507443  0.00617256  0.19046951  1  0.113768  0  0.114401  0.104889  0  1.026796  0
H  H6  1  0.19507769  0.50617550  0.30953126  1  0.113891  0  0.114403  0.104872  0  1.02683  0
H  H7  1  0.80492258  0.99382517  0.80952664  1  0.113833  0  0.114436  0.104927  0  1.026828  0
H  H8  1  0.72234722  0.46876478  0.85102129  1  0.089912  0  0.12356  0.129137  0  1.010625  0
H  H9  1  0.27765106  0.03123596  0.35102047  1  0.089921  0  0.123578  0.129125  0  1.010656  0
H  H10  1  0.27765287  0.53123762  0.14897979  1  0.089953  0  0.123575  0.129073  0  1.010745  0
H  H11  1  0.72234244  0.96876240  0.64897629  1  0.089889  0  0.123582  0.129063  0  1.010803  0
H  H12  1  0.34832993  0.41798625  0.68393383  1  0.083562  0  0.106699  0.165698  0  0.978184  0
H  H13  1  0.65166956  0.08201324  0.18393411  1  0.083552  0  0.106698  0.16571  0  0.978157  0
H  H14  1  0.65167356  0.58201420  0.31606663  1  0.084115  0  0.106731  0.165754  0  0.978231  0
H  H15  1  0.34832852  0.91798650  0.81606697  1  0.084148  0  0.106692  0.165685  0  0.978184  0
H  H16  1  0.38646523  0.30737382  0.70397855  1  0.033844  0  0.098934  0.145245  0  0.990874  0
H  H17  1  0.61353432  0.19262566  0.20397997  1  0.033822  0  0.09894  0.14523  0  0.990888  0
H  H18  1  0.61353636  0.69262528  0.29602191  1  0.03385  0  0.098938  0.145293  0  0.990834  0
H  H19  1  0.38646198  0.80737406  0.79602234  1  0.033844  0  0.098926  0.145231  0  0.990878  0
H  H20  1  0.42072418  0.35975537  0.60748715  1  0.149383  0  0.106672  0.174353  0  1.02031  0
H  H21  1  0.57927511  0.14024414  0.10748731  1  0.149388  0  0.106641  0.174299  0  1.020335  0
H  H22  1  0.57927658  0.64024439  0.39251269  1  0.149388  0  0.106663  0.174339  0  1.020304  0
H  H23  1  0.42072476  0.85975561  0.89251315  1  0.149379  0  0.106659  0.174323  0  1.020326  0
H  H24  1  0.50819935  0.31855028  0.87215800  1  0.084607  0  0.1098  0.091866  0  1.015798  0
H  H25  1  0.49179804  0.18144979  0.37215926  1  0.084509  0  0.10982  0.091911  0  1.015741  0
H  H26  1  0.49179974  0.68145079  0.12784122  1  0.084577  0  0.109815  0.091894  0  1.015791  0
H  H27  1  0.50819713  0.81854726  0.62784120  1  0.08454  0  0.109812  0.091899  0  1.015752  0
H  H28  1  0.39470271  0.38081493  0.83300787  1  0.085389  0  0.117551  0.100166  0  0.993042  0
H  H29  1  0.60529469  0.11918648  0.33300807  1  0.08546  0  0.117567  0.100225  0  0.993  0
H  H30  1  0.60529738  0.61918748  0.16699197  1  0.085412  0  0.117566  0.100184  0  0.992986  0
H  H31  1  0.39470054  0.88081123  0.66699177  1  0.085519  0  0.117547  0.100172  0  0.992975  0
H  H32  1  0.75083579  0.38151695  0.00828530  1  0.046357  0  0.090588  0.131716  0  1.011755  0
H  H33  1  0.24916523  0.11848526  0.50828747  1  0.046353  0  0.090587  0.131712  0  1.011714  0
H  H34  1  0.24916324  0.61848345  0.99171393  1  0.046338  0  0.090596  0.131731  0  1.011731  0
H  H35  1  0.75083385  0.88151581  0.49171546  1  0.046381  0  0.09058  0.13171  0  1.011755  0
H  H36  1  0.66852835  0.33040554  0.92667108  1  0.026664  0  0.087912  0.121834  0  1.04748  0
H  H37  1  0.33147204  0.16959653  0.42667336  1  0.026639  0  0.087953  0.121858  0  1.047471  0
H  H38  1  0.33147157  0.66959487  0.07332876  1  0.026661  0  0.087917  0.121836  0  1.047482  0
H  H39  1  0.66852609  0.83040387  0.57332956  1  0.026563  0  0.087927  0.121857  0  1.047462  0
H  H40  1  0.63572618  0.29955796  0.02906335  1  0.063896  0  0.095028  0.142318  0  1.0063  0
H  H41  1  0.36427562  0.20044226  0.52906626  1  0.063836  0  0.094998  0.142266  0  1.006352  0
H  H42  1  0.36427369  0.70044179  0.97093587  1  0.063898  0  0.095023  0.142322  0  1.006297  0
H  H43  1  0.63572591  0.79955618  0.47093666  1  0.063887  0  0.095016  0.142314  0  1.006327  0
H  H44  1  0.25924956  0.49808372  0.86364982  1  0.041498  0  0.088635  0.120433  0  1.022447  0
H  H45  1  0.74074959  0.00191637  0.36365024  1  0.041512  0  0.088622  0.120406  0  1.022459  0
H  H46  1  0.74075209  0.50191605  0.13635064  1  0.041477  0  0.088632  0.120431  0  1.022366  0
H  H47  1  0.25924754  0.99808269  0.63635083  1  0.041453  0  0.08865  0.120435  0  1.022337  0
H  H48  1  0.38727455  0.52655735  0.80193743  1  0.065721  0  0.095119  0.13584  0  1.026259  0
H  H49  1  0.61272475  0.97344266  0.30193874  1  0.06573  0  0.095128  0.135839  0  1.026285  0
H  H50  1  0.61272543  0.47344373  0.19806180  1  0.065711  0  0.095129  0.135852  0  1.026265  0
H  H51  1  0.38727411  0.02655576  0.69806172  1  0.065717  0  0.095119  0.135846  0  1.026262  0
H  H52  1  0.32436525  0.60810219  0.86183656  1  0.039002  0  0.09614  0.137554  0  1.001414  0
H  H53  1  0.67563416  0.89189713  0.36183675  1  0.038986  0  0.096131  0.137543  0  1.001428  0
H  H54  1  0.67563372  0.39189755  0.13816390  1  0.038995  0  0.096127  0.137533  0  1.001446  0
H  H55  1  0.32436386  0.10810194  0.63816371  1  0.039007  0  0.09615  0.137561  0  1.001397  0
H  H56  1  0.58528846  0.22501445  0.50657239  1  0.063065  0  0.118241  0.114509  0  1.02335  0
H  H57  1  0.41471328  0.27498578  0.00657844  1  0.063129  0  0.118247  0.114542  0  1.023317  0
H  H58  1  0.41471325  0.77498598  0.49342129  1  0.063125  0  0.11824  0.114539  0  1.02333  0
H  H59  1  0.58528480  0.72501395  0.99342202  1  0.063093  0  0.118232  0.11452  0  1.02333  0
H  H60  1  0.75999241  0.10407094  0.50312348  1  0.136063  0  0.12028  0.120876  0  1.034864  0
H  H61  1  0.24001015  0.39592864  0.00313110  1  0.136297  0  0.120303  0.120816  0  1.034885  0
H  H62  1  0.24001024  0.89593017  0.49686896  1  0.136244  0  0.120287  0.120823  0  1.034884  0
H  H63  1  0.75998781  0.60406976  0.99686997  1  0.13625  0  0.120281  0.120821  0  1.034889  0
H  H64  1  0.90626598  0.44747775  0.54547052  1  0.105228  0  0.102621  0.157765  0  1.022562  0
H  H65  1  0.09373581  0.05252181  0.04546760  1  0.105243  0  0.102608  0.157748  0  1.022561  0
H  H66  1  0.09373578  0.55252335  0.45453302  1  0.105266  0  0.102607  0.157746  0  1.022587  0
H  H67  1  0.90626305  0.94747661  0.95453286  1  0.105259  0  0.102609  0.157733  0  1.022619  0
H  H68  1  0.00859687  0.39141307  0.48534085  1  0.052281  0  0.102268  0.152958  0  0.998172  0
H  H69  1  0.99140631  0.10858835  0.98533785  1  0.052282  0  0.102279  0.152975  0  0.998179  0
H  H70  1  0.99140490  0.60858803  0.51466269  1  0.052265  0  0.102261  0.152956  0  0.998178  0
H  H71  1  0.00859267  0.89141139  0.01466261  1  0.052283  0  0.102243  0.152966  0  0.998098  0
H  H72  1  0.00686519  0.37469009  0.59215044  1  0.086816  0  0.102832  0.154346  0  0.983494  0
H  H73  1  0.99313299  0.12530743  0.09214746  1  0.086906  0  0.102814  0.15432  0  0.983488  0
H  H74  1  0.99313272  0.62530766  0.40785249  1  0.086915  0  0.10281  0.154311  0  0.983487  0
H  H75  1  0.00686598  0.87469231  0.90785239  1  0.086844  0  0.102822  0.154335  0  0.983461  0
H  H76  1  0.03905978  0.21077283  0.57950069  1  0.076069  0  0.117707  0.108525  0  0.979129  0
H  H77  1  0.96093960  0.28922868  0.07950068  1  0.076052  0  0.117683  0.108499  0  0.979071  0
H  H78  1  0.96093842  0.78922823  0.42049915  1  0.076071  0  0.117676  0.108492  0  0.979072  0
H  H79  1  0.03905943  0.71077173  0.92049916  1  0.076094  0  0.117695  0.108516  0  0.979073  0
H  H80  1  0.04993176  0.22468559  0.47357062  1  0.091649  0  0.112423  0.096312  0  1.020089  0
H  H81  1  0.95007222  0.27531517  0.97357059  1  0.091665  0  0.112405  0.096293  0  1.020111  0
H  H82  1  0.95006995  0.77531484  0.52642983  1  0.091644  0  0.112397  0.096272  0  1.020116  0
H  H83  1  0.04992854  0.72468459  0.02642987  1  0.091653  0  0.112417  0.096318  0  1.020128  0
H  H84  1  0.06703745  0.12654897  0.32388832  1  0.062876  0  0.091189  0.125137  0  1.030057  0
H  H85  1  0.93295969  0.37344978  0.82388884  1  0.062754  0  0.091172  0.125106  0  1.030042  0
H  H86  1  0.93295795  0.87345074  0.67611214  1  0.062738  0  0.091231  0.125257  0  1.030025  0
H  H87  1  0.06704179  0.62654799  0.17611162  1  0.062755  0  0.091231  0.125244  0  1.030002  0
H  H88  1  0.94620418  0.17699807  0.37027479  1  0.037262  0  0.091807  0.126904  0  1.018868  0
H  H89  1  0.05379321  0.32300199  0.87027477  1  0.037337  0  0.091779  0.126875  0  1.01891  0
H  H90  1  0.05379223  0.82300297  0.62972444  1  0.037318  0  0.091775  0.126919  0  1.018845  0
H  H91  1  0.94620743  0.67699644  0.12972507  1  0.037318  0  0.091797  0.126956  0  1.018881  0
H  H92  1  0.91838292  0.08082498  0.30971796  1  0.020668  0  0.095102  0.132718  0  1.000541  0
H  H93  1  0.08161418  0.41917378  0.80971733  1  0.020689  0  0.095114  0.132734  0  1.000499  0
H  H94  1  0.08161253  0.91917539  0.69028188  1  0.020883  0  0.095127  0.132791  0  1.000477  0
H  H95  1  0.91838629  0.58082266  0.19028128  1  0.020864  0  0.095107  0.132779  0  1.00046  0
H  H96  1  0.07117135  0.87358463  0.33202266  1  0.055489  0  0.089986  0.122062  0  1.048202  0
H  H97  1  0.92882989  0.62641605  0.83202142  1  0.055593  0  0.089983  0.122069  0  1.048218  0
H  H98  1  0.92883048  0.12641712  0.66797965  1  0.055581  0  0.089988  0.122097  0  1.048232  0
H  H99  1  0.07117634  0.37358509  0.16797780  1  0.055605  0  0.089988  0.1221  0  1.048183  0
H  H100  1  0.03121674  0.97354406  0.28835540  1  0.015701  0  0.09365  0.132879  0  1.01559  0
H  H101  1  0.96878442  0.52645730  0.78835364  1  0.015695  0  0.093651  0.132886  0  1.015613  0
H  H102  1  0.96878419  0.02645769  0.71164629  1  0.015718  0  0.093645  0.132861  0  1.015614  0
H  H103  1  0.03122276  0.47354451  0.21164620  1  0.015663  0  0.093679  0.132881  0  1.015622  0
H  H104  1  0.91822959  0.89091375  0.31596628  1  0.038838  0  0.098412  0.139167  0  0.980662  0
H  H105  1  0.08177154  0.60908628  0.81596700  1  0.03883  0  0.098428  0.139209  0  0.980656  0
H  H106  1  0.08177212  0.10908669  0.68403294  1  0.038832  0  0.098429  0.139204  0  0.980664  0
H  H107  1  0.91823559  0.39091487  0.18403407  1  0.038895  0  0.09838  0.139188  0  0.980596  0
H  H108  1  0.49678374  0.32397269  0.25272881  1  0.105898  0  0.101544  0.103785  0  1.018808  0
H  H109  1  0.50321511  0.17602743  0.75272822  1  0.105861  0  0.101561  0.103775  0  1.018809  0
H  H110  1  0.50321880  0.67602708  0.74727288  1  0.105903  0  0.101545  0.103772  0  1.018864  0
H  H111  1  0.49678392  0.82397298  0.24726916  1  0.105883  0  0.101543  0.103784  0  1.018862  0
H  H112  1  0.32091562  0.25705740  0.17239655  1  0.088361  0  0.093742  0.093251  0  1.047916  0
H  H113  1  0.67908128  0.24294339  0.67239555  1  0.088522  0  0.093739  0.093247  0  1.047946  0
H  H114  1  0.67908168  0.74294365  0.82760576  1  0.088297  0  0.09381  0.093336  0  1.047981  0
H  H115  1  0.32091876  0.75705835  0.32760368  1  0.088566  0  0.093748  0.093256  0  1.047934  0
H  H116  1  0.11772100  0.25227873  0.23582724  1  0.050973  0  0.09841  0.093211  0  1.004869  0
H  H117  1  0.88227564  0.24772734  0.73582528  1  0.051066  0  0.098396  0.09314  0  1.004979  0
H  H118  1  0.88227743  0.74772498  0.76417630  1  0.05095  0  0.098399  0.093138  0  1.004943  0
H  H119  1  0.11772295  0.75227837  0.26417210  1  0.051096  0  0.098401  0.093198  0  1.004861  0
H  H120  1  0.09160721  0.31382921  0.37512973  1  0.050912  0  0.096325  0.090303  0  1.028103  0
H  H121  1  0.90839417  0.18617554  0.87512783  1  0.050894  0  0.096334  0.09029  0  1.028127  0
H  H122  1  0.90839378  0.68617321  0.62487442  1  0.050882  0  0.096357  0.090387  0  1.028013  0
H  H123  1  0.09160855  0.81382623  0.12486893  1  0.050894  0  0.096332  0.090302  0  1.028182  0
C  C124  1  0.71984650  0.46469246  0.71289721  1  0.278979  0  -0.009587  -0.041349  0  4.069569  0
C  C125  1  0.28015302  0.03530635  0.21289578  1  0.279018  0  -0.009603  -0.041402  0  4.069497  0
C  C126  1  0.28015538  0.53530996  0.28710325  1  0.278747  0  -0.009608  -0.041403  0  4.069647  0
C  C127  1  0.71984590  0.96469272  0.78709975  1  0.278409  0  -0.009629  -0.041374  0  4.069383  0
C  C128  1  0.68035392  0.45322652  0.79222656  1  0.427058  0  -0.00256  -0.105595  0  3.945677  0
C  C129  1  0.31964420  0.04677425  0.29222579  1  0.427064  0  -0.002601  -0.105549  0  3.945645  0
C  C130  1  0.31964868  0.54677392  0.20777390  1  0.427274  0  -0.002639  -0.105557  0  3.945865  0
C  C131  1  0.68034768  0.95322609  0.70776913  1  0.427658  0  -0.002542  -0.10549  0  3.945591  0
C  C132  1  0.53477389  0.40622256  0.70529514  1  0.969615  0  0.225173  0.351661  0  3.930471  0
C  C133  1  0.46522477  0.09377691  0.20529516  1  0.9699  0  0.225158  0.35172  0  3.930464  0
C  C134  1  0.46522698  0.59377853  0.29470532  1  0.96981  0  0.225258  0.351795  0  3.930457  0
C  C135  1  0.53477409  0.90622150  0.79470345  1  0.969663  0  0.22521  0.351873  0  3.930387  0
C  C136  1  0.41658264  0.37043439  0.67409029  1  -0.052016  0  -0.234218  -0.484036  0  3.937684  0
C  C137  1  0.58341789  0.12956710  0.17409107  1  -0.05199  0  -0.234163  -0.48397  0  3.937636  0
C  C138  1  0.58342074  0.62956473  0.32590955  1  -0.052606  0  -0.23426  -0.484193  0  3.937768  0
C  C139  1  0.41658215  0.87043464  0.82591000  1  -0.052583  0  -0.234177  -0.484011  0  3.937661  0
C  C140  1  0.48694890  0.38605185  0.85577191  1  0.260476  0  -0.050004  -0.099147  0  3.91458  0
C  C141  1  0.51304844  0.11394823  0.35577199  1  0.260575  0  -0.050047  -0.0993  0  3.914682  0
C  C142  1  0.51305108  0.61394923  0.14422793  1  0.26048  0  -0.05004  -0.099202  0  3.914593  0
C  C143  1  0.48694578  0.88604815  0.64422785  1  0.260362  0  -0.050009  -0.099217  0  3.914501  0
C  C144  1  0.49768918  0.44687139  0.92963802  1  -0.010796  0  -0.021189  -0.038803  0  3.957258  0
C  C145  1  0.50230926  0.05312867  0.42963872  1  -0.010823  0  -0.0212  -0.03879  0  3.95721  0
C  C146  1  0.50231258  0.55312970  0.07036121  1  -0.010827  0  -0.02119  -0.038822  0  3.957353  0
C  C147  1  0.49768318  0.94686770  0.57036050  1  -0.010734  0  -0.02128  -0.038834  0  3.957346  0
C  C148  1  0.57552486  0.42906269  0.99478480  1  -0.03393  0  -0.019509  0.048185  0  3.967921  0
C  C149  1  0.42447376  0.07093735  0.49478539  1  -0.033962  0  -0.01945  0.04831  0  3.967753  0
C  C150  1  0.42447596  0.57093773  0.00521504  1  -0.033443  0  -0.019528  0.048161  0  3.967999  0
C  C151  1  0.57552253  0.92906236  0.50521507  1  -0.033155  0  -0.019462  0.048278  0  3.967887  0
C  C152  1  0.66042256  0.35674601  0.98901652  1  -0.055402  0  -0.247934  -0.420004  0  3.979122  0
C  C153  1  0.33957884  0.14325539  0.48901821  1  -0.055389  0  -0.247975  -0.420022  0  3.979172  0
C  C154  1  0.33957825  0.64325442  0.01098332  1  -0.055433  0  -0.247926  -0.420008  0  3.979122  0
C  C155  1  0.66041924  0.85674434  0.51098410  1  -0.055707  0  -0.247925  -0.420034  0  3.979118  0
C  C156  1  0.42429711  0.51831429  0.93346790  1  -0.039498  0  -0.017169  0.058036  0  3.947987  0
C  C157  1  0.57570161  0.98168500  0.43346731  1  -0.039575  0  -0.017173  0.057969  0  3.947946  0
C  C158  1  0.57570460  0.48168614  0.06653255  1  -0.038966  0  -0.017166  0.058026  0  3.947964  0
C  C159  1  0.42429451  0.01831272  0.56653315  1  -0.039207  0  -0.017145  0.05801  0  3.94789  0
C  C160  1  0.34542531  0.53850794  0.86158389  1  -0.091618  0  -0.24131  -0.407737  0  3.955778  0
C  C161  1  0.65457410  0.96149138  0.36158464  1  -0.091549  0  -0.241282  -0.407668  0  3.955812  0
C  C162  1  0.65457545  0.46149181  0.13841657  1  -0.091618  0  -0.241294  -0.407702  0  3.955699  0
C  C163  1  0.34542386  0.03850702  0.63841643  1  -0.091317  0  -0.241354  -0.407775  0  3.955685  0
C  C164  1  0.68157181  0.23602386  0.51159379  1  0.424831  0  -0.005648  -0.03346  0  4.030714  0
C  C165  1  0.31842810  0.26397568  0.01159602  1  0.424212  0  -0.005674  -0.03354  0  4.030831  0
C  C166  1  0.31842728  0.76397720  0.48840420  1  0.42476  0  -0.00565  -0.033534  0  4.030839  0
C  C167  1  0.68157081  0.73602339  0.98840444  1  0.424762  0  -0.005599  -0.033416  0  4.030697  0
C  C168  1  0.76670734  0.17552227  0.50994638  1  0.299513  0  -0.005438  -0.115644  0  3.951425  0
C  C169  1  0.23329603  0.32447599  0.00995032  1  0.299859  0  -0.005494  -0.115644  0  3.951629  0
C  C170  1  0.23329437  0.82447816  0.49005038  1  0.299308  0  -0.005487  -0.11563  0  3.951644  0
C  C171  1  0.76670367  0.67552177  0.99005076  1  0.299307  0  -0.005474  -0.115629  0  3.951579  0
C  C172  1  0.85474030  0.31155424  0.52804036  1  0.990361  0  0.22046  0.342972  0  3.931056  0
C  C173  1  0.14526055  0.18844531  0.02804177  1  0.990334  0  0.220521  0.343006  0  3.930882  0
C  C174  1  0.14525968  0.68844684  0.47195886  1  0.990354  0  0.220473  0.342977  0  3.930921  0
C  C175  1  0.85473825  0.81155244  0.97195869  1  0.990427  0  0.220456  0.342955  0  3.931083  0
C  C176  1  0.94876189  0.38494777  0.53898726  1  -0.067992  0  -0.230057  -0.465429  0  3.932218  0
C  C177  1  0.05123815  0.11505243  0.03898549  1  -0.068064  0  -0.230026  -0.465379  0  3.932163  0
C  C178  1  0.05123809  0.61505330  0.46101505  1  -0.068077  0  -0.230019  -0.465362  0  3.93218  0
C  C179  1  0.94876076  0.88494665  0.96101497  1  -0.068023  0  -0.230001  -0.465362  0  3.932124  0
C  C180  1  0.99526956  0.19024944  0.52145671  1  0.283941  0  -0.050657  -0.095598  0  3.894145  0
C  C181  1  0.00473312  0.30975079  0.02145727  1  0.283798  0  -0.050653  -0.095597  0  3.894176  0
C  C182  1  0.00473126  0.80975098  0.47854313  1  0.283786  0  -0.050614  -0.09553  0  3.894072  0
C  C183  1  0.99526758  0.69024830  0.97854380  1  0.28378  0  -0.050633  -0.095591  0  3.89416  0
C  C184  1  0.99352511  0.09121251  0.51001126  1  -0.040679  0  -0.019405  -0.036289  0  3.959  0
C  C185  1  0.00647664  0.40878772  0.01001055  1  -0.040724  0  -0.019412  -0.036381  0  3.958939  0
C  C186  1  0.00647397  0.90878856  0.48999043  1  -0.040752  0  -0.019449  -0.036385  0  3.95916  0
C  C187  1  0.99352585  0.59121140  0.98998929  1  -0.040734  0  -0.019407  -0.036283  0  3.958998  0
C  C188  1  0.99180679  0.05514463  0.42989914  1  -0.065885  0  -0.016326  0.051551  0  3.959939  0
C  C189  1  0.00819344  0.44485545  0.92989779  1  -0.06608  0  -0.016308  0.051569  0  3.959834  0
C  C190  1  0.00818962  0.94485641  0.57010070  1  -0.065856  0  -0.016288  0.051625  0  3.959952  0
C  C191  1  0.99180904  0.55514366  0.07010144  1  -0.065904  0  -0.016331  0.051537  0  3.959885  0
C  C192  1  0.98026341  0.11306653  0.35497968  1  -0.068575  0  -0.242056  -0.410328  0  3.978876  0
C  C193  1  0.01973567  0.38693290  0.85497960  1  -0.068365  0  -0.242034  -0.410273  0  3.978805  0
C  C194  1  0.01973300  0.88693451  0.64501954  1  -0.068678  0  -0.242096  -0.410563  0  3.978882  0
C  C195  1  0.98026587  0.61306554  0.14501901  1  -0.068686  0  -0.24211  -0.410584  0  3.978912  0
C  C196  1  0.00052153  0.96330618  0.41990432  1  0.048967  0  -0.014976  0.056884  0  3.96042  0
C  C197  1  0.99947543  0.53669376  0.91990322  1  0.048996  0  -0.015007  0.056849  0  3.960449  0
C  C198  1  0.99947410  0.03669618  0.58009613  1  0.048875  0  -0.015004  0.056842  0  3.960352  0
C  C199  1  0.00052700  0.46330469  0.08009539  1  0.048939  0  -0.014937  0.057004  0  3.960264  0
C  C200  1  0.00529357  0.92341188  0.33496256  1  -0.069652  0  -0.242209  -0.412184  0  3.972719  0
C  C201  1  0.99470589  0.57658878  0.83496143  1  -0.069783  0  -0.24218  -0.412218  0  3.972791  0
C  C202  1  0.99470558  0.07658985  0.66503729  1  -0.069786  0  -0.242219  -0.412236  0  3.972787  0
C  C203  1  0.00529761  0.42341167  0.16503718  1  -0.069806  0  -0.242254  -0.412339  0  3.972741  0
C  C204  1  0.50624002  0.38743599  0.40241114  1  1.52887  0  0.190359  0.547717  0  4.250248  0
C  C205  1  0.49376192  0.11256411  0.90241117  1  1.52877  0  0.190346  0.547732  0  4.250213  0
C  C206  1  0.49376258  0.61256445  0.59758932  1  1.528892  0  0.190258  0.54765  0  4.250242  0
C  C207  1  0.50624040  0.88743301  0.09758990  1  1.528754  0  0.190338  0.547759  0  4.250275  0
C  C208  1  0.39404356  0.35209759  0.35896759  1  -0.002742  0  -0.021438  -0.067264  0  3.956247  0
C  C209  1  0.60595759  0.14790517  0.85896838  1  -0.002599  0  -0.021463  -0.067355  0  3.956426  0
C  C210  1  0.60595904  0.64790285  0.64103471  1  -0.002736  0  -0.02151  -0.067306  0  3.956225  0
C  C211  1  0.39404472  0.85209195  0.14103023  1  -0.00272  0  -0.021513  -0.067493  0  3.956567  0
C  C212  1  0.40679897  0.31977730  0.27863114  1  -0.068921  0  -0.087876  -0.093655  0  3.984693  0
C  C213  1  0.59319738  0.18022411  0.77863190  1  -0.069009  0  -0.087902  -0.093528  0  3.98465  0
C  C214  1  0.59319911  0.68022243  0.72137240  1  -0.069157  0  -0.087806  -0.093459  0  3.984418  0
C  C215  1  0.40680243  0.81977497  0.22136795  1  -0.068973  0  -0.087899  -0.09364  0  3.984656  0
C  C216  1  0.30910614  0.28331090  0.23405415  1  -0.074485  0  -0.102204  -0.095959  0  4.032823  0
C  C217  1  0.69089009  0.21669053  0.73405379  1  -0.074441  0  -0.10214  -0.096006  0  4.033009  0
C  C218  1  0.69089729  0.71668888  0.76594816  1  -0.07412  0  -0.102274  -0.096188  0  4.033239  0
C  C219  1  0.30910632  0.78331051  0.26594482  1  -0.074677  0  -0.102225  -0.096013  0  4.032967  0
C  C220  1  0.19548434  0.28092055  0.26961947  1  -0.050487  0  -0.095781  -0.0832  0  4.052449  0
C  C221  1  0.80451228  0.21908418  0.76961618  1  -0.050597  0  -0.095779  -0.083082  0  4.052587  0
C  C222  1  0.80451487  0.71908184  0.73038715  1  -0.05053  0  -0.095719  -0.08295  0  4.052565  0
C  C223  1  0.19548960  0.78091824  0.23038120  1  -0.050311  0  -0.095741  -0.083085  0  4.052449  0
C  C224  1  0.18116864  0.31474132  0.34856915  1  -0.089169  0  -0.09756  -0.130319  0  4.010781  0
C  C225  1  0.81883344  0.18526212  0.84856651  1  -0.089374  0  -0.09765  -0.130433  0  4.010712  0
C  C226  1  0.81883687  0.68526181  0.65143500  1  -0.089347  0  -0.097632  -0.130492  0  4.010474  0
C  C227  1  0.18116732  0.81473764  0.15142963  1  -0.08937  0  -0.097562  -0.13044  0  4.010644  0
C  C228  1  0.27948820  0.34958927  0.39507221  1  -0.014379  0  -0.006831  -0.037307  0  3.9236  0
C  C229  1  0.72051406  0.15041482  0.89507130  1  -0.014361  0  -0.006789  -0.037232  0  3.923683  0
C  C230  1  0.72051463  0.65041382  0.60493194  1  -0.014359  0  -0.006904  -0.037485  0  3.923597  0
C  C231  1  0.27948998  0.84958166  0.10492422  1  -0.014284  0  -0.006741  -0.037036  0  3.923336  0
C  C232  1  0.25143865  0.37958287  0.48182909  1  1.614016  0  0.207698  0.58663  0  4.238733  0
C  C233  1  0.74856106  0.12041983  0.98182700  1  1.613954  0  0.207709  0.586635  0  4.238694  0
C  C234  1  0.74856139  0.62041887  0.51817445  1  1.613961  0  0.207743  0.586733  0  4.238613  0
C  C235  1  0.25144315  0.87957863  0.01816668  1  1.614006  0  0.207795  0.58681  0  4.238282  0
N  N236  1  0.62900575  0.43570668  0.65948127  1  -1.226008  0  -0.358853  -0.366225  0  3.560426  0
N  N237  1  0.37099357  0.06429149  0.15947994  1  -1.226258  0  -0.358854  -0.366281  0  3.560327  0
N  N238  1  0.37099763  0.56429244  0.34051981  1  -1.226203  0  -0.358871  -0.366276  0  3.560495  0
N  N239  1  0.62900451  0.93570825  0.84051620  1  -1.225983  0  -0.358908  -0.366454  0  3.560559  0
N  N240  1  0.56369122  0.41648993  0.78656538  1  -1.216503  0  -0.240662  -0.010703  0  3.709743  0
N  N241  1  0.43630683  0.08351017  0.28656537  1  -1.216748  0  -0.240628  -0.010717  0  3.709806  0
N  N242  1  0.43631049  0.58351050  0.21343507  1  -1.216764  0  -0.240631  -0.010655  0  3.709736  0
N  N243  1  0.56368750  0.91648753  0.71343324  1  -1.216605  0  -0.240664  -0.010745  0  3.709597  0
N  N244  1  0.73712536  0.31992065  0.52277549  1  -1.231831  0  -0.354178  -0.347772  0  3.542087  0
N  N245  1  0.26287637  0.18007891  0.02277582  1  -1.231872  0  -0.354229  -0.347823  0  3.542026  0
N  N246  1  0.26287462  0.68008043  0.47722435  1  -1.231811  0  -0.354173  -0.347744  0  3.542056  0
N  N247  1  0.73712344  0.81992018  0.97722402  1  -1.23187  0  -0.354245  -0.347885  0  3.542121  0
N  N248  1  0.87555631  0.22404418  0.52030530  1  -1.211449  0  -0.241202  -0.015406  0  3.70451  0
N  N249  1  0.12444636  0.27595605  0.02030726  1  -1.211273  0  -0.241147  -0.015261  0  3.704511  0
N  N250  1  0.12444551  0.77595758  0.47969269  1  -1.211291  0  -0.241172  -0.015373  0  3.704543  0
N  N251  1  0.87555334  0.72404170  0.97969319  1  -1.211275  0  -0.241145  -0.015337  0  3.704494  0
O  O252  1  0.49443483  0.40031649  0.48160305  1  -1.160534  0  -0.329358  -0.561438  0  2.362923  0
O  O253  1  0.50556744  0.09968492  0.98160311  1  -1.160557  0  -0.329359  -0.561439  0  2.36291  0
O  O254  1  0.50556722  0.59968793  0.51839740  1  -1.160563  0  -0.329312  -0.561389  0  2.362933  0
O  O255  1  0.49444029  0.90031292  0.01839796  1  -1.160462  0  -0.329352  -0.561457  0  2.362861  0
O  O256  1  0.60179184  0.40113508  0.36357118  1  -1.171045  0  -0.33251  -0.542211  0  2.085513  0
O  O257  1  0.39820887  0.09886237  0.86357171  1  -1.17101  0  -0.332526  -0.542224  0  2.085533  0
O  O258  1  0.39821047  0.59886204  0.63642989  1  -1.171005  0  -0.332499  -0.542228  0  2.085533  0
O  O259  1  0.60179244  0.90113342  0.13642998  1  -1.171079  0  -0.332504  -0.542213  0  2.085527  0
O  O260  1  0.22283079  0.32068964  0.53329302  1  -1.162972  0  -0.316012  -0.533838  0  2.130603  0
O  O261  1  0.77717204  0.17931192  0.03329158  1  -1.162961  0  -0.316024  -0.533843  0  2.130567  0
O  O262  1  0.77716384  0.67931139  0.46670867  1  -1.162881  0  -0.315989  -0.533811  0  2.130568  0
O  O263  1  0.22283837  0.82068594  0.96670087  1  -1.163168  0  -0.316119  -0.533993  0  2.130341  0
O  O264  1  0.24395023  0.46372923  0.49509337  1  -1.184859  0  -0.348434  -0.586401  0  2.367643  0
O  O265  1  0.75605219  0.03627350  0.99509008  1  -1.184751  0  -0.348395  -0.586375  0  2.367626  0
O  O266  1  0.75605075  0.53627318  0.50491079  1  -1.184763  0  -0.348426  -0.586413  0  2.367635  0
O  O267  1  0.24395113  0.96372496  0.00490544  1  -1.184733  0  -0.348447  -0.586461  0  2.367572  0
