# generated using pymatgen
data_NiH9C9N3O4
_symmetry_space_group_name_H-M   'P 1'
_cell_length_a   6.24534792
_cell_length_b   8.08388725
_cell_length_c   24.94803288
_cell_angle_alpha   90.00434213
_cell_angle_beta   90.01027810
_cell_angle_gamma   92.56167568
_symmetry_Int_Tables_number   1
_chemical_formula_structural   NiH9C9N3O4
_chemical_formula_sum   'Ni4 H36 C36 N12 O16'
_cell_volume   1258.28486161
_cell_formula_units_Z   4
loop_
 _symmetry_equiv_pos_site_id
 _symmetry_equiv_pos_as_xyz
  1  'x, y, z'
loop_
 _atom_site_type_symbol
 _atom_site_label
 _atom_site_symmetry_multiplicity
 _atom_site_fract_x
 _atom_site_fract_y
 _atom_site_fract_z
 _atom_site_occupancy
 _atom_site_pbe_bader_charge
 _atom_site_pbe_bader_spin_density
 _atom_site_pbe_cm5_charge
 _atom_site_pbe_ddec_charge
 _atom_site_pbe_ddec_spin_density
 _atom_site_pbe_ddec_sum_bond_order
 _atom_site_pbe_magmom
Ni  Ni0  1  0.36731904  0.29986007  0.55146920  1  1.181034  1.551743  0.64935  0.81062  1.764601  2.455215  1.537
Ni  Ni1  1  0.12928169  0.21543995  0.97628338  1  1.180905  1.544805  0.653205  0.812767  1.757403  2.478992  1.53
Ni  Ni2  1  0.63272384  0.70015634  0.05136349  1  1.179918  1.551487  0.649175  0.810649  1.764073  2.455076  1.537
Ni  Ni3  1  0.87068266  0.78459827  0.47635100  1  1.180913  1.544781  0.653255  0.812606  1.75739  2.479986  1.53
H  H4  1  0.42834994  0.13769873  0.65960235  1  0.139314  0.00136  0.117927  0.095654  0.0005  1.026243  0.001
H  H5  1  0.21055726  0.09560047  0.74441889  1  0.092819  0.00083  0.1112  0.124327  0.000398  0.994541  0.0
H  H6  1  0.71454032  0.37061864  0.66861886  1  0.157679  0.00104  0.112231  0.126209  0.000607  1.040615  0.0
H  H7  1  0.94337611  0.38571847  0.58721097  1  0.125874  0.001522  0.121474  0.096643  0.000359  1.028838  0.001
H  H8  1  0.08491691  0.38605158  0.87020774  1  0.128078  0.001653  0.117814  0.098329  0.000664  1.021015  0.001
H  H9  1  0.30746431  0.42672181  0.78602053  1  0.086221  0.000932  0.111808  0.123997  0.000448  0.992606  0.0
H  H10  1  0.78412963  0.12915327  0.86000876  1  0.154998  0.000837  0.112443  0.125079  0.000461  1.037437  0.0
H  H11  1  0.54771662  0.10813630  0.94051203  1  0.14589  0.001505  0.120322  0.098571  0.000351  1.024977  0.001
H  H12  1  0.04521927  0.27699503  0.40311524  1  0.070703  0.000225  0.108369  0.133264  6e-06  0.964328  0.0
H  H13  1  0.27686536  0.16911446  0.38951237  1  0.048268  6.7e-05  0.104292  0.12433  -7.8e-05  0.981868  0.0
H  H14  1  0.39800518  0.44826520  0.40707220  1  0.043234  0.004813  0.105626  0.067884  0.002252  0.97928  0.003
H  H15  1  0.62279836  0.40868225  0.48084996  1  0.487955  -0.000144  0.296233  0.300794  8.1e-05  0.990687  0.0
H  H16  1  0.55700807  0.20722929  0.46598822  1  0.473262  0.00172  0.297732  0.29353  0.001371  0.949185  0.001
H  H17  1  0.81561652  0.96187838  0.63203256  1  0.038807  -2.1e-05  0.10162  0.122326  -0.000148  0.99209  0.0
H  H18  1  0.57182227  0.84493227  0.62743267  1  0.046401  0.000388  0.108235  0.130867  0.000113  0.965336  0.0
H  H19  1  0.89990483  0.67594677  0.62469229  1  0.070886  0.00501  0.109319  0.071215  0.002391  0.961542  0.002
H  H20  1  0.12427657  0.69660487  0.54909710  1  0.489089  0.000269  0.295953  0.299234  0.000418  0.977873  0.0
H  H21  1  0.07673423  0.90069734  0.55758125  1  0.455951  0.001001  0.295068  0.2966  0.00089  0.958777  0.0
H  H22  1  0.57167231  0.86215683  0.15952554  1  0.139864  0.001354  0.117931  0.095687  0.000497  1.026083  0.001
H  H23  1  0.78924359  0.90406808  0.24441215  1  0.094923  0.000828  0.111255  0.124271  0.000398  0.994823  0.0
H  H24  1  0.28548224  0.62933993  0.16861548  1  0.157596  0.001039  0.112224  0.126325  0.000607  1.040962  0.0
H  H25  1  0.05678049  0.61444561  0.08714922  1  0.123823  0.001519  0.121437  0.096485  0.000357  1.028934  0.001
H  H26  1  0.91510114  0.61403025  0.37027805  1  0.126955  0.001652  0.118057  0.098579  0.000663  1.021213  0.001
H  H27  1  0.69258967  0.57330790  0.28607522  1  0.087112  0.000933  0.111855  0.124419  0.000448  0.992241  0.0
H  H28  1  0.21582045  0.87078912  0.36002209  1  0.154392  0.000837  0.11244  0.125088  0.000461  1.037124  0.0
H  H29  1  0.45219240  0.89189227  0.44055358  1  0.14888  0.001503  0.120241  0.098652  0.000352  1.024823  0.001
H  H30  1  0.95459166  0.72305517  0.90300779  1  0.071358  0.000225  0.108511  0.133397  6e-06  0.964619  0.0
H  H31  1  0.72294491  0.83095575  0.88942174  1  0.046229  6.7e-05  0.104185  0.124049  -7.9e-05  0.981436  0.0
H  H32  1  0.60177234  0.55178486  0.90695766  1  0.041509  0.004822  0.10563  0.068229  0.002252  0.978654  0.003
H  H33  1  0.37713200  0.59133538  0.98076789  1  0.488141  -0.000148  0.296118  0.300542  7.8e-05  0.991086  0.0
H  H34  1  0.44290595  0.79279112  0.96591587  1  0.47162  0.001718  0.297482  0.293112  0.00137  0.949511  0.001
H  H35  1  0.18452869  0.03808578  0.13196475  1  0.040766  -2.4e-05  0.101436  0.121953  -0.000149  0.99241  0.0
H  H36  1  0.42833672  0.15498928  0.12738394  1  0.046502  0.000389  0.10816  0.130803  0.000114  0.965404  0.0
H  H37  1  0.10028110  0.32403899  0.12465296  1  0.070262  0.005014  0.109297  0.071233  0.002393  0.961575  0.002
H  H38  1  0.87588306  0.30355421  0.04903464  1  0.489439  0.000263  0.295728  0.298861  0.000417  0.978211  0.0
H  H39  1  0.92321734  0.09940730  0.05749730  1  0.456465  0.000997  0.295146  0.296692  0.000889  0.958636  0.0
C  C40  1  0.26966472  0.18642105  0.66410207  1  0.502809  -0.005173  0.040853  0.088706  -0.005892  3.937335  -0.004
C  C41  1  0.14934318  0.16406416  0.71052783  1  -0.048352  0.00638  -0.082005  -0.198136  0.003355  3.957284  0.005
C  C42  1  0.94797536  0.23398756  0.71401016  1  0.296234  -0.005926  0.09547  0.18594  -0.006972  4.059866  -0.004
C  C43  1  0.87169458  0.31784627  0.66907986  1  0.007497  0.004992  -0.078328  -0.18992  0.002622  3.923297  0.004
C  C44  1  0.99933610  0.32838234  0.62365054  1  0.455086  -0.005494  0.049001  0.103871  -0.006422  3.918973  -0.004
C  C45  1  0.24014012  0.33128302  0.86547812  1  0.407417  -0.00558  0.042927  0.085065  -0.006445  3.937775  -0.004
C  C46  1  0.36305648  0.35333532  0.81944081  1  0.003233  0.005847  -0.080015  -0.196376  0.003061  3.960568  0.004
C  C47  1  0.55996425  0.27675140  0.81568974  1  0.32254  -0.006151  0.095043  0.185067  -0.007251  4.059277  -0.004
C  C48  1  0.62905486  0.18529145  0.85979945  1  -0.011305  0.005608  -0.077334  -0.183947  0.002973  3.923051  0.004
C  C49  1  0.49848647  0.17309617  0.90468179  1  0.457564  -0.005611  0.048545  0.098486  -0.006465  3.914725  -0.004
C  C50  1  0.12420342  0.10067791  0.46296611  1  1.554763  -0.001987  0.214776  0.638544  -0.002442  4.105852  -0.002
C  C51  1  0.19216440  0.23298061  0.42157331  1  -0.039382  0.006623  -0.157523  -0.338572  0.003723  3.904159  0.005
C  C52  1  0.33177584  0.37961847  0.44189699  1  0.318258  0.010633  -0.001271  0.073657  0.006624  3.87763  0.006
C  C53  1  0.19297424  0.50038341  0.47300052  1  1.561799  -0.000749  0.217435  0.571326  -0.001581  4.100112  -0.002
C  C54  1  0.64359364  0.99977348  0.55992208  1  1.588937  0.000224  0.21727  0.645619  -2.9e-05  4.105233  0.0
C  C55  1  0.71584608  0.88460757  0.60461621  1  -0.013414  0.006994  -0.158961  -0.336761  0.003879  3.90392  0.005
C  C56  1  0.83742468  0.73333558  0.58815312  1  0.286773  0.009907  -0.00015  0.070149  0.006209  3.880924  0.005
C  C57  1  0.68592380  0.60211383  0.56088440  1  1.51405  -0.000993  0.215115  0.563843  -0.001853  4.112234  -0.002
C  C58  1  0.73037655  0.81349737  0.16404618  1  0.501756  -0.005153  0.040725  0.088558  -0.005873  3.936037  -0.004
C  C59  1  0.85060115  0.83573813  0.21050829  1  -0.049183  0.00639  -0.081803  -0.19779  0.003362  3.95597  0.005
C  C60  1  0.05204335  0.76583238  0.21400127  1  0.2961  -0.005901  0.095468  0.186268  -0.006937  4.059286  -0.004
C  C61  1  0.12837473  0.68207512  0.16905876  1  0.006509  0.00501  -0.078436  -0.190303  0.002628  3.923926  0.004
C  C62  1  0.00081835  0.67166870  0.12360116  1  0.457142  -0.005481  0.048929  0.104041  -0.006405  3.919335  -0.004
C  C63  1  0.75993671  0.66876178  0.36555442  1  0.40631  -0.00559  0.042756  0.084953  -0.006456  3.938204  -0.004
C  C64  1  0.63707573  0.64670340  0.31950230  1  0.004629  0.005877  -0.08041  -0.197511  0.003081  3.960924  0.004
C  C65  1  0.44007971  0.72320675  0.31572812  1  0.321308  -0.006166  0.09505  0.185176  -0.007265  4.059881  -0.004
C  C66  1  0.37090144  0.81464877  0.35982576  1  -0.008421  0.00565  -0.077217  -0.183937  0.002997  3.922949  0.004
C  C67  1  0.50147355  0.82685957  0.40472886  1  0.453666  -0.005632  0.048601  0.098529  -0.006488  3.914032  -0.004
C  C68  1  0.87570779  0.89934735  0.96288139  1  1.554436  -0.001987  0.214362  0.637882  -0.002451  4.106169  -0.002
C  C69  1  0.80765046  0.76703511  0.92146926  1  -0.038592  0.006626  -0.157581  -0.338466  0.003726  3.903833  0.005
C  C70  1  0.66810503  0.62041195  0.94177604  1  0.319528  0.010615  -0.001434  0.073239  0.006616  3.876694  0.006
C  C71  1  0.80693555  0.49965086  0.97287581  1  1.560413  -0.000741  0.218178  0.572365  -0.001581  4.098356  -0.002
C  C72  1  0.35643080  0.00024496  0.05983019  1  1.585844  0.000254  0.217099  0.645064  -1.2e-05  4.103656  0.0
C  C73  1  0.28425676  0.11541378  0.10455834  1  -0.014804  0.006996  -0.158669  -0.336  0.003879  3.903383  0.005
C  C74  1  0.16270741  0.26668602  0.08810060  1  0.287528  0.009895  -1e-06  0.070001  0.006205  3.880904  0.005
C  C75  1  0.31416088  0.39787808  0.06083034  1  1.514042  -0.000995  0.214879  0.563879  -0.001859  4.112442  -0.002
N  N76  1  0.19660907  0.26732505  0.62091082  1  -1.207346  0.057284  -0.322901  -0.213134  0.033227  3.538296  0.051
N  N77  1  0.83435318  0.20969260  0.76243009  1  -0.467548  -0.001795  -0.149303  -0.134617  -0.003012  3.250146  -0.001
N  N78  1  0.30627564  0.24264457  0.90771129  1  -1.182162  0.060094  -0.321617  -0.204587  0.034924  3.538046  0.054
N  N79  1  0.67533399  0.30165369  0.76756732  1  -0.470879  -0.000519  -0.149952  -0.135366  -0.001894  3.253838  0.0
N  N80  1  0.50110384  0.31957244  0.47681172  1  -1.171796  0.087159  -0.634582  -0.603796  0.049286  3.435857  0.069
N  N81  1  0.01027187  0.78426730  0.55081258  1  -1.1451  0.085407  -0.632244  -0.602816  0.048283  3.423534  0.069
N  N82  1  0.80353598  0.73272301  0.12082422  1  -1.208073  0.057266  -0.322765  -0.213386  0.033203  3.53738  0.051
N  N83  1  0.16552109  0.79008136  0.26244227  1  -0.46541  -0.001724  -0.149361  -0.134663  -0.002954  3.250899  -0.001
N  N84  1  0.69375401  0.75737507  0.40778803  1  -1.182773  0.060143  -0.321638  -0.204326  0.034951  3.538172  0.054
N  N85  1  0.32475342  0.69834406  0.26758684  1  -0.471712  -0.000401  -0.149916  -0.135412  -0.001801  3.254269  0.0
N  N86  1  0.49882545  0.68042527  0.97670408  1  -1.169193  0.087238  -0.634091  -0.602945  0.049321  3.435526  0.069
N  N87  1  0.98981679  0.21581966  0.05075108  1  -1.145514  0.085438  -0.632129  -0.602504  0.048293  3.42352  0.069
O  O88  1  0.15487302  0.11935457  0.51304476  1  -1.139063  0.073946  -0.301154  -0.544419  0.040852  2.280051  0.068
O  O89  1  0.03616820  0.97254930  0.44109783  1  -1.146211  0.0712  -0.319247  -0.556174  0.040205  2.385152  0.065
O  O90  1  0.18682922  0.48534749  0.52399943  1  -1.120978  0.069139  -0.300301  -0.524017  0.038218  2.38612  0.064
O  O91  1  0.09059151  0.60328072  0.44612185  1  -1.168923  0.070801  -0.296789  -0.53722  0.039513  2.319483  0.064
O  O92  1  0.66059956  0.96641659  0.51041073  1  -1.152437  0.071054  -0.300209  -0.543295  0.03933  2.270429  0.065
O  O93  1  0.56489636  0.12988558  0.57890518  1  -1.164343  0.070599  -0.317218  -0.562777  0.039686  2.428889  0.064
O  O94  1  0.68612824  0.60410586  0.50965649  1  -1.096633  0.075855  -0.30501  -0.525809  0.042118  2.437294  0.07
O  O95  1  0.57270002  0.50270003  0.58923644  1  -1.14848  0.070667  -0.300408  -0.530599  0.0393  2.244553  0.063
O  O96  1  0.84498378  0.88069605  0.01295181  1  -1.139244  0.073965  -0.300892  -0.543911  0.04086  2.28002  0.068
O  O97  1  0.96380027  0.02743842  0.94102117  1  -1.145003  0.071141  -0.319054  -0.556025  0.040163  2.385702  0.065
O  O98  1  0.81317421  0.51472002  0.02386981  1  -1.119178  0.069101  -0.300782  -0.524642  0.038186  2.385323  0.064
O  O99  1  0.90939793  0.39681261  0.94600035  1  -1.168415  0.070724  -0.29694  -0.537629  0.039448  2.319303  0.064
O  O100  1  0.33929198  0.03369200  0.01032250  1  -1.153663  0.071088  -0.300057  -0.542779  0.03934  2.270122  0.065
O  O101  1  0.43511511  0.87007038  0.07879075  1  -1.161662  0.070557  -0.317103  -0.562904  0.03965  2.428734  0.064
O  O102  1  0.31381127  0.39592986  0.00960488  1  -1.097252  0.075874  -0.305131  -0.526067  0.042126  2.437709  0.07
O  O103  1  0.42744637  0.49734642  0.08916294  1  -1.14776  0.070677  -0.300328  -0.530563  0.039294  2.244371  0.063
