# generated using pymatgen
data_TbCd2H19C20N6Cl2O13
_symmetry_space_group_name_H-M   'P 1'
_cell_length_a   7.37342852
_cell_length_b   12.51502742
_cell_length_c   17.27659136
_cell_angle_alpha   68.79930061
_cell_angle_beta   87.05093025
_cell_angle_gamma   81.34230057
_symmetry_Int_Tables_number   1
_chemical_formula_structural   TbCd2H19C20N6Cl2O13
_chemical_formula_sum   'Tb2 Cd4 H38 C40 N12 Cl4 O26'
_cell_volume   1469.41578920
_cell_formula_units_Z   2
loop_
 _symmetry_equiv_pos_site_id
 _symmetry_equiv_pos_as_xyz
  1  'x, y, z'
loop_
 _atom_site_type_symbol
 _atom_site_label
 _atom_site_symmetry_multiplicity
 _atom_site_fract_x
 _atom_site_fract_y
 _atom_site_fract_z
 _atom_site_occupancy
 _atom_site_hle17_bader_spin_density
 _atom_site_hle17_ddec_charge
 _atom_site_hle17_ddec_spin_density
 _atom_site_hle17_ddec_sum_bond_order
 _atom_site_hle17_magmom
 _atom_site_hse06_10hf_bader_spin_density
 _atom_site_hse06_10hf_ddec_charge
 _atom_site_hse06_10hf_ddec_spin_density
 _atom_site_hse06_10hf_ddec_sum_bond_order
 _atom_site_hse06_10hf_magmom
 _atom_site_hse06_bader_spin_density
 _atom_site_hse06_ddec_charge
 _atom_site_hse06_ddec_spin_density
 _atom_site_hse06_ddec_sum_bond_order
 _atom_site_hse06_magmom
 _atom_site_pbe_bader_charge
 _atom_site_pbe_bader_spin_density
 _atom_site_pbe_cm5_charge
 _atom_site_pbe_ddec_charge
 _atom_site_pbe_ddec_spin_density
 _atom_site_pbe_ddec_sum_bond_order
 _atom_site_pbe_magmom
Tb  Tb0  1  0.77300194  0.58679858  0.77457935  1  0  2.323005  0  1.684238  0  0  2.190076  0  2.143627  0  0  2.2955  0  1.985719  0  2.196522  0  1.510488  2.156665  0  2.176237  0
Tb  Tb1  1  0.27320903  0.36103480  0.22554377  1  0  2.323537  0  1.685132  0  0  2.190236  0  2.145315  0  0  2.296162  0  1.986622  0  2.191294  0  1.511235  2.156987  0  2.177669  0
Cd  Cd2  1  0.81805244  0.01820922  0.90518661  1  0  1.105129  0  1.796895  0  0  0.930471  0  2.260703  0  0  0.983095  0  2.210554  0  1.234515  0  0.693262  0.892877  0  2.295113  0
Cd  Cd3  1  0.31820169  0.92320446  0.09449875  1  0  1.105448  0  1.796563  0  0  0.93084  0  2.260635  0  0  0.983461  0  2.210461  0  1.234404  0  0.692766  0.893241  0  2.295052  0
Cd  Cd4  1  0.55424503  0.83424811  0.47321652  1  0  1.115513  0  1.737579  0  0  0.932933  0  2.20472  0  0  0.985218  0  2.15349  0  1.215049  0  0.715777  0.895808  0  2.239728  0
Cd  Cd5  1  0.05359434  0.30785617  0.52680570  1  0  1.115567  0  1.736261  0  0  0.933172  0  2.203044  0  0  0.985496  0  2.151885  0  1.217572  0  0.71557  0.896009  0  2.238003  0
H  H6  1  0.26997414  0.32213351  0.83708099  1  0  0.086679  0  0.907053  0  0  0.099776  0  0.959332  0  0  0.102626  0  0.956866  0  0.105573  0  0.126186  0.097687  0  0.961137  0
H  H7  1  0.77032862  0.15979648  0.16290585  1  0  0.086813  0  0.906779  0  0  0.099694  0  0.959332  0  0  0.102565  0  0.956817  0  0.107499  0  0.126046  0.097584  0  0.961171  0
H  H8  1  0.38219571  0.77820742  0.84435572  1  0  0.088649  0  0.925689  0  0  0.098775  0  0.985114  0  0  0.102079  0  0.981776  0  0.132877  0  0.122945  0.0963  0  0.98774  0
H  H9  1  0.88274194  0.62200989  0.15585109  1  0  0.088366  0  0.925856  0  0  0.099129  0  0.984687  0  0  0.102334  0  0.98147  0  0.125226  0  0.123192  0.09671  0  0.987219  0
H  H10  1  0.34238073  0.48087324  0.58369015  1  0  0.089927  0  0.960787  0  0  0.095116  0  1.028299  0  0  0.098324  0  1.025302  0  0.131507  0  0.104139  0.092791  0  1.030461  0
H  H11  1  0.84268687  0.06391495  0.41663622  1  0  0.089884  0  0.960573  0  0  0.095048  0  1.028267  0  0  0.098153  0  1.025386  0  0.124543  0  0.103878  0.092787  0  1.030363  0
H  H12  1  0.20486963  0.86722936  0.60246179  1  0  0.081608  0  0.958535  0  0  0.087825  0  1.026297  0  0  0.090927  0  1.023281  0  0.123277  0  0.10567  0.085593  0  1.028393  0
H  H13  1  0.70569251  0.46927248  0.39722029  1  0  0.081711  0  0.959694  0  0  0.087718  0  1.027768  0  0  0.090851  0  1.024697  0  0.11883  0  0.105538  0.085481  0  1.029881  0
H  H14  1  0.85672979  0.70790389  0.55484959  1  0  0.4231  0  0.853079  0  0  0.393203  0  0.929852  0  0  0.404163  0  0.914315  0  0.636876  0  0.296544  0.385359  0  0.939232  0
H  H15  1  0.35567080  0.26264371  0.44535171  1  0  0.424344  0  0.852795  0  0  0.393937  0  0.92985  0  0  0.404946  0  0.913638  0  0.626301  0  0.296679  0.386089  0  0.939534  0
H  H16  1  0.82584914  0.61316799  0.52016479  1  0  0.427188  0  0.869654  0  0  0.393055  0  0.940929  0  0  0.40538  0  0.923101  0  0.659235  0  0.287472  0.384333  0  0.953487  0
H  H17  1  0.32527513  0.13326958  0.47987038  1  0  0.427267  0  0.869775  0  0  0.393363  0  0.940091  0  0  0.405646  0  0.922337  0  0.653786  0  0.287565  0.384664  0  0.952612  0
H  H18  1  0.52821364  0.30185390  0.57363842  1  0  0.118194  0  0.949669  0  0  0.125682  0  1.012956  0  0  0.129092  0  1.011719  0  0.094734  0  0.105171  0.123216  0  1.014008  0
H  H19  1  0.02847200  0.87476512  0.42666979  1  0  0.118188  0  0.950512  0  0  0.125581  0  1.013963  0  0  0.129024  0  1.012688  0  0.090766  0  0.104805  0.123062  0  1.015059  0
H  H20  1  0.24593814  0.97025310  0.84967239  1  0  0.122952  0  0.955848  0  0  0.128883  0  1.023002  0  0  0.132483  0  1.021124  0  0.129303  0  0.105331  0.126299  0  1.024487  0
H  H21  1  0.74632967  0.81947900  0.15033543  1  0  0.122667  0  0.955434  0  0  0.12865  0  1.022491  0  0  0.132228  0  1.020666  0  0.145533  0  0.105258  0.126085  0  1.023918  0
H  H22  1  0.05253451  0.06237801  0.59760654  1  0  0.102299  0  0.967191  0  0  0.11139  0  1.032295  0  0  0.114649  0  1.030853  0  0.115245  0  0.100719  0.109027  0  1.033505  0
H  H23  1  0.55388366  0.65969999  0.40193166  1  0  0.10256  0  0.966408  0  0  0.111379  0  1.031625  0  0  0.114579  0  1.030299  0  0.111491  0  0.10116  0.109049  0  1.032759  0
H  H24  1  0.44339210  0.13580163  0.83810648  1  0  0.114689  0  0.996901  0  0  0.12178  0  1.063887  0  0  0.12545  0  1.061911  0  0.173424  0  0.098024  0.119067  0  1.06557  0
H  H25  1  0.94407351  0.97456661  0.16179748  1  0  0.114958  0  0.997079  0  0  0.122189  0  1.063736  0  0  0.12591  0  1.061708  0  0.146513  0  0.098022  0.11947  0  1.065418  0
H  H26  1  0.94596079  0.40196837  0.94814758  1  0  0.437052  0  0.840543  0  0  0.410614  0  0.897452  0  0  0.419891  0  0.883783  0  0.634303  0  0.311199  0.403776  0  0.907672  0
H  H27  1  0.44647833  0.35027540  0.05151629  1  0  0.435749  0  0.841799  0  0  0.409782  0  0.897954  0  0  0.419008  0  0.884382  0  0.631444  0  0.311042  0.402987  0  0.908091  0
H  H28  1  0.09135943  0.48424273  0.91081814  1  0  0.419724  0  0.849633  0  0  0.395782  0  0.911102  0  0  0.404205  0  0.898588  0  0.635697  0  0.312903  0.38936  0  0.920806  0
H  H29  1  0.59117815  0.39526320  0.08941370  1  0  0.420245  0  0.849633  0  0  0.396152  0  0.910774  0  0  0.404582  0  0.89826  0  0.63431  0  0.312956  0.389712  0  0.920493  0
H  H30  1  0.55608656  0.08676353  0.58877066  1  0  0.33239  0  0.854434  0  0  0.310877  0  0.920599  0  0  0.319488  0  0.913142  0  0.552578  0  0.325161  0.304698  0  0.926044  0
H  H31  1  0.05649307  0.67551459  0.41111561  1  0  0.332121  0  0.854515  0  0  0.310313  0  0.920911  0  0  0.318937  0  0.913424  0  0.527967  0  0.325198  0.304137  0  0.926334  0
H  H32  1  0.46105356  0.62211383  0.67061591  1  0  0.42553  0  0.863654  0  0  0.395482  0  0.932816  0  0  0.405273  0  0.918734  0  0.624858  0  0.285931  0.388456  0  0.943082  0
H  H33  1  0.96228195  0.29202236  0.32916906  1  0  0.426414  0  0.862385  0  0  0.396424  0  0.931252  0  0  0.406209  0  0.917172  0  0.629598  0  0.286972  0.389427  0  0.941477  0
H  H34  1  0.39917349  0.70401908  0.72399483  1  0  0.363045  0  0.980943  0  0  0.321449  0  1.062046  0  0  0.333286  0  1.04605  0  0.620569  0  0.277543  0.313015  0  1.073677  0
H  H35  1  0.89981053  0.42741078  0.27602512  1  0  0.363216  0  0.98094  0  0  0.322246  0  1.060981  0  0  0.334095  0  1.04497  0  0.616224  0  0.277484  0.313803  0  1.072629  0
H  H36  1  0.17494616  0.50377226  0.73636719  1  0  0.396765  0  0.925995  0  0  0.351119  0  1.013164  0  0  0.363752  0  0.99569  0  0.635671  0  0.284152  0.342431  0  1.025218  0
H  H37  1  0.67533541  0.23985704  0.26386316  1  0  0.397056  0  0.925946  0  0  0.351181  0  1.013387  0  0  0.363834  0  0.995898  0  0.62572  0  0.284164  0.342486  0  1.025442  0
H  H38  1  0.16359306  0.61711493  0.76070879  1  0  0.443271  0  0.822884  0  0  0.41909  0  0.884281  0  0  0.428514  0  0.87052  0  0.602192  0  0.318374  0.412534  0  0.893963  0
H  H39  1  0.66349606  0.37759529  0.23961067  1  0  0.440766  0  0.827466  0  0  0.416759  0  0.887703  0  0  0.426145  0  0.874036  0  0.618856  0  0.317432  0.410212  0  0.897361  0
H  H40  1  0.57199219  0.51649971  0.94665608  1  0  0.47195  0  0.806954  0  0  0.443792  0  0.862365  0  0  0.454525  0  0.84682  0  0.67237  0  0.306003  0.436482  0  0.872961  0
H  H41  1  0.07182372  0.46313784  0.05303488  1  0  0.471552  0  0.808071  0  0  0.443835  0  0.862866  0  0  0.454602  0  0.847265  0  0.67394  0  0.305498  0.436516  0  0.87348  0
H  H42  1  0.67534525  0.62475496  0.92516328  1  0  0.445845  0  0.808801  0  0  0.427362  0  0.861604  0  0  0.436336  0  0.84859  0  0.643784  0  0.330345  0.420927  0  0.871109  0
H  H43  1  0.17533152  0.54968900  0.07493461  1  0  0.446954  0  0.805867  0  0  0.427487  0  0.861291  0  0  0.436524  0  0.848194  0  0.613227  0  0.330535  0.421019  0  0.869863  0
C  C44  1  0.74636499  0.91630599  0.76031851  1  0  0.005826  0  3.733171  0  0  -0.001037  0  3.993155  0  0  -0.002157  0  4.013956  0  0.46652  0  0.090087  -0.000371  0  3.979118  0
C  C45  1  0.24628745  0.67653724  0.23994659  1  0  0.007436  0  3.733216  0  0  0.000249  0  3.993051  0  0  -0.00081  0  4.013868  0  0.475438  0  0.089953  0.000787  0  3.979144  0
C  C46  1  0.89752461  0.26064340  0.78272160  1  0  0.011441  0  3.726675  0  0  0.00312  0  3.986736  0  0  0.002371  0  4.007252  0  0.4353  0  0.081941  0.003593  0  3.972746  0
C  C47  1  0.39794851  0.04312081  0.21709206  1  0  0.010204  0  3.729335  0  0  0.003345  0  3.987376  0  0  0.002605  0  4.007872  0  0.435584  0  0.081792  0.00381  0  3.973399  0
C  C48  1  0.69936263  0.93437563  0.67843641  1  0  0.012529  0  3.654501  0  0  -0.003829  0  3.91986  0  0  -0.00696  0  3.939475  0  0.39044  0  0.092581  -0.001826  0  3.906725  0
C  C49  1  0.19935502  0.61272492  0.32169307  1  0  0.010471  0  3.653976  0  0  -0.004832  0  3.918399  0  0  -0.008168  0  3.938239  0  0.375677  0  0.092539  -0.002693  0  3.905134  0
C  C50  1  0.32932815  0.31423281  0.77984621  1  0  0.140893  0  3.682515  0  0  0.110356  0  3.936128  0  0  0.116989  0  3.951878  0  0.490936  0  0.056078  0.106122  0  3.925082  0
C  C51  1  0.82971886  0.09438575  0.22020538  1  0  0.140593  0  3.681366  0  0  0.110674  0  3.934711  0  0  0.117318  0  3.950511  0  0.476236  0  0.05639  0.106428  0  3.923649  0
C  C52  1  0.91787134  0.31993608  0.69702424  1  0  -0.01193  0  3.763383  0  0  -0.021459  0  4.02529  0  0  -0.025236  0  4.048119  0  0.420918  0  0.070564  -0.019043  0  4.009763  0
C  C53  1  0.41863970  0.01643873  0.30286863  1  0  -0.012767  0  3.765757  0  0  -0.022631  0  4.027508  0  0  -0.02643  0  4.050329  0  0.425683  0  0.070411  -0.020214  0  4.012008  0
C  C54  1  0.60080516  0.09223029  0.70835382  1  0  0.347123  0  3.708452  0  0  0.312347  0  3.976377  0  0  0.32637  0  3.990151  0  0.994195  0  0.229916  0.303097  0  3.966754  0
C  C55  1  0.10115291  0.80060941  0.29171196  1  0  0.3472  0  3.707896  0  0  0.312611  0  3.976626  0  0  0.326575  0  3.990431  0  0.999972  0  0.230392  0.303497  0  3.966815  0
C  C56  1  0.30953788  0.84463740  0.79093154  1  0  0.139798  0  3.683107  0  0  0.10644  0  3.940011  0  0  0.113652  0  3.955212  0  0.519155  0  0.05462  0.10177  0  3.929572  0
C  C57  1  0.81013076  0.63509954  0.20911428  1  0  0.14032  0  3.682122  0  0  0.106401  0  3.939441  0  0  0.113694  0  3.954715  0  0.486186  0  0.054553  0.101686  0  3.928943  0
C  C58  1  0.04379717  0.14052832  0.72850743  1  0  0.325262  0  3.809613  0  0  0.294277  0  4.078119  0  0  0.306796  0  4.095282  0  1.001419  0  0.202277  0.286053  0  4.065951  0
C  C59  1  0.54449473  0.86865689  0.27129958  1  0  0.325593  0  3.809213  0  0  0.294818  0  4.07761  0  0  0.307265  0  4.094887  0  0.969506  0  0.202304  0.286654  0  4.06536  0
C  C60  1  0.85244599  0.43896170  0.64117902  1  0  0.680706  0  3.914678  0  0  0.630138  0  4.209623  0  0  0.665774  0  4.201692  0  1.574853  0  0.219584  0.606184  0  4.215178  0
C  C61  1  0.35342249  0.07958874  0.35869554  1  0  0.682503  0  3.914686  0  0  0.631662  0  4.209822  0  0  0.667357  0  4.201762  0  1.584589  0  0.219253  0.607675  0  4.215452  0
C  C62  1  0.80743263  0.29081699  0.85295524  1  0  0.692034  0  3.887364  0  0  0.643166  0  4.18482  0  0  0.678579  0  4.17552  0  1.6084  0  0.221437  0.619239  0  4.191392  0
C  C63  1  0.30765286  0.14375775  0.14677773  1  0  0.693613  0  3.888403  0  0  0.644433  0  4.185857  0  0  0.679854  0  4.176528  0  1.607807  0  0.221959  0.620526  0  4.192425  0
C  C64  1  0.84780716  0.81639015  0.82789260  1  0  0.686003  0  3.909808  0  0  0.636032  0  4.208524  0  0  0.671446  0  4.199168  0  1.616858  0  0.218086  0.612254  0  4.214835  0
C  C65  1  0.34706743  0.64400985  0.17250572  1  0  0.685893  0  3.910205  0  0  0.636375  0  4.20804  0  0  0.671766  0  4.198717  0  1.639349  0  0.218708  0.61264  0  4.214331  0
C  C66  1  0.36904875  0.40235972  0.63850473  1  0  0.128935  0  3.682448  0  0  0.096687  0  3.941214  0  0  0.102754  0  3.957249  0  0.419751  0  0.044648  0.092806  0  3.930124  0
C  C67  1  0.86944234  0.04048472  0.36174249  1  0  0.127578  0  3.682027  0  0  0.095706  0  3.940781  0  0  0.10185  0  3.956873  0  0.453407  0  0.044587  0.091773  0  3.929644  0
C  C68  1  0.13786421  0.03245462  0.72367722  1  0  0.048434  0  3.770197  0  0  0.062391  0  4.006712  0  0  0.065589  0  4.026318  0  0.001627  0  0.010137  0.0603  0  3.993381  0
C  C69  1  0.63864440  0.75575454  0.27610430  1  0  0.049807  0  3.770139  0  0  0.063316  0  4.006769  0  0  0.066562  0  4.026367  0  0.064171  0  0.010762  0.06118  0  3.993448  0
C  C70  1  0.50085292  0.20347654  0.70550911  1  0  0.038441  0  3.773751  0  0  0.051952  0  4.013893  0  0  0.053519  0  4.035264  0  -0.00461  0  0.011261  0.05098  0  3.999376  0
C  C71  1  0.00136280  0.90901744  0.29457660  1  0  0.039151  0  3.773802  0  0  0.051717  0  4.015208  0  0  0.05329  0  4.036611  0  0.01187  0  0.01086  0.050699  0  4.000662  0
C  C72  1  0.21010568  0.89504687  0.65524107  1  0  0.128955  0  3.702293  0  0  0.09653  0  3.956227  0  0  0.102987  0  3.973232  0  0.397563  0  0.042317  0.092424  0  3.944375  0
C  C73  1  0.71099927  0.54983831  0.34452934  1  0  0.129891  0  3.702048  0  0  0.097554  0  3.956069  0  0  0.104052  0  3.973013  0  0.430504  0  0.042738  0.093399  0  3.944248  0
C  C74  1  0.47121433  0.30206559  0.63306584  1  0  -0.145187  0  3.687053  0  0  -0.166991  0  3.943597  0  0  -0.173223  0  3.963646  0  0.02173  0  -0.084424  -0.162905  0  3.930138  0
C  C75  1  0.97158826  0.93474811  0.36716907  1  0  -0.145089  0  3.686232  0  0  -0.166535  0  3.942714  0  0  -0.172785  0  3.962741  0  -0.012223  0  -0.084541  -0.162398  0  3.929298  0
C  C76  1  0.23256147  0.95118228  0.79370512  1  0  -0.120845  0  3.666601  0  0  -0.142392  0  3.919518  0  0  -0.147882  0  3.937944  0  -0.078968  0  -0.075953  -0.138925  0  3.907224  0
C  C77  1  0.73308412  0.74445895  0.20623511  1  0  -0.121364  0  3.667199  0  0  -0.142467  0  3.919874  0  0  -0.147946  0  3.938274  0  -0.083327  0  -0.075953  -0.139001  0  3.907604  0
C  C78  1  0.12886944  0.00363236  0.65273038  1  0  -0.14454  0  3.702351  0  0  -0.163296  0  3.949794  0  0  -0.170244  0  3.970903  0  0.016598  0  -0.086123  -0.158755  0  3.935601  0
C  C79  1  0.62995408  0.65598962  0.34695274  1  0  -0.145678  0  3.701803  0  0  -0.163936  0  3.949348  0  0  -0.170868  0  3.970468  0  -0.035188  0  -0.086836  -0.159389  0  3.935168  0
C  C80  1  0.42776107  0.21061577  0.78041695  1  0  -0.125893  0  3.676126  0  0  -0.149105  0  3.92737  0  0  -0.155028  0  3.947473  0  -0.046516  0  -0.078104  -0.145284  0  3.914002  0
C  C81  1  0.92832292  0.99141004  0.21958087  1  0  -0.126121  0  3.676219  0  0  -0.149069  0  3.927374  0  0  -0.155055  0  3.947515  0  -0.008926  0  -0.077807  -0.145227  0  3.913972  0
C  C82  1  0.72400633  0.86428704  0.62450889  1  0  0.663438  0  3.940746  0  0  0.613943  0  4.237031  0  0  0.649719  0  4.229024  0  1.609276  0  0.219193  0.589875  0  4.242769  0
C  C83  1  0.22359682  0.48866101  0.37559357  1  0  0.664714  0  3.936268  0  0  0.614981  0  4.232581  0  0  0.650846  0  4.22452  0  1.607029  0  0.219942  0.590858  0  4.23835  0
N  N84  1  0.97605906  0.14827263  0.80078066  1  0  -0.458583  0  3.199808  0  0  -0.394289  0  3.46947  0  0  -0.415726  0  3.487864  0  -1.212366  0  -0.353693  -0.37934  0  3.456361  0
N  N85  1  0.47645516  0.94887246  0.19898567  1  0  -0.458014  0  3.2025  0  0  -0.394118  0  3.471972  0  0  -0.415566  0  3.490405  0  -1.205509  0  -0.353913  -0.379169  0  3.458842  0
N  N86  1  0.00937009  0.24196527  0.66423496  1  0  -0.470915  0  3.251944  0  0  -0.398126  0  3.532009  0  0  -0.42121  0  3.552518  0  -1.212438  0  -0.362597  -0.3821  0  3.517487  0
N  N87  1  0.51023653  0.90559876  0.33566108  1  0  -0.470269  0  3.251674  0  0  -0.39763  0  3.531953  0  0  -0.420623  0  3.552401  0  -1.208612  0  -0.362284  -0.381636  0  3.517414  0
N  N88  1  0.29863014  0.40854508  0.71046064  1  0  -0.300703  0  3.186227  0  0  -0.235262  0  3.431354  0  0  -0.248921  0  3.446508  0  -1.231885  0  -0.303652  -0.225783  0  3.42043  0
N  N89  1  0.79903776  0.11894661  0.28969908  1  0  -0.299715  0  3.186819  0  0  -0.23508  0  3.432757  0  0  -0.2488  0  3.447952  0  -1.231099  0  -0.304025  -0.225566  0  3.421801  0
N  N90  1  0.29709864  0.81680415  0.72336125  1  0  -0.31907  0  3.243112  0  0  -0.249669  0  3.487108  0  0  -0.26451  0  3.502546  0  -1.260952  0  -0.316149  -0.239532  0  3.476403  0
N  N91  1  0.79779013  0.53968487  0.27657269  1  0  -0.320092  0  3.242041  0  0  -0.251315  0  3.486498  0  0  -0.266229  0  3.501952  0  -1.261461  0  -0.316341  -0.24111  0  3.475764  0
N  N92  1  0.61046373  0.04676295  0.64740672  1  0  -0.317176  0  3.379504  0  0  -0.261479  0  3.616424  0  0  -0.276528  0  3.630314  0  -1.250674  0  -0.354705  -0.251248  0  3.60695  0
N  N93  1  0.11067440  0.69416721  0.35259448  1  0  -0.317151  0  3.380903  0  0  -0.261249  0  3.617757  0  0  -0.276273  0  3.631773  0  -1.237607  0  -0.355164  -0.251062  0  3.6082  0
N  N94  1  0.68532186  0.01454183  0.77668773  1  0  -0.424194  0  3.175474  0  0  -0.370209  0  3.442818  0  0  -0.389724  0  3.462353  0  -1.188788  0  -0.330243  -0.356666  0  3.429136  0
N  N95  1  0.18540633  0.79119781  0.22353557  1  0  -0.42438  0  3.171997  0  0  -0.371235  0  3.440262  0  0  -0.390558  0  3.45958  0  -1.19587  0  -0.329671  -0.357784  0  3.42661  0
Cl  Cl96  1  0.32552971  0.70391522  0.53958022  1  0  -0.598967  0  0.839461  0  0  -0.529628  0  1.085805  0  0  -0.545971  0  1.060657  0  -0.653633  0  -0.304523  -0.517903  0  1.103372  0
Cl  Cl97  1  0.82524000  0.24328929  0.46020722  1  0  -0.599051  0  0.838773  0  0  -0.529791  0  1.085048  0  0  -0.54617  0  1.059932  0  -0.656264  0  -0.304957  -0.51801  0  1.102529  0
Cl  Cl98  1  0.99806663  0.92184044  0.03885841  1  0  -0.56468  0  1.029448  0  0  -0.497929  0  1.316862  0  0  -0.517959  0  1.289971  0  -0.61528  0  -0.28932  -0.483482  0  1.335319  0
Cl  Cl99  1  0.49882281  0.95996987  0.96137848  1  0  -0.566819  0  1.023606  0  0  -0.500169  0  1.309936  0  0  -0.520164  0  1.283147  0  -0.616931  0  -0.290978  -0.485729  0  1.328322  0
O  O100  1  0.86722491  0.71600548  0.82206632  1  0  -0.79125  0  2.079529  0  0  -0.740383  0  2.344695  0  0  -0.775752  0  2.327611  0  -1.212628  0  -0.444232  -0.721916  0  2.353604  0
O  O101  1  0.36689257  0.53766746  0.17857509  1  0  -0.791329  0  2.07989  0  0  -0.740418  0  2.344987  0  0  -0.77586  0  2.327879  0  -1.210437  0  -0.444207  -0.722018  0  2.35393  0
O  O102  1  0.80334010  0.39484495  0.85214069  1  0  -0.809002  0  2.058315  0  0  -0.75239  0  2.314888  0  0  -0.788966  0  2.296428  0  -1.214461  0  -0.438786  -0.733432  0  2.324543  0
O  O103  1  0.30370637  0.24689273  0.14775750  1  0  -0.809366  0  2.056163  0  0  -0.752968  0  2.31295  0  0  -0.789679  0  2.294492  0  -1.204891  0  -0.439407  -0.734016  0  2.322544  0
O  O104  1  0.74610236  0.21133767  0.91157992  1  0  -0.581613  0  1.924927  0  0  -0.527106  0  2.148484  0  0  -0.552761  0  2.136799  0  -1.135998  0  -0.308354  -0.508861  0  2.155477  0
O  O105  1  0.24609859  0.12311677  0.08794145  1  0  -0.582712  0  1.924702  0  0  -0.528539  0  2.148462  0  0  -0.554135  0  2.136725  0  -1.131032  0  -0.309004  -0.510332  0  2.155467  0
O  O106  1  0.83243646  0.69849326  0.50213007  1  0  -0.834057  0  1.862424  0  0  -0.77234  0  2.072321  0  0  -0.794906  0  2.03757  0  -1.275994  0  -0.577241  -0.756089  0  2.094815  0
O  O107  1  0.33171665  0.20048104  0.49799706  1  0  -0.835543  0  1.862187  0  0  -0.773618  0  2.072207  0  0  -0.796161  0  2.036712  0  -1.259331  0  -0.57755  -0.757405  0  2.095029  0
O  O108  1  0.86498406  0.46267694  0.56289936  1  0  -0.626337  0  1.976344  0  0  -0.557079  0  2.206783  0  0  -0.585006  0  2.195006  0  -1.169042  0  -0.31192  -0.537226  0  2.213674  0
O  O109  1  0.36577518  0.02503019  0.43697813  1  0  -0.62701  0  1.977548  0  0  -0.55773  0  2.20795  0  0  -0.585708  0  2.196289  0  -1.169277  0  -0.311894  -0.537896  0  2.214891  0
O  O110  1  0.02368934  0.44993044  0.96173812  1  0  -0.825211  0  1.786947  0  0  -0.776247  0  1.925493  0  0  -0.79316  0  1.895978  0  -1.259747  0  -0.564837  -0.764862  0  1.946928  0
O  O111  1  0.52494177  0.41131062  0.03802526  1  0  -0.824856  0  1.785709  0  0  -0.775789  0  1.923222  0  0  -0.792637  0  1.893765  0  -1.25508  0  -0.565712  -0.764402  0  1.944657  0
O  O112  1  0.47473604  0.62336708  0.72667440  1  0  -0.943145  0  1.936687  0  0  -0.892072  0  2.148807  0  0  -0.922392  0  2.113801  0  -1.280689  0  -0.671524  -0.876959  0  2.170318  0
O  O113  1  0.97535750  0.34953233  0.27323925  1  0  -0.943814  0  1.936954  0  0  -0.893235  0  2.148789  0  0  -0.923534  0  2.113567  0  -1.280847  0  -0.671576  -0.878193  0  2.170309  0
O  O114  1  0.67412309  0.91997380  0.54922642  1  0  -0.614573  0  2.005465  0  0  -0.547  0  2.255726  0  0  -0.574718  0  2.243425  0  -1.155946  0  -0.323854  -0.527415  0  2.263035  0
O  O115  1  0.17274623  0.46922191  0.45062830  1  0  -0.615034  0  2.004512  0  0  -0.547795  0  2.255752  0  0  -0.575586  0  2.243408  0  -1.152772  0  -0.324544  -0.528188  0  2.263146  0
O  O116  1  0.09513367  0.55380779  0.76649725  1  0  -0.94217  0  1.900065  0  0  -0.890692  0  2.117182  0  0  -0.918754  0  2.07789  0  -1.254996  0  -0.648373  -0.876814  0  2.140672  0
O  O117  1  0.59512278  0.32008529  0.23371773  1  0  -0.940808  0  1.905775  0  0  -0.889136  0  2.123437  0  0  -0.917276  0  2.083979  0  -1.259766  0  -0.648285  -0.875262  0  2.14691  0
O  O118  1  0.78492268  0.51427207  0.67224239  1  0  -0.762667  0  2.095499  0  0  -0.70594  0  2.356147  0  0  -0.741301  0  2.341647  0  -1.207484  0  -0.436192  -0.687625  0  2.363481  0
O  O119  1  0.28612162  0.18608985  0.32756067  1  0  -0.763683  0  2.096103  0  0  -0.706625  0  2.356821  0  0  -0.74214  0  2.342184  0  -1.217058  0  -0.436456  -0.688307  0  2.364215  0
O  O120  1  0.78827336  0.75711848  0.65318119  1  0  -0.751539  0  2.079175  0  0  -0.696295  0  2.32877  0  0  -0.729818  0  2.314001  0  -1.210412  0  -0.383462  -0.678913  0  2.336889  0
O  O121  1  0.28851511  0.41005231  0.34717395  1  0  -0.751597  0  2.077655  0  0  -0.696192  0  2.327164  0  0  -0.729781  0  2.312282  0  -1.205908  0  -0.382749  -0.678843  0  2.335343  0
O  O122  1  0.90675482  0.83546142  0.88786654  1  0  -0.585975  0  1.980264  0  0  -0.532051  0  2.214418  0  0  -0.557961  0  2.203236  0  -1.138443  0  -0.310672  -0.513687  0  2.221042  0
O  O123  1  0.40504200  0.72290006  0.11241638  1  0  -0.587094  0  1.982601  0  0  -0.533276  0  2.216772  0  0  -0.559175  0  2.205504  0  -1.152111  0  -0.311607  -0.514911  0  2.223441  0
O  O124  1  0.60466761  0.58594507  0.89981523  1  0  -0.911805  0  1.789906  0  0  -0.865179  0  1.965882  0  0  -0.891603  0  1.929856  0  -1.284602  0  -0.626544  -0.851989  0  1.987494  0
O  O125  1  0.10491130  0.48553449  0.10004923  1  0  -0.913291  0  1.787843  0  0  -0.866018  0  1.965757  0  0  -0.892632  0  1.92951  0  -1.25567  0  -0.627268  -0.852816  0  1.986463  0
