# generated using pymatgen
data_Co3H8C14(NO)6
_symmetry_space_group_name_H-M   'P 1'
_cell_length_a   10.86506183
_cell_length_b   10.85959866
_cell_length_c   10.84627032
_cell_angle_alpha   89.26874631
_cell_angle_beta   89.06334968
_cell_angle_gamma   63.78104712
_symmetry_Int_Tables_number   1
_chemical_formula_structural   Co3H8C14(NO)6
_chemical_formula_sum   'Co6 H16 C28 N12 O12'
_cell_volume   1147.90746977
_cell_formula_units_Z   2
loop_
 _symmetry_equiv_pos_site_id
 _symmetry_equiv_pos_as_xyz
  1  'x, y, z'
loop_
 _atom_site_type_symbol
 _atom_site_label
 _atom_site_symmetry_multiplicity
 _atom_site_fract_x
 _atom_site_fract_y
 _atom_site_fract_z
 _atom_site_occupancy
 _atom_site_pbe_bader_charge
 _atom_site_pbe_bader_spin_density
 _atom_site_pbe_cm5_charge
 _atom_site_pbe_ddec_charge
 _atom_site_pbe_ddec_spin_density
 _atom_site_pbe_ddec_sum_bond_order
 _atom_site_pbe_magmom
Co  Co0  1  0.90639122  0.09436013  0.24990430  1  1.315178  2.646986  0.691484  0.907292  2.884477  2.633689  2.63
Co  Co1  1  0.09360393  0.90564809  0.75009498  1  1.315202  2.647015  0.691482  0.907358  2.884511  2.633618  2.63
Co  Co2  1  0.84529093  0.99308538  0.00101850  1  1.223525  2.562442  0.675506  0.847993  2.741332  2.56394  2.516
Co  Co3  1  0.00627158  0.15499018  0.49887223  1  1.224984  2.562581  0.676528  0.848476  2.741398  2.564451  2.516
Co  Co4  1  0.15471556  0.00691147  0.99898260  1  1.223437  2.562413  0.675502  0.847972  2.74128  2.563845  2.516
Co  Co5  1  0.99372158  0.84501530  0.50113000  1  1.224959  2.56259  0.676583  0.848517  2.741405  2.564474  2.516
H  H6  1  0.53748042  0.16623372  0.41128938  1  0.074397  0.000391  0.104497  0.110386  9.2e-05  1.004703  0.0
H  H7  1  0.83244332  0.46311347  0.08990335  1  0.076906  0.000386  0.104455  0.110387  8.6e-05  1.004384  0.0
H  H8  1  0.46251904  0.83375344  0.58871697  1  0.074263  0.00039  0.104502  0.11049  9.1e-05  1.004655  0.0
H  H9  1  0.16756207  0.53688746  0.91009395  1  0.076842  0.000386  0.10444  0.110371  8.6e-05  1.00433  0.0
H  H10  1  0.33436300  0.15451838  0.51369313  1  0.083705  0.000688  0.108969  0.119903  0.000222  0.999084  0.0
H  H11  1  0.84320380  0.66648241  0.98733699  1  0.097429  0.000674  0.109157  0.120325  0.000207  0.999645  0.0
H  H12  1  0.66562815  0.84548061  0.48630941  1  0.083757  0.000688  0.108962  0.119842  0.000222  0.999149  0.0
H  H13  1  0.15680151  0.33352307  0.01265646  1  0.097498  0.000674  0.10917  0.120284  0.000207  0.999682  0.0
H  H14  1  0.42814678  0.07186730  0.05646731  1  0.099745  0.000995  0.110819  0.127297  0.000304  1.031824  0.0
H  H15  1  0.93201830  0.57151675  0.44313654  1  0.10462  0.001003  0.110673  0.127295  0.000315  1.03385  0.0
H  H16  1  0.57185875  0.92813285  0.94353831  1  0.099594  0.000995  0.110813  0.127277  0.000304  1.031828  0.0
H  H17  1  0.06797382  0.42848915  0.55686478  1  0.104559  0.001004  0.110704  0.127342  0.000315  1.033792  0.0
H  H18  1  0.87951583  0.20885312  0.04580731  1  0.583026  0.004233  0.308414  0.394093  0.002874  0.899628  0.005
H  H19  1  0.79141105  0.12047668  0.45436320  1  0.584616  0.004196  0.308022  0.393213  0.002941  0.900194  0.005
H  H20  1  0.12048550  0.79114966  0.95419285  1  0.583048  0.004233  0.308385  0.394017  0.002875  0.899683  0.005
H  H21  1  0.20858613  0.87952876  0.54563426  1  0.58466  0.004196  0.307997  0.393193  0.002941  0.900303  0.005
C  C22  1  0.62300875  0.11731472  0.17736333  1  1.551181  0.001782  0.214181  0.58903  0.000381  4.158063  0.002
C  C23  1  0.88339434  0.37741055  0.32299739  1  1.561271  0.003076  0.215251  0.591254  0.001558  4.154473  0.003
C  C24  1  0.37699166  0.88268026  0.82264085  1  1.550547  0.001788  0.214237  0.589098  0.000384  4.158158  0.002
C  C25  1  0.11660390  0.62258612  0.67699943  1  1.561425  0.003075  0.215302  0.591277  0.001559  4.154612  0.003
C  C26  1  0.49382290  0.11898671  0.22958705  1  -0.005799  0.009781  -0.020979  -0.039156  0.004829  3.976077  0.008
C  C27  1  0.88240413  0.50612965  0.27070145  1  -0.007108  0.009813  -0.021185  -0.039449  0.00489  3.976138  0.008
C  C28  1  0.50617751  0.88099713  0.77041386  1  -0.006007  0.009778  -0.021028  -0.039199  0.004828  3.976151  0.008
C  C29  1  0.11759933  0.49386396  0.72930082  1  -0.007302  0.009814  -0.021178  -0.039432  0.004891  3.976142  0.008
C  C30  1  0.46620467  0.14320928  0.35807713  1  0.012982  -0.001382  -0.087037  -0.095021  -0.002148  3.99367  -0.001
C  C31  1  0.85649532  0.53417235  0.14259886  1  0.016422  -0.000418  -0.086188  -0.094177  -0.001091  3.991636  0.0
C  C32  1  0.53379154  0.85678739  0.64192069  1  0.012993  -0.001381  -0.087035  -0.095162  -0.002147  3.993508  -0.001
C  C33  1  0.14350703  0.46582997  0.85740127  1  0.016686  -0.000422  -0.086204  -0.094196  -0.001095  3.991556  0.0
C  C34  1  0.35441135  0.13707998  0.41513888  1  -0.042697  0.001957  -0.088257  -0.154453  0.000724  3.997533  0.001
C  C35  1  0.86203281  0.64609241  0.08553611  1  -0.072718  0.001663  -0.088742  -0.154855  0.000541  3.997288  0.001
C  C36  1  0.64559107  0.86291870  0.58486416  1  -0.04267  0.001957  -0.088235  -0.154271  0.000724  3.997644  0.001
C  C37  1  0.13797258  0.35390758  0.91446030  1  -0.073071  0.001664  -0.088676  -0.154762  0.000542  3.997422  0.001
C  C38  1  0.26807297  0.10587939  0.33989183  1  0.42744  0.007188  0.09846  0.137852  0.004244  4.053132  0.008
C  C39  1  0.89423830  0.73221498  0.16037250  1  0.424895  0.008166  0.098707  0.137329  0.004913  4.053469  0.008
C  C40  1  0.73192639  0.89411416  0.66011060  1  0.427288  0.007191  0.098386  0.137751  0.004246  4.05334  0.008
C  C41  1  0.10576203  0.26778828  0.83962952  1  0.424877  0.008162  0.098678  0.137369  0.00491  4.053564  0.008
C  C42  1  0.29416111  0.08230022  0.21160283  1  0.375717  0.01095  0.094968  0.131996  0.005987  4.037003  0.01
C  C43  1  0.91939982  0.70571727  0.28825552  1  0.379926  0.011305  0.095892  0.132638  0.006185  4.038196  0.01
C  C44  1  0.70583410  0.91770158  0.78839853  1  0.376049  0.010951  0.094978  0.131929  0.005987  4.036777  0.01
C  C45  1  0.08060156  0.29428463  0.71174744  1  0.379595  0.011304  0.095936  0.132821  0.006183  4.038201  0.01
C  C46  1  0.40749235  0.08937423  0.15464253  1  0.008337  -0.001666  -0.077209  -0.155953  -0.003168  3.92418  -0.001
C  C47  1  0.91304112  0.59220966  0.34526813  1  -0.010602  -0.000652  -0.077135  -0.1559  -0.002105  3.924513  0.0
C  C48  1  0.59250293  0.91061743  0.84536013  1  0.008431  -0.001663  -0.077149  -0.155842  -0.003164  3.923932  -0.001
C  C49  1  0.08695410  0.40779307  0.65473411  1  -0.010039  -0.000656  -0.077182  -0.156004  -0.002109  3.924459  0.0
N  N50  1  0.15122261  0.09258968  0.36600823  1  -0.71759  0.073151  -0.245722  -0.238107  0.03739  3.557427  0.056
N  N51  1  0.90730754  0.84912196  0.13419056  1  -0.715145  0.073514  -0.24497  -0.237845  0.037622  3.556985  0.057
N  N52  1  0.84877249  0.90741476  0.63398657  1  -0.717301  0.073157  -0.245715  -0.238086  0.037391  3.557355  0.056
N  N53  1  0.09270404  0.15087630  0.86580844  1  -0.715308  0.073506  -0.244936  -0.237842  0.037618  3.556835  0.057
N  N54  1  0.10791599  0.06361465  0.26093486  1  -0.175823  0.048275  -0.118789  -0.048126  0.025426  3.580966  0.043
N  N55  1  0.93751778  0.89218818  0.23889535  1  -0.174075  0.04828  -0.116868  -0.045642  0.025422  3.571422  0.043
N  N56  1  0.89208008  0.93639114  0.73905709  1  -0.175897  0.048274  -0.118736  -0.048132  0.025424  3.581044  0.043
N  N57  1  0.06248760  0.10781831  0.76110266  1  -0.173839  0.048284  -0.116882  -0.04571  0.025424  3.571604  0.043
N  N58  1  0.19070872  0.05593217  0.16602159  1  -0.697268  0.055675  -0.243658  -0.242395  0.028994  3.542049  0.035
N  N59  1  0.94628055  0.80905615  0.33357601  1  -0.675645  0.056686  -0.244514  -0.241894  0.029528  3.541437  0.035
N  N60  1  0.80929256  0.94406775  0.83397407  1  -0.697259  0.055678  -0.243705  -0.242408  0.028996  3.541968  0.035
N  N61  1  0.05371566  0.19095538  0.66642679  1  -0.675627  0.056674  -0.244563  -0.242047  0.029522  3.541784  0.035
O  O62  1  0.92607513  0.11034057  0.06140778  1  -1.150089  0.231735  -0.55249  -0.838484  0.123172  2.356897  0.19
O  O63  1  0.88988810  0.07391238  0.43828768  1  -1.149614  0.232968  -0.551812  -0.837378  0.123652  2.358462  0.191
O  O64  1  0.07392409  0.88966024  0.93858700  1  -1.150112  0.231724  -0.552468  -0.838407  0.123166  2.356873  0.19
O  O65  1  0.11011123  0.92608763  0.56171451  1  -1.149654  0.232982  -0.551816  -0.837379  0.123658  2.358571  0.191
O  O66  1  0.69757966  0.14520036  0.25001908  1  -1.158718  0.072176  -0.308413  -0.546288  0.036533  2.354125  0.064
O  O67  1  0.85438251  0.30319706  0.25049632  1  -1.162728  0.072719  -0.308681  -0.546799  0.036763  2.351241  0.063
O  O68  1  0.30242982  0.85478945  0.74997386  1  -1.158228  0.072172  -0.308416  -0.546314  0.036531  2.354089  0.064
O  O69  1  0.14561041  0.69681278  0.74949191  1  -1.162831  0.072731  -0.308727  -0.546792  0.03677  2.351386  0.063
O  O70  1  0.65196293  0.08366618  0.06343689  1  -1.154858  0.094509  -0.322175  -0.557265  0.047822  2.343371  0.076
O  O71  1  0.91730533  0.34841228  0.43656376  1  -1.155715  0.094167  -0.321184  -0.557596  0.047698  2.344561  0.075
O  O72  1  0.34804993  0.91631058  0.93657209  1  -1.154818  0.094506  -0.322199  -0.557298  0.047822  2.343267  0.076
O  O73  1  0.08268782  0.65159783  0.56343921  1  -1.155857  0.094173  -0.321184  -0.557601  0.047698  2.344648  0.075
