# generated using pymatgen
data_AgH14C14S4N5O3
_symmetry_space_group_name_H-M   'P 1'
_cell_length_a   9.43861396
_cell_length_b   9.43859804
_cell_length_c   11.32767099
_cell_angle_alpha   90.12870045
_cell_angle_beta   90.12932804
_cell_angle_gamma   112.23125657
_symmetry_Int_Tables_number   1
_chemical_formula_structural   AgH14C14S4N5O3
_chemical_formula_sum   'Ag2 H28 C28 S8 N10 O6'
_cell_volume   934.12785935
_cell_formula_units_Z   2
loop_
 _symmetry_equiv_pos_site_id
 _symmetry_equiv_pos_as_xyz
  1  'x, y, z'
loop_
 _atom_site_type_symbol
 _atom_site_label
 _atom_site_symmetry_multiplicity
 _atom_site_fract_x
 _atom_site_fract_y
 _atom_site_fract_z
 _atom_site_occupancy
 _atom_site_hle17_bader_spin_density
 _atom_site_hle17_ddec_charge
 _atom_site_hle17_ddec_spin_density
 _atom_site_hle17_ddec_sum_bond_order
 _atom_site_hle17_magmom
 _atom_site_hse06_10hf_bader_spin_density
 _atom_site_hse06_10hf_ddec_charge
 _atom_site_hse06_10hf_ddec_spin_density
 _atom_site_hse06_10hf_ddec_sum_bond_order
 _atom_site_hse06_10hf_magmom
 _atom_site_hse06_bader_spin_density
 _atom_site_hse06_ddec_charge
 _atom_site_hse06_ddec_spin_density
 _atom_site_hse06_ddec_sum_bond_order
 _atom_site_hse06_magmom
 _atom_site_pbe_bader_spin_density
 _atom_site_pbe_cm5_charge
 _atom_site_pbe_ddec_charge
 _atom_site_pbe_ddec_spin_density
 _atom_site_pbe_ddec_sum_bond_order
 _atom_site_pbe_magmom
Ag  Ag0  1  0.91561987  0.08438158  0.24999953  1  0  0.490417  0  1.476962  0  0  0.332168  0  1.940656  0  0  0.361057  0  1.895705  0  0  0.453318  0.312032  0  1.972621  0
Ag  Ag1  1  0.08438209  0.91562342  0.75000087  1  0  0.490427  0  1.476894  0  0  0.33219  0  1.94059  0  0  0.361245  0  1.895558  0  0  0.453316  0.312055  0  1.972555  0
H  H2  1  0.87268207  0.52738168  0.07832382  1  0  0.148004  0  0.944809  0  0  0.165324  0  1.005438  0  0  0.168155  0  1.003769  0  0  0.101852  0.163105  0  1.008119  0
H  H3  1  0.52738423  0.87267445  0.57832382  1  0  0.147989  0  0.944796  0  0  0.165299  0  1.005428  0  0  0.168155  0  1.00371  0  0  0.101829  0.16308  0  1.00811  0
H  H4  1  0.12731946  0.47262217  0.92167658  1  0  0.147998  0  0.944714  0  0  0.165321  0  1.005344  0  0  0.168175  0  1.003627  0  0  0.101832  0.163098  0  1.008031  0
H  H5  1  0.47261683  0.12731681  0.42168272  1  0  0.147968  0  0.944731  0  0  0.165292  0  1.005372  0  0  0.168125  0  1.003702  0  0  0.101824  0.163069  0  1.008064  0
H  H6  1  0.92291574  0.56900331  0.92606851  1  0  0.139225  0  0.947125  0  0  0.158792  0  1.008608  0  0  0.160375  0  1.008887  0  0  0.098632  0.157933  0  1.00909  0
H  H7  1  0.56899909  0.92290900  0.42606790  1  0  0.139215  0  0.947116  0  0  0.158788  0  1.008589  0  0  0.160358  0  1.008895  0  0  0.098644  0.157929  0  1.009069  0
H  H8  1  0.07708642  0.43099940  0.07393366  1  0  0.139228  0  0.947142  0  0  0.158817  0  1.008596  0  0  0.160387  0  1.008902  0  0  0.098634  0.157958  0  1.009076  0
H  H9  1  0.43099220  0.07708450  0.57393684  1  0  0.139113  0  0.94718  0  0  0.158706  0  1.008653  0  0  0.160291  0  1.00893  0  0  0.098598  0.157848  0  1.009135  0
H  H10  1  0.72802161  0.47398737  0.96691169  1  0  0.127471  0  0.953909  0  0  0.146095  0  1.01566  0  0  0.146899  0  1.017609  0  0  0.093017  0.144767  0  1.015708  0
H  H11  1  0.47398482  0.72801552  0.46691155  1  0  0.127456  0  0.953912  0  0  0.146047  0  1.015693  0  0  0.14685  0  1.017642  0  0  0.092975  0.144712  0  1.015748  0
H  H12  1  0.27197823  0.52601761  0.03308959  1  0  0.1275  0  0.953972  0  0  0.146114  0  1.015715  0  0  0.146918  0  1.017662  0  0  0.092981  0.144785  0  1.015763  0
H  H13  1  0.52601476  0.27198031  0.53309411  1  0  0.127459  0  0.953894  0  0  0.146063  0  1.015668  0  0  0.146865  0  1.017619  0  0  0.09299  0.144736  0  1.015714  0
H  H14  1  0.75539054  0.04838509  0.76350023  1  0  0.105542  0  0.971306  0  0  0.112171  0  1.048805  0  0  0.11421  0  1.047179  0  0  0.096223  0.110602  0  1.049531  0
H  H15  1  0.04837538  0.75538409  0.26349535  1  0  0.105558  0  0.971357  0  0  0.112249  0  1.048772  0  0  0.114297  0  1.047122  0  0  0.096279  0.110668  0  1.049526  0
H  H16  1  0.24461930  0.95162111  0.23649667  1  0  0.105562  0  0.97131  0  0  0.112242  0  1.048735  0  0  0.114288  0  1.04709  0  0  0.096243  0.110662  0  1.049488  0
H  H17  1  0.95162852  0.24462323  0.73649801  1  0  0.105498  0  0.971393  0  0  0.112226  0  1.048785  0  0  0.114278  0  1.047138  0  0  0.09626  0.11064  0  1.049549  0
H  H18  1  0.56260126  0.98292382  0.81540257  1  0  0.120195  0  0.957715  0  0  0.12808  0  1.026697  0  0  0.13066  0  1.024857  0  0  0.098628  0.126433  0  1.027375  0
H  H19  1  0.98291547  0.56260381  0.31540023  1  0  0.120148  0  0.95777  0  0  0.128052  0  1.026742  0  0  0.130597  0  1.024962  0  0  0.098572  0.1264  0  1.027419  0
H  H20  1  0.43740557  0.01707435  0.18459783  1  0  0.12019  0  0.957733  0  0  0.128097  0  1.026694  0  0  0.130643  0  1.024911  0  0  0.098643  0.126451  0  1.027368  0
H  H21  1  0.01707953  0.43740803  0.68459311  1  0  0.120166  0  0.957729  0  0  0.128111  0  1.026674  0  0  0.130694  0  1.024836  0  0  0.098617  0.126455  0  1.027358  0
H  H22  1  0.43586852  0.15563680  0.85736502  1  0  0.088559  0  0.993126  0  0  0.094159  0  1.065702  0  0  0.096419  0  1.065624  0  0  0.091718  0.092322  0  1.066085  0
H  H23  1  0.15561175  0.43585489  0.35734700  1  0  0.088608  0  0.993095  0  0  0.094133  0  1.065749  0  0  0.096388  0  1.065677  0  0  0.091675  0.092296  0  1.066132  0
H  H24  1  0.56413042  0.84435447  0.14263709  1  0  0.088618  0  0.993182  0  0  0.09414  0  1.065843  0  0  0.096395  0  1.065774  0  0  0.091715  0.092304  0  1.066224  0
H  H25  1  0.84437178  0.56413752  0.64263211  1  0  0.088569  0  0.993106  0  0  0.094155  0  1.065709  0  0  0.096415  0  1.065629  0  0  0.09168  0.092318  0  1.066091  0
H  H26  1  0.40036297  0.39799225  0.80591065  1  0  0.097212  0  0.969983  0  0  0.105824  0  1.033843  0  0  0.108346  0  1.033176  0  0  0.096102  0.104018  0  1.034044  0
H  H27  1  0.39796402  0.40034067  0.30590534  1  0  0.097312  0  0.969958  0  0  0.105907  0  1.033818  0  0  0.108414  0  1.033178  0  0  0.096147  0.104102  0  1.034019  0
H  H28  1  0.59963131  0.60199786  0.19408968  1  0  0.097189  0  0.969784  0  0  0.10579  0  1.033677  0  0  0.108297  0  1.033041  0  0  0.096084  0.103983  0  1.033876  0
H  H29  1  0.60201413  0.59964024  0.69408607  1  0  0.097214  0  0.969954  0  0  0.105806  0  1.033839  0  0  0.108326  0  1.033173  0  0  0.096084  0.104002  0  1.03404  0
C  C30  1  0.83783464  0.56187523  0.99428401  1  0  -0.371852  0  3.698009  0  0  -0.449194  0  3.931112  0  0  -0.453789  0  3.939551  0  0  -0.239876  -0.447017  0  3.927223  0
C  C31  1  0.56187540  0.83782557  0.49428289  1  0  -0.371769  0  3.698055  0  0  -0.449103  0  3.931172  0  0  -0.453694  0  3.939594  0  0  -0.239813  -0.446921  0  3.927292  0
C  C32  1  0.16217007  0.43812862  0.00572081  1  0  -0.371928  0  3.69802  0  0  -0.449292  0  3.931189  0  0  -0.45388  0  3.93961  0  0  -0.239853  -0.447114  0  3.9273  0
C  C33  1  0.43812353  0.16216569  0.50572275  1  0  -0.371679  0  3.697889  0  0  -0.44904  0  3.931012  0  0  -0.453637  0  3.939452  0  0  -0.23982  -0.446863  0  3.927125  0
C  C34  1  0.82497905  0.71259443  0.01001607  1  0  0.22304  0  3.701995  0  0  0.221254  0  3.994955  0  0  0.231556  0  4.009653  0  0  0.130408  0.215864  0  3.983143  0
C  C35  1  0.71259433  0.82497557  0.51001361  1  0  0.222912  0  3.702192  0  0  0.221157  0  3.995078  0  0  0.231456  0  4.009779  0  0  0.130394  0.215767  0  3.983265  0
C  C36  1  0.17502609  0.28741057  0.98998611  1  0  0.223057  0  3.701897  0  0  0.22122  0  3.994934  0  0  0.231521  0  4.009634  0  0  0.130399  0.215832  0  3.983116  0
C  C37  1  0.28740549  0.17502370  0.48998677  1  0  0.222881  0  3.70219  0  0  0.221072  0  3.995189  0  0  0.231373  0  4.009888  0  0  0.130424  0.215684  0  3.983376  0
C  C38  1  0.78585613  0.95020065  0.99661448  1  0  0.076892  0  3.800295  0  0  0.064913  0  4.105664  0  0  0.077978  0  4.119692  0  0  0.115069  0.056356  0  4.095652  0
C  C39  1  0.95020167  0.78585532  0.49661187  1  0  0.076913  0  3.800112  0  0  0.064834  0  4.105643  0  0  0.0779  0  4.119671  0  0  0.115039  0.056277  0  4.095633  0
C  C40  1  0.21414709  0.04980206  0.00338857  1  0  0.076904  0  3.800074  0  0  0.064839  0  4.105575  0  0  0.077903  0  4.119604  0  0  0.115011  0.056285  0  4.095556  0
C  C41  1  0.04979965  0.21414511  0.50338675  1  0  0.07687  0  3.800142  0  0  0.064808  0  4.10563  0  0  0.077873  0  4.119656  0  0  0.115018  0.056254  0  4.095612  0
C  C42  1  0.67453649  0.07833882  0.81784919  1  0  -0.201188  0  3.642448  0  0  -0.237139  0  3.88654  0  0  -0.236986  0  3.896142  0  0  -0.14651  -0.236217  0  3.878792  0
C  C43  1  0.07832940  0.67453272  0.31784394  1  0  -0.201074  0  3.64219  0  0  -0.237121  0  3.886379  0  0  -0.236978  0  3.896009  0  0  -0.146516  -0.236197  0  3.878629  0
C  C44  1  0.32547311  0.92166393  0.18215123  1  0  -0.201138  0  3.642444  0  0  -0.237147  0  3.886546  0  0  -0.236999  0  3.896169  0  0  -0.14654  -0.236227  0  3.878791  0
C  C45  1  0.92166666  0.32547342  0.68214673  1  0  -0.201036  0  3.642212  0  0  -0.237191  0  3.886513  0  0  -0.237057  0  3.896154  0  0  -0.146541  -0.236264  0  3.87877  0
C  C46  1  0.65886408  0.22447528  0.78023501  1  0  0.054757  0  3.72  0  0  0.076538  0  3.945049  0  0  0.07556  0  3.969705  0  0  -0.013396  0.077248  0  3.928017  0
C  C47  1  0.22446761  0.65886232  0.28022698  1  0  0.054724  0  3.719748  0  0  0.076492  0  3.944853  0  0  0.07551  0  3.969509  0  0  -0.013307  0.077203  0  3.927816  0
C  C48  1  0.34112403  0.77552390  0.21977416  1  0  0.054605  0  3.719821  0  0  0.076393  0  3.944902  0  0  0.07541  0  3.969555  0  0  -0.013431  0.077105  0  3.927865  0
C  C49  1  0.77553288  0.34114154  0.71976812  1  0  0.05472  0  3.719619  0  0  0.076488  0  3.944749  0  0  0.075516  0  3.969402  0  0  -0.013308  0.0772  0  3.927713  0
C  C50  1  0.52513172  0.24711565  0.81099905  1  0  -0.115297  0  3.733384  0  0  -0.134115  0  3.980978  0  0  -0.136902  0  4.003167  0  0  -0.096879  -0.131993  0  3.9663  0
C  C51  1  0.24708756  0.52510994  0.31099425  1  0  -0.115173  0  3.732599  0  0  -0.133912  0  3.980134  0  0  -0.1367  0  4.002317  0  0  -0.096754  -0.131792  0  3.96546  0
C  C52  1  0.47487977  0.75287797  0.18900046  1  0  -0.115216  0  3.733155  0  0  -0.133999  0  3.980759  0  0  -0.136786  0  4.00295  0  0  -0.09679  -0.131878  0  3.966081  0
C  C53  1  0.75288933  0.47487895  0.68899895  1  0  -0.115379  0  3.733434  0  0  -0.134184  0  3.981023  0  0  -0.136973  0  4.003205  0  0  -0.096889  -0.132063  0  3.966345  0
C  C54  1  0.50446601  0.38132107  0.78130569  1  0  -0.075347  0  3.775779  0  0  -0.088617  0  4.024913  0  0  -0.090903  0  4.046963  0  0  -0.097682  -0.087578  0  4.009214  0
C  C55  1  0.38131395  0.50445244  0.28129287  1  0  -0.075588  0  3.776013  0  0  -0.088808  0  4.02509  0  0  -0.091101  0  4.047167  0  0  -0.097784  -0.087769  0  4.009392  0
C  C56  1  0.49551507  0.61866210  0.21869721  1  0  -0.075332  0  3.776332  0  0  -0.088607  0  4.025449  0  0  -0.0909  0  4.047512  0  0  -0.097715  -0.087566  0  4.009748  0
C  C57  1  0.61869207  0.49554348  0.71869516  1  0  -0.075234  0  3.775887  0  0  -0.08847  0  4.024977  0  0  -0.090757  0  4.047046  0  0  -0.097591  -0.08743  0  4.009277  0
S  S58  1  0.74601953  0.79473456  0.90342223  1  0  0.10946  0  2.505058  0  0  0.119616  0  2.837955  0  0  0.119677  0  2.835829  0  0  0.139093  0.120813  0  2.836149  0
S  S59  1  0.79473592  0.74602013  0.40341910  1  0  0.109499  0  2.505015  0  0  0.119679  0  2.837941  0  0  0.119731  0  2.83583  0  0  0.139106  0.120879  0  2.836134  0
S  S60  1  0.25398263  0.20526814  0.09658082  1  0  0.109463  0  2.505031  0  0  0.119663  0  2.837998  0  0  0.119714  0  2.835889  0  0  0.139121  0.120862  0  2.836189  0
S  S61  1  0.20526477  0.25398144  0.59657953  1  0  0.109547  0  2.505098  0  0  0.119741  0  2.838033  0  0  0.119802  0  2.835905  0  0  0.139135  0.120941  0  2.836225  0
S  S62  1  0.74429274  0.11016670  0.97051782  1  0  0.091097  0  2.402234  0  0  0.090106  0  2.740505  0  0  0.083763  0  2.742806  0  0  0.058139  0.09167  0  2.744226  0
S  S63  1  0.11016920  0.74429414  0.47051246  1  0  0.09101  0  2.402152  0  0  0.090056  0  2.740518  0  0  0.083735  0  2.74279  0  0  0.058108  0.091623  0  2.744236  0
S  S64  1  0.25571580  0.88983605  0.02948172  1  0  0.091054  0  2.402147  0  0  0.09008  0  2.740509  0  0  0.083759  0  2.742781  0  0  0.058139  0.091644  0  2.74423  0
S  S65  1  0.88983322  0.25571203  0.52948001  1  0  0.091056  0  2.40205  0  0  0.090113  0  2.74044  0  0  0.083777  0  2.742748  0  0  0.058127  0.091679  0  2.744157  0
N  N66  1  0.87330246  0.79870808  0.10392923  1  0  -0.237539  0  3.035568  0  0  -0.22147  0  3.320556  0  0  -0.230962  0  3.338299  0  0  -0.21929  -0.214407  0  3.307091  0
N  N67  1  0.79871124  0.87330011  0.60392607  1  0  -0.237416  0  3.035575  0  0  -0.221344  0  3.320535  0  0  -0.230831  0  3.33828  0  0  -0.219233  -0.214284  0  3.307069  0
N  N68  1  0.12670140  0.20129349  0.89607294  1  0  -0.237535  0  3.035492  0  0  -0.221439  0  3.320482  0  0  -0.230928  0  3.338225  0  0  -0.219276  -0.214376  0  3.307014  0
N  N69  1  0.20128879  0.12669688  0.39607430  1  0  -0.23741  0  3.035607  0  0  -0.221339  0  3.320607  0  0  -0.230833  0  3.338352  0  0  -0.219242  -0.214276  0  3.307138  0
N  N70  1  0.85145564  0.93365461  0.09676867  1  0  -0.240526  0  3.345255  0  0  -0.175049  0  3.662089  0  0  -0.190487  0  3.675915  0  0  -0.266857  -0.163801  0  3.651737  0
N  N71  1  0.93365767  0.85145757  0.59676536  1  0  -0.240527  0  3.345222  0  0  -0.175042  0  3.66211  0  0  -0.190478  0  3.675917  0  0  -0.266857  -0.163793  0  3.651756  0
N  N72  1  0.14854631  0.06635038  0.90323527  1  0  -0.240387  0  3.345013  0  0  -0.174952  0  3.662016  0  0  -0.190387  0  3.675824  0  0  -0.266802  -0.163704  0  3.651664  0
N  N73  1  0.06634470  0.14854287  0.40323415  1  0  -0.240486  0  3.345145  0  0  -0.175006  0  3.662047  0  0  -0.190442  0  3.675872  0  0  -0.26685  -0.163758  0  3.651695  0
N  N74  1  0.72513333  0.27487263  0.25000397  1  0  0.678752  0  4.170269  0  0  0.708769  0  4.463957  0  0  0.735389  0  4.471082  0  0  0.085183  0.702863  0  4.440303  0
N  N75  1  0.27487519  0.72513580  0.75000529  1  0  0.678822  0  4.17025  0  0  0.708851  0  4.463911  0  0  0.737528  0  4.470582  0  0  0.08526  0.702992  0  4.44018  0
O  O76  1  0.66624417  0.13189193  0.27469814  1  0  -0.503718  0  1.814771  0  0  -0.47985  0  2.056707  0  0  -0.497427  0  2.048716  0  0  -0.211915  -0.471863  0  2.057962  0
O  O77  1  0.13189338  0.66624750  0.77469731  1  0  -0.503693  0  1.814805  0  0  -0.479829  0  2.056727  0  0  -0.49825  0  2.048718  0  0  -0.211895  -0.471863  0  2.057976  0
O  O78  1  0.33375670  0.86811873  0.72531464  1  0  -0.503641  0  1.814463  0  0  -0.479812  0  2.056458  0  0  -0.498235  0  2.048448  0  0  -0.211925  -0.471837  0  2.057691  0
O  O79  1  0.86811427  0.33375293  0.22531104  1  0  -0.503626  0  1.814491  0  0  -0.479794  0  2.056487  0  0  -0.49737  0  2.048496  0  0  -0.211904  -0.471812  0  2.057757  0
O  O80  1  0.64534054  0.35467222  0.25000187  1  0  -0.441401  0  1.725824  0  0  -0.435929  0  1.933202  0  0  -0.448654  0  1.928625  0  0  -0.191585  -0.431502  0  1.931105  0
O  O81  1  0.35467206  0.64534424  0.75000038  1  0  -0.441509  0  1.725841  0  0  -0.436048  0  1.933225  0  0  -0.449625  0  1.928573  0  0  -0.191658  -0.431638  0  1.931107  0
