# generated using pymatgen
data_H12PbC17N2(ClO)2
_symmetry_space_group_name_H-M   'P 1'
_cell_length_a   8.35250051
_cell_length_b   9.45320440
_cell_length_c   10.75808836
_cell_angle_alpha   95.55791158
_cell_angle_beta   91.83859776
_cell_angle_gamma   92.29350778
_symmetry_Int_Tables_number   1
_chemical_formula_structural   H12PbC17N2(ClO)2
_chemical_formula_sum   'H24 Pb2 C34 N4 Cl4 O4'
_cell_volume   844.21296835
_cell_formula_units_Z   2
loop_
 _symmetry_equiv_pos_site_id
 _symmetry_equiv_pos_as_xyz
  1  'x, y, z'
loop_
 _atom_site_type_symbol
 _atom_site_label
 _atom_site_symmetry_multiplicity
 _atom_site_fract_x
 _atom_site_fract_y
 _atom_site_fract_z
 _atom_site_occupancy
 _atom_site_hle17_bader_spin_density
 _atom_site_hle17_ddec_charge
 _atom_site_hle17_ddec_spin_density
 _atom_site_hle17_ddec_sum_bond_order
 _atom_site_hle17_magmom
 _atom_site_hse06_10hf_bader_spin_density
 _atom_site_hse06_10hf_ddec_charge
 _atom_site_hse06_10hf_ddec_spin_density
 _atom_site_hse06_10hf_ddec_sum_bond_order
 _atom_site_hse06_10hf_magmom
 _atom_site_hse06_bader_spin_density
 _atom_site_hse06_ddec_charge
 _atom_site_hse06_ddec_spin_density
 _atom_site_hse06_ddec_sum_bond_order
 _atom_site_hse06_magmom
 _atom_site_pbe_bader_spin_density
 _atom_site_pbe_cm5_charge
 _atom_site_pbe_ddec_charge
 _atom_site_pbe_ddec_spin_density
 _atom_site_pbe_ddec_sum_bond_order
 _atom_site_pbe_magmom
H  H0  1  0.43150300  0.74206668  0.68580281  1  0  0.091905  0  0.974598  0  0  0.099458  0  1.039334  0  0  0.102391  0  1.036864  0  0  0.115654  0.0976  0  1.04095  0
H  H1  1  0.56856450  0.25792414  0.31405498  1  0  0.091961  0  0.974603  0  0  0.099552  0  1.039305  0  0  0.102486  0  1.03683  0  0  0.115743  0.097691  0  1.040931  0
H  H2  1  0.48735655  0.49491089  0.74635849  1  0  0.098166  0  0.971075  0  0  0.103338  0  1.041813  0  0  0.10684  0  1.040002  0  0  0.099603  0.100953  0  1.04341  0
H  H3  1  0.51260300  0.50514553  0.25368148  1  0  0.098293  0  0.970944  0  0  0.103397  0  1.041762  0  0  0.106878  0  1.040006  0  0  0.099626  0.101031  0  1.043305  0
H  H4  1  0.35903615  0.28611515  0.61666489  1  0  0.094465  0  0.955617  0  0  0.106718  0  1.013408  0  0  0.10853  0  1.012775  0  0  0.107412  0.104864  0  1.01488  0
H  H5  1  0.64096617  0.71386678  0.38343127  1  0  0.09442  0  0.955114  0  0  0.106639  0  1.012975  0  0  0.10845  0  1.012336  0  0  0.107355  0.10478  0  1.014458  0
H  H6  1  0.17669919  0.32421268  0.43753168  1  0  0.107118  0  1.005596  0  0  0.113757  0  1.073477  0  0  0.117433  0  1.071623  0  0  0.092574  0.111551  0  1.073456  0
H  H7  1  0.82343667  0.67566649  0.56245792  1  0  0.10751  0  1.005397  0  0  0.114141  0  1.073205  0  0  0.117809  0  1.071331  0  0  0.092767  0.111935  0  1.073185  0
H  H8  1  0.06440860  0.36356910  0.28143444  1  0  0.111665  0  0.98438  0  0  0.121641  0  1.04543  0  0  0.124931  0  1.044125  0  0  0.097668  0.118888  0  1.047275  0
H  H9  1  0.93556795  0.63633277  0.71848894  1  0  0.111831  0  0.984411  0  0  0.121806  0  1.045388  0  0  0.125067  0  1.044119  0  0  0.097786  0.119045  0  1.047253  0
H  H10  1  0.89878744  0.42352334  0.10066855  1  0  0.088831  0  0.954243  0  0  0.099628  0  1.014774  0  0  0.102287  0  1.013073  0  0  0.10034  0.097246  0  1.016657  0
H  H11  1  0.10121329  0.57645077  0.89924101  1  0  0.088619  0  0.954376  0  0  0.099635  0  1.014701  0  0  0.102213  0  1.013088  0  0  0.100461  0.097334  0  1.016507  0
H  H12  1  0.85088241  0.68203387  0.07658101  1  0  0.096329  0  0.984099  0  0  0.105747  0  1.047033  0  0  0.107232  0  1.049389  0  0  0.100175  0.104457  0  1.045651  0
H  H13  1  0.14902660  0.31795038  0.92346376  1  0  0.096117  0  0.984442  0  0  0.105636  0  1.047227  0  0  0.107109  0  1.049583  0  0  0.100233  0.10437  0  1.045808  0
H  H14  1  0.97341632  0.86689336  0.23837882  1  0  0.072888  0  0.992819  0  0  0.078824  0  1.063943  0  0  0.080721  0  1.063311  0  0  0.100588  0.07764  0  1.064142  0
H  H15  1  0.02641981  0.13302638  0.76173960  1  0  0.072538  0  0.993211  0  0  0.078584  0  1.06423  0  0  0.080426  0  1.063642  0  0  0.100511  0.0774  0  1.064433  0
H  H16  1  0.73160134  0.07708502  0.18984519  1  0  0.096601  0  0.967387  0  0  0.101929  0  1.037567  0  0  0.105589  0  1.03471  0  0  0.097286  0.099574  0  1.039048  0
H  H17  1  0.26833835  0.92304900  0.81013663  1  0  0.096696  0  0.967402  0  0  0.102033  0  1.037528  0  0  0.105709  0  1.034638  0  0  0.097293  0.09966  0  1.039053  0
H  H18  1  0.87304018  0.05491546  0.98971774  1  0  0.090625  0  0.953121  0  0  0.101571  0  1.013856  0  0  0.104396  0  1.013111  0  0  0.098914  0.099515  0  1.014584  0
H  H19  1  0.12694656  0.94522487  0.01030110  1  0  0.090839  0  0.952778  0  0  0.101777  0  1.01353  0  0  0.104615  0  1.012776  0  0  0.099009  0.0997  0  1.014282  0
H  H20  1  0.79672219  0.85371789  0.82793521  1  0  0.097757  0  0.982025  0  0  0.105686  0  1.046709  0  0  0.10899  0  1.044451  0  0  0.088765  0.102992  0  1.048793  0
H  H21  1  0.20346220  0.14630918  0.17214324  1  0  0.097726  0  0.982108  0  0  0.105624  0  1.046777  0  0  0.10893  0  1.044514  0  0  0.088654  0.1029  0  1.048904  0
H  H22  1  0.57627076  0.67998996  0.86906923  1  0  0.096239  0  0.974319  0  0  0.105636  0  1.040074  0  0  0.108745  0  1.038611  0  0  0.097433  0.10346  0  1.041078  0
H  H23  1  0.42383426  0.32007660  0.13095198  1  0  0.096251  0  0.974379  0  0  0.105676  0  1.040118  0  0  0.108734  0  1.038725  0  0  0.097404  0.103543  0  1.041082  0
Pb  Pb24  1  0.24358337  0.91683852  0.47764781  1  0  1.158642  0  1.566785  0  0  0.964125  0  1.976387  0  0  1.020216  0  1.937084  0  0  0.555076  0.918454  0  2.007966  0
Pb  Pb25  1  0.75633929  0.08319989  0.52237207  1  0  1.158329  0  1.567746  0  0  0.963852  0  1.97753  0  0  1.019927  0  1.938208  0  0  0.554898  0.918257  0  2.009006  0
C  C26  1  0.37788245  0.64563660  0.63404242  1  0  0.117543  0  3.698362  0  0  0.088878  0  3.944893  0  0  0.094985  0  3.963936  0  0  0.050162  0.085321  0  3.931463  0
C  C27  1  0.62215889  0.35433525  0.36586611  1  0  0.117562  0  3.698331  0  0  0.088802  0  3.944882  0  0  0.094916  0  3.963912  0  0  0.050056  0.085236  0  3.931475  0
C  C28  1  0.40834918  0.50993372  0.66660068  1  0  -0.110761  0  3.721802  0  0  -0.124637  0  3.976278  0  0  -0.131165  0  3.997462  0  0  -0.083256  -0.120441  0  3.961906  0
C  C29  1  0.59166596  0.49006391  0.33338929  1  0  -0.11094  0  3.722224  0  0  -0.124769  0  3.976669  0  0  -0.131306  0  3.997838  0  0  -0.083194  -0.120565  0  3.962314  0
C  C30  1  0.33578521  0.39331442  0.59424484  1  0  0.013288  0  3.712228  0  0  -0.004817  0  3.959699  0  0  -0.001037  0  3.9789  0  0  -0.061922  -0.00657  0  3.946041  0
C  C31  1  0.66423766  0.60664817  0.40578701  1  0  0.013572  0  3.712081  0  0  -0.004426  0  3.959348  0  0  -0.000642  0  3.978545  0  0  -0.061688  -0.006186  0  3.945702  0
C  C32  1  0.23581382  0.41546572  0.49279306  1  0  -0.147708  0  3.700914  0  0  -0.16477  0  3.946813  0  0  -0.17244  0  3.968162  0  0  -0.082224  -0.159385  0  3.930826  0
C  C33  1  0.76424844  0.58444879  0.50719858  1  0  -0.148098  0  3.701179  0  0  -0.165284  0  3.94723  0  0  -0.172933  0  3.968558  0  0  -0.082394  -0.159895  0  3.931242  0
C  C34  1  0.21168979  0.55478275  0.46440290  1  0  0.17728  0  3.746208  0  0  0.170194  0  3.989891  0  0  0.177147  0  4.010337  0  0  0.123925  0.165744  0  3.97568  0
C  C35  1  0.78832754  0.44512013  0.53555412  1  0  0.177448  0  3.74601  0  0  0.170296  0  3.989387  0  0  0.177241  0  4.009832  0  0  0.123896  0.165844  0  3.975179  0
C  C36  1  0.10952764  0.58450103  0.35553163  1  0  0.186796  0  3.735662  0  0  0.180668  0  3.978638  0  0  0.188126  0  3.998081  0  0  0.129439  0.175492  0  3.965791  0
C  C37  1  0.89044448  0.41538500  0.64444330  1  0  0.186275  0  3.736483  0  0  0.180818  0  3.978507  0  0  0.188289  0  3.997926  0  0  0.129521  0.175641  0  3.965669  0
C  C38  1  0.04463732  0.47466347  0.26913555  1  0  -0.139149  0  3.678409  0  0  -0.15683  0  3.920608  0  0  -0.163963  0  3.941876  0  0  -0.081334  -0.152122  0  3.907149  0
C  C39  1  0.95533837  0.52524484  0.73081344  1  0  -0.139062  0  3.67858  0  0  -0.156807  0  3.920486  0  0  -0.163916  0  3.941749  0  0  -0.081561  -0.152102  0  3.907059  0
C  C40  1  0.95088475  0.50816983  0.16772290  1  0  -0.005662  0  3.738404  0  0  -0.021439  0  3.983283  0  0  -0.018512  0  4.002238  0  0  -0.069893  -0.023142  0  3.970955  0
C  C41  1  0.04909280  0.49177360  0.83223279  1  0  -0.005893  0  3.738577  0  0  -0.021939  0  3.983683  0  0  -0.018947  0  4.002651  0  0  -0.070132  -0.023712  0  3.971341  0
C  C42  1  0.92369170  0.65046235  0.15415316  1  0  -0.119373  0  3.735121  0  0  -0.131394  0  3.983615  0  0  -0.138275  0  4.006623  0  0  -0.085995  -0.126882  0  3.96821  0
C  C43  1  0.07623707  0.34948774  0.84586507  1  0  -0.118961  0  3.735598  0  0  -0.131038  0  3.984237  0  0  -0.137894  0  4.007193  0  0  -0.085944  -0.126542  0  3.968863  0
C  C44  1  0.99132983  0.75381504  0.24378507  1  0  0.122949  0  3.717475  0  0  0.091657  0  3.968059  0  0  0.097705  0  3.98768  0  0  0.047813  0.087677  0  3.954891  0
C  C45  1  0.00856629  0.24610652  0.75627551  1  0  0.123374  0  3.717808  0  0  0.092027  0  3.968547  0  0  0.09813  0  3.988164  0  0  0.04797  0.088042  0  3.955384  0
C  C46  1  0.49639813  0.91910887  0.26848069  1  0  0.638626  0  3.939839  0  0  0.59046  0  4.228662  0  0  0.624859  0  4.222699  0  0  0.202614  0.566261  0  4.233382  0
C  C47  1  0.50360288  0.08093885  0.73153263  1  0  0.638934  0  3.940639  0  0  0.590777  0  4.229449  0  0  0.625152  0  4.22353  0  0  0.20256  0.566584  0  4.234142  0
C  C48  1  0.57339546  0.89440746  0.14364086  1  0  -0.124348  0  3.707194  0  0  -0.108726  0  3.942082  0  0  -0.118027  0  3.965605  0  0  -0.022042  -0.102591  0  3.927082  0
C  C49  1  0.42662601  0.10566465  0.85636385  1  0  -0.124851  0  3.707931  0  0  -0.109309  0  3.942788  0  0  -0.118607  0  3.966324  0  0  -0.022345  -0.103172  0  3.927786  0
C  C50  1  0.69803379  0.99068534  0.11812863  1  0  -0.052236  0  3.734817  0  0  -0.074054  0  3.986213  0  0  -0.073163  0  4.006323  0  0  -0.081912  -0.07482  0  3.972518  0
C  C51  1  0.30196268  0.00941237  0.88187481  1  0  -0.052339  0  3.735063  0  0  -0.074142  0  3.986478  0  0  -0.073269  0  4.006628  0  0  -0.081824  -0.074892  0  3.972733  0
C  C52  1  0.77820401  0.97727905  0.00657284  1  0  -0.080771  0  3.764194  0  0  -0.098534  0  4.021066  0  0  -0.101822  0  4.041505  0  0  -0.095505  -0.095934  0  4.006989  0
C  C53  1  0.22182404  0.02282711  0.99344511  1  0  -0.080349  0  3.763731  0  0  -0.098129  0  4.020645  0  0  -0.101426  0  4.041095  0  0  -0.095266  -0.095515  0  4.006561  0
C  C54  1  0.73545520  0.86478233  0.91622591  1  0  -0.037281  0  3.740585  0  0  -0.051291  0  3.991084  0  0  -0.050225  0  4.009328  0  0  -0.089155  -0.051742  0  3.978813  0
C  C55  1  0.26465216  0.13528321  0.08381665  1  0  -0.03741  0  3.740947  0  0  -0.051374  0  3.991492  0  0  -0.050305  0  4.009727  0  0  -0.088969  -0.051809  0  3.979235  0
C  C56  1  0.61206233  0.76790238  0.93852878  1  0  -0.149233  0  3.770998  0  0  -0.171556  0  4.025647  0  0  -0.175886  0  4.045466  0  0  -0.102831  -0.168177  0  4.011813  0
C  C57  1  0.38802718  0.23216529  0.06149120  1  0  -0.149272  0  3.77126  0  0  -0.171712  0  4.025874  0  0  -0.176003  0  4.045719  0  0  -0.103006  -0.168375  0  4.012027  0
C  C58  1  0.53067822  0.78268240  0.05028061  1  0  0.135382  0  3.741326  0  0  0.140834  0  4.005325  0  0  0.146149  0  4.026198  0  0  0.020265  0.136714  0  3.991515  0
C  C59  1  0.46935259  0.21740774  0.94971004  1  0  0.135308  0  3.741512  0  0  0.140897  0  4.005427  0  0  0.146215  0  4.026277  0  0  0.020319  0.136772  0  3.991636  0
N  N60  1  0.28264833  0.66717450  0.53538214  1  0  -0.337026  0  3.208724  0  0  -0.261516  0  3.453861  0  0  -0.281013  0  3.475315  0  0  -0.291647  -0.248181  0  3.439002  0
N  N61  1  0.71736458  0.33275809  0.46453449  1  0  -0.337099  0  3.208115  0  0  -0.261588  0  3.453437  0  0  -0.28108  0  3.47488  0  0  -0.291763  -0.24826  0  3.4386  0
N  N62  1  0.08141355  0.72196305  0.34173532  1  0  -0.34007  0  3.21509  0  0  -0.266685  0  3.460303  0  0  -0.285755  0  3.481175  0  0  -0.29071  -0.253158  0  3.446968  0
N  N63  1  0.91853289  0.27793594  0.65829025  1  0  -0.339508  0  3.214813  0  0  -0.266615  0  3.460344  0  0  -0.285689  0  3.481189  0  0  -0.290584  -0.253091  0  3.447018  0
Cl  Cl64  1  0.37300985  0.65956540  0.06253626  1  0  -0.092529  0  1.383969  0  0  -0.076614  0  1.621895  0  0  -0.079449  0  1.6179  0  0  0.006615  -0.074428  0  1.625445  0
Cl  Cl65  1  0.62695533  0.34057485  0.93740954  1  0  -0.092469  0  1.384285  0  0  -0.076507  0  1.622108  0  0  -0.079354  0  1.618134  0  0  0.00671  -0.074312  0  1.625652  0
Cl  Cl66  1  0.97968830  0.89061023  0.65056647  1  0  -0.647546  0  0.853124  0  0  -0.580886  0  1.095527  0  0  -0.601926  0  1.078716  0  0  -0.274946  -0.561678  0  1.106342  0
Cl  Cl67  1  0.02020771  0.10930920  0.34949208  1  0  -0.647484  0  0.85336  0  0  -0.58074  0  1.095844  0  0  -0.601804  0  1.079049  0  0  -0.274824  -0.561527  0  1.106658  0
O  O68  1  0.40686181  0.81898270  0.30352152  1  0  -0.622569  0  2.039903  0  0  -0.559075  0  2.27948  0  0  -0.587455  0  2.27415  0  0  -0.302785  -0.538825  0  2.283159  0
O  O69  1  0.59304449  0.18110887  0.69646057  1  0  -0.622777  0  2.040199  0  0  -0.559255  0  2.27972  0  0  -0.587629  0  2.274409  0  0  -0.30278  -0.539026  0  2.283435  0
O  O70  1  0.52649025  0.03738819  0.33394988  1  0  -0.686995  0  2.012357  0  0  -0.618156  0  2.247496  0  0  -0.647354  0  2.240765  0  0  -0.316376  -0.596572  0  2.252486  0
O  O71  1  0.47357147  0.96262962  0.66609407  1  0  -0.686932  0  2.012501  0  0  -0.618103  0  2.247582  0  0  -0.647295  0  2.24087  0  0  -0.316282  -0.596542  0  2.252627  0
