# generated using pymatgen
data_MnH14C10(N2O5)2
_symmetry_space_group_name_H-M   'P 1'
_cell_length_a   4.77527780
_cell_length_b   7.73594007
_cell_length_c   10.51160020
_cell_angle_alpha   105.32550912
_cell_angle_beta   99.79151221
_cell_angle_gamma   105.50334569
_symmetry_Int_Tables_number   1
_chemical_formula_structural   MnH14C10(N2O5)2
_chemical_formula_sum   'Mn1 H14 C10 N4 O10'
_cell_volume   348.56198139
_cell_formula_units_Z   1
loop_
 _symmetry_equiv_pos_site_id
 _symmetry_equiv_pos_as_xyz
  1  'x, y, z'
loop_
 _atom_site_type_symbol
 _atom_site_label
 _atom_site_symmetry_multiplicity
 _atom_site_fract_x
 _atom_site_fract_y
 _atom_site_fract_z
 _atom_site_occupancy
 _atom_site_hle17_ddec_charge
 _atom_site_hle17_ddec_spin_density
 _atom_site_hle17_ddec_sum_bond_order
 _atom_site_hle17_magmom
 _atom_site_hse06_10hf_ddec_charge
 _atom_site_hse06_10hf_ddec_spin_density
 _atom_site_hse06_10hf_ddec_sum_bond_order
 _atom_site_hse06_10hf_magmom
 _atom_site_hse06_ddec_charge
 _atom_site_hse06_ddec_spin_density
 _atom_site_hse06_ddec_sum_bond_order
 _atom_site_hse06_magmom
 _atom_site_pbe_cm5_charge
 _atom_site_pbe_ddec_charge
 _atom_site_pbe_ddec_spin_density
 _atom_site_pbe_ddec_sum_bond_order
 _atom_site_pbe_magmom
Mn  Mn0  1  0.49999978  0.49999954  0.99999693  1  1.297196  4.79727  1.66887  4.697  1.152199  4.722582  2.15969  4.563  1.204655  4.761488  2.08824  4.619  0.595512  1.111602  4.68284  2.211398  4.508
H  H1  1  0.76416816  0.12183665  0.53301431  1  0.332359  1.1e-05  0.905764  0.0  0.305842  5.8e-05  0.977187  0.0  0.316229  3.8e-05  0.968143  0.0  0.313176  0.298473  8.9e-05  0.983692  0.0
H  H2  1  0.23582056  0.87816312  0.46698661  1  0.332306  2e-05  0.905837  0.0  0.30581  5.8e-05  0.977251  0.0  0.316192  3.8e-05  0.96822  0.0  0.313182  0.298443  8.9e-05  0.983755  0.0
H  H3  1  0.32208905  0.44870537  0.36725169  1  0.321631  -0.000129  0.898818  0.0  0.296634  -0.000108  0.972298  0.0  0.305993  -0.000133  0.963909  0.0  0.310522  0.28995  -7.4e-05  0.978282  0.0
H  H4  1  0.67789165  0.55128732  0.63274057  1  0.321731  -0.000126  0.89862  0.0  0.296684  -0.000108  0.972185  0.0  0.306063  -0.000133  0.963771  0.0  0.310507  0.289998  -7.4e-05  0.978175  0.0
H  H5  1  0.74088999  0.40164242  0.26308780  1  0.071901  4.6e-05  0.961371  0.0  0.075846  0.000322  1.033406  0.001  0.078174  0.00014  1.031541  0.0  0.115013  0.074039  0.00052  1.035006  0.001
H  H6  1  0.25910073  0.59835311  0.73690862  1  0.071937  4.6e-05  0.961293  0.0  0.075848  0.000322  1.033304  0.001  0.078173  0.00014  1.031438  0.0  0.115023  0.07404  0.000521  1.034904  0.001
H  H7  1  0.44898774  0.07800935  0.12911848  1  0.144973  -0.000406  0.913491  0.0  0.156503  -0.000423  0.972066  0.0  0.159309  -0.000443  0.971242  0.0  0.11894  0.154323  -0.000391  0.973012  0.0
H  H8  1  0.55101856  0.92198768  0.87087651  1  0.145006  -0.000397  0.913547  0.0  0.156531  -0.000423  0.972082  0.0  0.159342  -0.000442  0.971247  0.0  0.118956  0.154349  -0.000391  0.973033  0.0
H  H9  1  0.75765028  0.99519986  0.15825696  1  0.141582  -0.000381  0.917008  0.0  0.156863  -0.000317  0.970644  0.0  0.160124  -0.00039  0.968638  0.0  0.118785  0.15427  -0.00021  0.97258  0.0
H  H10  1  0.24235256  0.00479855  0.84174186  1  0.141606  -0.000389  0.916956  0.0  0.156871  -0.000317  0.970593  0.0  0.160131  -0.00039  0.96859  0.0  0.118801  0.154278  -0.00021  0.972531  0.0
H  H11  1  0.00877146  0.77451038  0.20545127  1  0.43744  2.9e-05  0.853581  0.001  0.404521  0.000544  0.920414  0.002  0.415509  0.000284  0.904179  0.002  0.304274  0.396987  0.000789  0.931431  0.002
H  H12  1  0.99122366  0.22548939  0.79455106  1  0.437434  2.8e-05  0.853598  0.001  0.404519  0.000544  0.920421  0.002  0.415507  0.000285  0.904186  0.002  0.304272  0.396985  0.00079  0.931438  0.002
H  H13  1  0.75977794  0.69913764  0.27908930  1  0.423682  0.000156  0.878795  0.001  0.391463  0.000797  0.9448  0.002  0.402389  0.000521  0.928876  0.002  0.295565  0.384061  0.001045  0.955553  0.002
H  H14  1  0.24022574  0.30086215  0.72091556  1  0.423628  0.000157  0.878876  0.001  0.39139  0.000797  0.944916  0.002  0.402318  0.000521  0.92899  0.002  0.295486  0.383991  0.001046  0.955664  0.002
C  C15  1  0.86973479  0.30441551  0.23816372  1  0.062757  0.000793  3.630598  0.001  0.038075  0.001366  3.874498  0.001  0.038814  0.00085  3.885763  0.001  0.011615  0.037473  0.001935  3.867203  0.001
C  C16  1  0.13026600  0.69558713  0.76183674  1  0.062658  0.0008  3.630527  0.001  0.0382  0.001368  3.87409  0.001  0.038948  0.000853  3.885335  0.001  0.011566  0.037596  0.001935  3.866796  0.001
C  C17  1  0.65794550  0.10214462  0.20308478  1  -0.30961  -7.8e-05  3.656658  0.0  -0.353318  0.00025  3.90368  0.0  -0.359649  -1.9e-05  3.910316  0.0  -0.150798  -0.348903  0.000572  3.899602  0.001
C  C18  1  0.34205595  0.89785520  0.79691421  1  -0.309677  -7.6e-05  3.656925  0.0  -0.35335  0.000248  3.90374  0.0  -0.359675  -2e-05  3.910379  0.0  -0.150782  -0.348937  0.000572  3.899662  0.001
C  C19  1  0.58691747  0.06292605  0.32820259  1  0.670874  3.8e-05  3.701674  0.0  0.618448  0.000206  4.000173  0.0  0.649874  8e-05  3.995662  0.0  0.268389  0.597031  0.000471  4.002825  0.0
C  C20  1  0.41308199  0.93707798  0.67180186  1  0.670874  2.4e-05  3.701986  0.0  0.61853  0.000208  4.000415  0.0  0.649934  8.1e-05  3.995937  0.0  0.268434  0.597117  0.000471  4.003061  0.0
C  C21  1  0.08722250  0.28672618  0.46160822  1  0.746786  -1.6e-05  3.853391  0.0  0.667394  0.000113  4.170444  0.0  0.702864  5.9e-05  4.16652  0.0  0.339177  0.643506  0.00032  4.172119  0.0
C  C22  1  0.91277053  0.71327357  0.53839586  1  0.746763  -4e-06  3.853518  0.0  0.667405  0.000111  4.17059  0.0  0.702874  6.3e-05  4.166665  0.0  0.339176  0.643518  0.00032  4.172264  0.0
C  C23  1  0.98016899  0.33493619  0.11447519  1  0.662302  0.01105  3.854591  0.011  0.610542  0.018363  4.156351  0.017  0.645821  0.013953  4.147849  0.013  0.225463  0.5857  0.023369  4.161693  0.021
C  C24  1  0.01986596  0.66507081  0.88553149  1  0.662591  0.011063  3.854189  0.011  0.610669  0.018365  4.156088  0.017  0.645949  0.013957  4.147583  0.013  0.225646  0.585826  0.023374  4.161427  0.021
N  N25  1  0.80698001  0.15659115  0.44765688  1  -0.540403  0.000139  3.221226  0.0  -0.48047  0.000293  3.476563  0.0  -0.505927  0.000211  3.475671  0.0  -0.395339  -0.463158  0.000393  3.476959  0.0
N  N26  1  0.19301927  0.84340868  0.55234006  1  -0.540308  0.000125  3.221153  0.0  -0.480558  0.000293  3.47665  0.0  -0.506019  0.000212  3.475794  0.0  -0.395405  -0.463245  0.000393  3.477041  0.0
N  N27  1  0.12009676  0.34860942  0.35595465  1  -0.476246  -8.3e-05  3.270541  0.0  -0.42096  0.000126  3.528624  0.0  -0.442976  3.2e-05  3.534809  0.0  -0.415529  -0.405836  0.0002  3.523945  0.0
N  N28  1  0.87990469  0.65139466  0.64404234  1  -0.476352  -0.000103  3.270505  0.0  -0.421055  0.000128  3.52847  0.0  -0.443089  2.6e-05  3.534631  0.0  -0.415498  -0.40593  0.0002  3.523791  0.0
O  O29  1  0.26187329  0.37819929  0.12683795  1  -0.647265  0.034242  2.046583  0.022  -0.579828  0.042251  2.30714  0.026  -0.609044  0.037582  2.293656  0.022  -0.308031  -0.558526  0.046832  2.31585  0.03
O  O30  1  0.73813244  0.62180053  0.87316327  1  -0.647421  0.034244  2.046241  0.022  -0.579973  0.042261  2.306904  0.026  -0.609195  0.037588  2.293424  0.022  -0.308113  -0.558667  0.046844  2.315611  0.03
O  O31  1  0.78228431  0.31477836  0.01009075  1  -0.651995  0.024735  2.017376  0.012  -0.59677  0.033762  2.284551  0.018  -0.624659  0.029558  2.271146  0.015  -0.30728  -0.57672  0.037767  2.293051  0.021
O  O32  1  0.21772909  0.68522011  0.98990410  1  -0.652053  0.024732  2.017506  0.012  -0.596794  0.033761  2.284766  0.018  -0.624679  0.029557  2.271358  0.015  -0.307346  -0.576749  0.037765  2.293267  0.021
O  O33  1  0.34694498  0.94830381  0.32737373  1  -0.562668  7.8e-05  1.986774  0.0  -0.505827  0.000416  2.20729  0.001  -0.528462  0.000212  2.198472  0.0  -0.270846  -0.490313  0.000669  2.213  0.001
O  O34  1  0.65305013  0.05169597  0.67262766  1  -0.562683  9e-05  1.986965  0.0  -0.505875  0.000417  2.207465  0.001  -0.528496  0.00021  2.198641  0.0  -0.270896  -0.490362  0.00067  2.213173  0.001
O  O35  1  0.29099631  0.33898606  0.57019539  1  -0.622283  8.2e-05  1.960141  0.0  -0.563997  0.000375  2.187233  0.001  -0.586951  0.000202  2.176916  0.0  -0.297919  -0.548274  0.000566  2.193779  0.001
O  O36  1  0.70899732  0.66100662  0.42980637  1  -0.622288  8.4e-05  1.960189  0.0  -0.564004  0.000374  2.187251  0.001  -0.58695  0.000205  2.176925  0.0  -0.297931  -0.548284  0.000566  2.193798  0.001
O  O37  1  0.79259147  0.70817604  0.18990865  1  -0.854406  0.031048  1.927671  0.017  -0.797025  0.040304  2.145487  0.022  -0.819726  0.036508  2.108345  0.019  -0.572921  -0.779849  0.043704  2.170377  0.025
O  O38  1  0.20740656  0.29182514  0.81009703  1  -0.854361  0.031055  1.9278  0.017  -0.796982  0.04031  2.145651  0.022  -0.819686  0.036514  2.108506  0.019  -0.572845  -0.779806  0.04371  2.170541  0.025
