# generated using pymatgen
data_ZnH6C13NO6
_symmetry_space_group_name_H-M   'P 1'
_cell_length_a   10.85689365
_cell_length_b   13.18848470
_cell_length_c   14.44098746
_cell_angle_alpha   90.35237012
_cell_angle_beta   89.97214936
_cell_angle_gamma   89.94911883
_symmetry_Int_Tables_number   1
_chemical_formula_structural   ZnH6C13NO6
_chemical_formula_sum   'Zn2 H12 C26 N2 O12'
_cell_volume   2067.70671249
_cell_formula_units_Z   2
loop_
 _symmetry_equiv_pos_site_id
 _symmetry_equiv_pos_as_xyz
  1  'x, y, z'
loop_
 _atom_site_type_symbol
 _atom_site_label
 _atom_site_symmetry_multiplicity
 _atom_site_fract_x
 _atom_site_fract_y
 _atom_site_fract_z
 _atom_site_occupancy
 _atom_site_pbe_bader_charge
 _atom_site_pbe_bader_spin_density
 _atom_site_pbe_cm5_charge
 _atom_site_pbe_ddec_charge
 _atom_site_pbe_ddec_spin_density
 _atom_site_pbe_ddec_sum_bond_order
 _atom_site_pbe_magmom
Zn  Zn0  1  0.50299610  0.39422038  0.49100180  1  1.317864  0  0.692451  0.884991  0  2.417943  0
Zn  Zn1  1  0.49786884  0.60689388  0.49718244  1  1.337189  0  0.691229  0.884131  0  2.417774  0
H  H2  1  0.11253833  0.33747558  0.46702557  1  0.089582  0  0.111333  0.105985  0  0.964485  0
H  H3  1  0.23718995  0.61404302  0.34196123  1  0.070981  0  0.108218  0.05892  0  0.984707  0
H  H4  1  0.79439224  0.41050869  0.32387882  1  0.046495  0  0.102381  0.039846  0  0.976115  0
H  H5  1  0.92257393  0.54142724  0.27665624  1  0.038834  0  0.093528  0.015962  0  1.002456  0
H  H6  1  0.09752485  0.66004768  0.48212801  1  0.092451  0  0.121801  0.122454  0  0.930658  0
H  H7  1  0.90944418  0.34565477  0.49860429  1  0.073734  0  0.117462  0.114642  0  0.945013  0
H  H8  1  0.88850978  0.66516968  0.45736702  1  0.091281  0  0.109372  0.103765  0  0.962885  0
H  H9  1  0.09436895  0.42694074  0.61291944  1  0.053573  0  0.100456  0.104586  0  0.963854  0
H  H10  1  0.11664816  0.55950604  0.62135842  1  0.042863  0  0.101432  0.107781  0  0.96853  0
H  H11  1  0.88339305  0.46098317  0.62554926  1  0.05206  0  0.10134  0.106471  0  0.965891  0
H  H12  1  0.90474598  0.59223407  0.60682249  1  0.037563  0  0.09926  0.103042  0  0.968096  0
H  H13  1  0.07962072  0.45518565  0.28405136  1  0.027242  0  0.096929  0.022786  0  0.989528  0
C  C14  1  0.49780316  0.50312443  0.31428587  1  1.648425  0  0.221868  0.648725  0  4.25861  0
C  C15  1  0.73894161  0.50350485  0.48791590  1  1.549485  0  0.220914  0.580355  0  4.132598  0
C  C16  1  0.50125907  0.49579116  0.67393024  1  1.70029  0  0.218478  0.656516  0  4.25418  0
C  C17  1  0.07221293  0.40309739  0.43204061  1  -0.045996  0  -0.084123  -0.122518  0  3.795761  0
C  C18  1  0.07129702  0.59818244  0.43394960  1  -0.080604  0  -0.082319  -0.126015  0  3.819146  0
C  C19  1  0.92813644  0.40154400  0.44414473  1  -0.025992  0  -0.083825  -0.125415  0  3.794413  0
C  C20  1  0.92849919  0.59715177  0.42503396  1  -0.000996  0  -0.08523  -0.119476  0  3.790933  0
C  C21  1  0.07012263  0.49982912  0.58123567  1  -0.030716  0  -0.152412  -0.176016  0  3.854679  0
C  C22  1  0.92937885  0.51643697  0.58081136  1  -0.051347  0  -0.151541  -0.174868  0  3.85859  0
C  C23  1  0.12071525  0.50049259  0.48066358  1  0.06482  0  -0.00692  -0.006577  0  3.761433  0
C  C24  1  0.87971421  0.50454024  0.48062469  1  0.038962  0  -0.009532  -0.009737  0  3.764438  0
C  C25  1  0.50063250  0.49856627  0.95149869  1  0.049414  0  -0.004165  -0.007306  0  4.19714  0
C  C26  1  0.49764462  0.50542388  0.21464483  1  0.244088  0  -0.001417  -0.116628  0  3.826093  0
C  C27  1  0.49851527  0.50394511  0.12971861  1  -0.221813  0  -0.007722  0.027276  0  4.242925  0
C  C28  1  0.49963895  0.50158113  0.03693858  1  -0.143017  0  0.002287  0.0021  0  4.187806  0
C  C29  1  0.11405306  0.39478976  0.33204326  1  0.967115  0  0.099642  0.304803  0  3.91665  0
C  C30  1  0.13668271  0.63016585  0.34599261  1  0.95056  0  0.102443  0.28008  0  3.899282  0
C  C31  1  0.85834055  0.35842159  0.36110395  1  0.990301  0  0.098513  0.298749  0  3.922508  0
C  C32  1  0.88003014  0.59724076  0.32566798  1  0.957707  0  0.089009  0.294687  0  3.963524  0
C  C33  1  0.50126561  0.49597533  0.85869672  1  -0.19933  0  -0.016242  0.017017  0  4.275683  0
C  C34  1  0.50153907  0.49412994  0.77371911  1  0.042776  0  -0.014828  -0.137369  0  3.849213  0
C  C35  1  0.50403429  0.85176630  0.48768838  1  0.891866  0  0.275092  0.351254  0  4.015681  0
C  C36  1  0.50645205  0.14928224  0.48213744  1  0.875075  0  0.278234  0.354431  0  4.006699  0
C  C37  1  0.50674115  0.95410465  0.48300490  1  0.271816  0  0.078268  0.014294  0  4.005712  0
C  C38  1  0.50735507  0.04673770  0.48116732  1  0.05651  0  0.081563  0.018498  0  4.001597  0
C  C39  1  0.26158741  0.50184893  0.48909869  1  1.551393  0  0.21975  0.578211  0  4.140841  0
N  N40  1  0.50033462  0.76364493  0.49356425  1  -0.980102  0  -0.207061  -0.199126  0  2.95926  0
N  N41  1  0.50475996  0.23768201  0.48502164  1  -0.999978  0  -0.204858  -0.195925  0  2.95435  0
O  O42  1  0.51819122  0.41708827  0.35081790  1  -1.133663  0  -0.304022  -0.529247  0  2.260933  0
O  O43  1  0.08487349  0.67672270  0.28422194  1  -1.062574  0  -0.244117  -0.323964  0  2.13287  0
O  O44  1  0.86963352  0.27044808  0.33607691  1  -1.083851  0  -0.271742  -0.352274  0  2.085641  0
O  O45  1  0.79264832  0.64853516  0.30113080  1  -1.07361  0  -0.268066  -0.347479  0  2.117681  0
O  O46  1  0.47710417  0.58675571  0.35645976  1  -1.130309  0  -0.307375  -0.544018  0  2.274641  0
O  O47  1  0.31730641  0.41761923  0.48169137  1  -1.155732  0  -0.305912  -0.533405  0  2.353626  0
O  O48  1  0.31035935  0.58772077  0.50623756  1  -1.173184  0  -0.319838  -0.560625  0  2.341161  0
O  O49  1  0.68932807  0.41644358  0.49610756  1  -1.166688  0  -0.311981  -0.549171  0  2.349872  0
O  O50  1  0.68384898  0.58826469  0.48889623  1  -1.151403  0  -0.306174  -0.533163  0  2.359944  0
O  O51  1  0.49339652  0.41035216  0.63246173  1  -1.132568  0  -0.315819  -0.545183  0  2.249002  0
O  O52  1  0.50883266  0.58319809  0.63713566  1  -1.125962  0  -0.312223  -0.537078  0  2.253957  0
O  O53  1  0.18134292  0.32837308  0.30237005  1  -1.052885  0  -0.253789  -0.329775  0  2.089025  0
