# generated using pymatgen
data_Yb2PH13C11NO16
_symmetry_space_group_name_H-M   'P 1'
_cell_length_a   9.70280573
_cell_length_b   10.24260762
_cell_length_c   11.05117799
_cell_angle_alpha   96.08183507
_cell_angle_beta   91.59854843
_cell_angle_gamma   107.34763517
_symmetry_Int_Tables_number   1
_chemical_formula_structural   Yb2PH13C11NO16
_chemical_formula_sum   'Yb4 P2 H26 C22 N2 O32'
_cell_volume   1040.38109161
_cell_formula_units_Z   2
loop_
 _symmetry_equiv_pos_site_id
 _symmetry_equiv_pos_as_xyz
  1  'x, y, z'
loop_
 _atom_site_type_symbol
 _atom_site_label
 _atom_site_symmetry_multiplicity
 _atom_site_fract_x
 _atom_site_fract_y
 _atom_site_fract_z
 _atom_site_occupancy
 _atom_site_pbe_bader_charge
 _atom_site_pbe_bader_spin_density
 _atom_site_pbe_cm5_charge
 _atom_site_pbe_ddec_charge
 _atom_site_pbe_ddec_spin_density
 _atom_site_pbe_ddec_sum_bond_order
 _atom_site_pbe_magmom
Yb  Yb0  1  0.17537961  0.37894257  0.05137340  1  2.188795  0  1.567279  2.094808  0  2.116584  0
Yb  Yb1  1  0.82461955  0.62105382  0.94862311  1  2.188831  0  1.567325  2.094899  0  2.116518  0
Yb  Yb2  1  0.37811013  0.93627433  0.24325351  1  2.171269  0  1.594781  2.033707  0  2.206464  0
Yb  Yb3  1  0.62189653  0.06372308  0.75674697  1  2.171233  0  1.594785  2.033632  0  2.206539  0
P  P4  1  0.06487762  0.63567290  0.20948654  1  3.430834  0  0.345995  1.435156  0  5.399654  0
P  P5  1  0.93512071  0.36433381  0.79051269  1  3.431037  0  0.346045  1.43519  0  5.399581  0
H  H6  1  0.90993480  0.20179598  0.16719935  1  0.626089  0  0.341092  0.422139  0  0.844834  0
H  H7  1  0.09006598  0.79820558  0.83280131  1  0.626087  0  0.341101  0.422139  0  0.844862  0
H  H8  1  0.87958684  0.14835160  0.02481943  1  0.653814  0  0.305685  0.413362  0  0.912094  0
H  H9  1  0.12041708  0.85164377  0.97518258  1  0.653848  0  0.305702  0.4134  0  0.912046  0
H  H10  1  0.15691579  0.64269861  0.94246779  1  0.649944  0  0.305328  0.395584  0  0.941537  0
H  H11  1  0.84308802  0.35730604  0.05753506  1  0.649854  0  0.305326  0.395582  0  0.94153  0
H  H12  1  0.31243372  0.67792323  0.00170773  1  0.634338  0  0.302584  0.401108  0  0.931086  0
H  H13  1  0.68756845  0.32207319  0.99829704  1  0.634309  0  0.302631  0.401148  0  0.931031  0
H  H14  1  0.46222173  0.68295614  0.23296338  1  0.659595  0  0.300775  0.39784  0  0.936079  0
H  H15  1  0.53776975  0.31703931  0.76704637  1  0.659625  0  0.300753  0.397793  0  0.936132  0
H  H16  1  0.60725362  0.79896003  0.26133052  1  0.619118  0  0.330865  0.420068  0  0.858789  0
H  H17  1  0.39274135  0.20103641  0.73867310  1  0.619072  0  0.330857  0.420073  0  0.858735  0
H  H18  1  0.78380334  0.48898502  0.20716612  1  0.524179  0  0.325233  0.286245  0  0.963266  0
H  H19  1  0.21618545  0.51101759  0.79283061  1  0.524164  0  0.32525  0.286308  0  0.963223  0
H  H20  1  0.57080402  0.32803767  0.23747555  1  0.173013  0  0.135588  0.119079  0  0.999309  0
H  H21  1  0.42918332  0.67197010  0.76252250  1  0.172844  0  0.135593  0.119087  0  0.999329  0
H  H22  1  0.48922050  0.30149149  0.45000717  1  0.141043  0  0.12186  0.136026  0  0.993494  0
H  H23  1  0.51077065  0.69851216  0.54999245  1  0.140642  0  0.121899  0.136085  0  0.993457  0
H  H24  1  0.65735175  0.44966577  0.62604903  1  0.124733  0  0.125064  0.12744  0  0.986854  0
H  H25  1  0.34264942  0.55033063  0.37395207  1  0.124741  0  0.125045  0.127406  0  0.986803  0
H  H26  1  0.88926283  0.61229405  0.58308921  1  0.129213  0  0.120666  0.146355  0  0.976661  0
H  H27  1  0.11073738  0.38769925  0.41690887  1  0.129248  0  0.120682  0.146372  0  0.976645  0
H  H28  1  0.07704918  0.67609833  0.42960949  1  0.097188  0  0.116344  0.167148  0  0.992707  0
H  H29  1  0.92294540  0.32390633  0.57038943  1  0.097109  0  0.116333  0.167134  0  0.992688  0
H  H30  1  0.97618333  0.76608311  0.35909778  1  0.098545  0  0.132912  0.187956  0  0.932389  0
H  H31  1  0.02380866  0.23391328  0.64089487  1  0.098791  0  0.132925  0.187998  0  0.932308  0
C  C32  1  0.63317814  0.39050329  0.31788014  1  0.449048  0  0.078091  0.124027  0  3.812293  0
C  C33  1  0.36681200  0.60950035  0.68211764  1  0.449329  0  0.078124  0.124021  0  3.812388  0
C  C34  1  0.59194800  0.37616329  0.43567857  1  0.030164  0  -0.063134  -0.113276  0  3.926046  0
C  C35  1  0.40804523  0.62384034  0.56431931  1  0.03076  0  -0.063244  -0.113417  0  3.926127  0
C  C36  1  0.68532312  0.45725801  0.53185989  1  -0.034542  0  -0.036579  0.022734  0  3.886047  0
C  C37  1  0.31467084  0.54273842  0.46814097  1  -0.034802  0  -0.036532  0.022859  0  3.885925  0
C  C38  1  0.81677450  0.54934906  0.50786888  1  -0.016949  0  -0.069107  -0.178383  0  3.887717  0
C  C39  1  0.18322328  0.45064631  0.49212931  1  -0.016705  0  -0.069127  -0.178398  0  3.887652  0
C  C40  1  0.85489780  0.56310260  0.38808708  1  0.471127  0  0.150678  0.326871  0  3.891942  0
C  C41  1  0.14509821  0.43689690  0.61191142  1  0.471319  0  0.150714  0.32693  0  3.891934  0
C  C42  1  0.99213714  0.66368510  0.35770017  1  -0.522175  0  -0.155743  -0.554461  0  3.906428  0
C  C43  1  0.00785753  0.33631336  0.64229638  1  -0.522843  0  -0.155787  -0.554521  0  3.906353  0
C  C44  1  0.24836571  0.17652323  0.21880872  1  1.595192  0  0.206867  0.497911  0  4.263013  0
C  C45  1  0.75163622  0.82347210  0.78118598  1  1.594336  0  0.206842  0.497804  0  4.262905  0
C  C46  1  0.20667436  0.09104714  0.09170090  1  1.582696  0  0.208111  0.488738  0  4.251256  0
C  C47  1  0.79333482  0.90894815  0.90829133  1  1.582633  0  0.208299  0.488968  0  4.251002  0
C  C48  1  0.48423838  0.45569434  0.93728463  1  1.571027  0  0.211835  0.493001  0  4.228015  0
C  C49  1  0.51575713  0.54431345  0.06272095  1  1.592279  0  0.211816  0.492946  0  4.228071  0
C  C50  1  0.47600793  0.92232477  0.97640004  1  1.58565  0  0.210939  0.496939  0  4.245366  0
C  C51  1  0.52400715  0.07768295  0.02360528  1  1.612559  0  0.210949  0.496739  0  4.245664  0
C  C52  1  0.57451314  0.04149225  0.47839273  1  1.60216  0  0.206321  0.50113  0  4.241465  0
C  C53  1  0.42551536  0.95851234  0.52161366  1  1.580708  0  0.206431  0.501252  0  4.241364  0
N  N54  1  0.76023346  0.48249781  0.29775451  1  -1.277367  0  -0.334148  -0.176678  0  3.61711  0
N  N55  1  0.23976013  0.51750375  0.70224319  1  -1.27737  0  -0.334168  -0.176795  0  3.617282  0
O  O56  1  0.07797603  0.48930879  0.18969381  1  -1.472403  0  -0.501449  -0.893385  0  2.250592  0
O  O57  1  0.92202819  0.51069685  0.81030100  1  -1.472429  0  -0.501396  -0.893363  0  2.25058  0
O  O58  1  0.21117753  0.74474142  0.21760107  1  -1.463349  0  -0.518956  -0.873995  0  2.36078  0
O  O59  1  0.78882456  0.25526427  0.78240091  1  -1.46319  0  -0.518989  -0.87398  0  2.360687  0
O  O60  1  0.95547214  0.65589970  0.11639864  1  -1.464166  0  -0.514969  -0.885281  0  2.295009  0
O  O61  1  0.04452630  0.34410080  0.88359641  1  -1.464379  0  -0.515028  -0.885347  0  2.294985  0
O  O62  1  0.17192769  0.14957628  0.00647128  1  -1.167008  0  -0.373107  -0.58101  0  2.284236  0
O  O63  1  0.82808185  0.85041696  0.99352077  1  -1.166814  0  -0.373212  -0.581095  0  2.284116  0
O  O64  1  0.23071148  0.29466055  0.22811892  1  -1.176827  0  -0.380109  -0.612057  0  2.315861  0
O  O65  1  0.76928811  0.70533066  0.77187442  1  -1.176195  0  -0.380118  -0.612041  0  2.315618  0
O  O66  1  0.21349405  0.96820323  0.08487013  1  -1.186847  0  -0.343977  -0.592539  0  2.356404  0
O  O67  1  0.78652232  0.03179205  0.91512325  1  -1.186886  0  -0.344034  -0.592644  0  2.356428  0
O  O68  1  0.29693477  0.12269000  0.30170064  1  -1.177599  0  -0.385683  -0.604117  0  2.272152  0
O  O69  1  0.70306306  0.87730226  0.69829545  1  -1.17755  0  -0.385706  -0.604068  0  2.272186  0
O  O70  1  0.35751011  0.37623289  0.91244587  1  -1.174317  0  -0.361672  -0.590211  0  2.309104  0
O  O71  1  0.64249061  0.62376870  0.08756022  1  -1.174249  0  -0.36172  -0.590231  0  2.308945  0
O  O72  1  0.59045722  0.47047277  0.86913747  1  -1.175999  0  -0.350073  -0.598449  0  2.322624  0
O  O73  1  0.40954310  0.52953398  0.13086907  1  -1.176156  0  -0.350014  -0.598401  0  2.322885  0
O  O74  1  0.43362526  0.83999348  0.05540514  1  -1.18582  0  -0.364293  -0.591625  0  2.377697  0
O  O75  1  0.56639329  0.16000909  0.94460345  1  -1.185825  0  -0.364248  -0.591505  0  2.377777  0
O  O76  1  0.48291152  0.88930435  0.86420826  1  -1.178391  0  -0.36623  -0.590071  0  2.338707  0
O  O77  1  0.51710285  0.11070441  0.13579894  1  -1.178371  0  -0.366284  -0.590077  0  2.33883  0
O  O78  1  0.58141026  0.05206899  0.36532467  1  -1.168846  0  -0.403521  -0.616962  0  2.297912  0
O  O79  1  0.41861421  0.94793249  0.63467678  1  -1.168933  0  -0.403533  -0.616999  0  2.298179  0
O  O80  1  0.67634538  0.09290901  0.55932286  1  -1.180482  0  -0.390599  -0.592285  0  2.295697  0
O  O81  1  0.32367901  0.90709558  0.44068249  1  -1.179648  0  -0.39064  -0.592274  0  2.295449  0
O  O82  1  0.92981871  0.23018125  0.08665946  1  -1.25391  0  -0.593179  -0.809516  0  2.120504  0
O  O83  1  0.07018421  0.76981411  0.91333980  1  -1.25391  0  -0.593194  -0.809566  0  2.12051  0
O  O84  1  0.23159032  0.59827617  0.96229245  1  -1.28655  0  -0.618004  -0.859263  0  2.164773  0
O  O85  1  0.76840842  0.40172231  0.03770967  1  -1.286423  0  -0.618059  -0.859365  0  2.164834  0
O  O86  1  0.50698888  0.77324363  0.28357071  1  -1.258917  0  -0.620391  -0.821763  0  2.057211  0
O  O87  1  0.49300843  0.22675386  0.71643760  1  -1.258989  0  -0.620361  -0.821725  0  2.05722  0
