# generated using pymatgen
data_CoH14C14(N2Cl)2
_symmetry_space_group_name_H-M   'P 1'
_cell_length_a   7.59729385
_cell_length_b   8.90513899
_cell_length_c   10.96982912
_cell_angle_alpha   90.00004727
_cell_angle_beta   89.99990371
_cell_angle_gamma   97.06867865
_symmetry_Int_Tables_number   1
_chemical_formula_structural   CoH14C14(N2Cl)2
_chemical_formula_sum   'Co2 H28 C28 N8 Cl4'
_cell_volume   736.52240657
_cell_formula_units_Z   2
loop_
 _symmetry_equiv_pos_site_id
 _symmetry_equiv_pos_as_xyz
  1  'x, y, z'
loop_
 _atom_site_type_symbol
 _atom_site_label
 _atom_site_symmetry_multiplicity
 _atom_site_fract_x
 _atom_site_fract_y
 _atom_site_fract_z
 _atom_site_occupancy
 _atom_site_hle17_ddec_charge
 _atom_site_hle17_ddec_spin_density
 _atom_site_hle17_ddec_sum_bond_order
 _atom_site_hle17_magmom
 _atom_site_hse06_10hf_ddec_charge
 _atom_site_hse06_10hf_ddec_spin_density
 _atom_site_hse06_10hf_ddec_sum_bond_order
 _atom_site_hse06_10hf_magmom
 _atom_site_hse06_ddec_charge
 _atom_site_hse06_ddec_spin_density
 _atom_site_hse06_ddec_sum_bond_order
 _atom_site_hse06_magmom
 _atom_site_pbe_cm5_charge
 _atom_site_pbe_ddec_charge
 _atom_site_pbe_ddec_spin_density
 _atom_site_pbe_ddec_sum_bond_order
 _atom_site_pbe_magmom
Co  Co0  1  0.80945546  0.19931664  0.99426303  1  0.741393  2.754037  2.358424  2.449  0.695836  2.781883  2.854182  2.515  0.793858  2.841878  2.765417  2.625  0.539091  0.619864  2.727299  2.921463  2.418
Co  Co1  1  0.19054326  0.80068323  0.49426219  1  0.741419  2.754047  2.358386  2.449  0.69589  2.78191  2.854163  2.515  0.793845  2.841886  2.765392  2.625  0.539075  0.619844  2.727304  2.921448  2.418
H  H2  1  0.84219284  0.86377563  0.02651616  1  0.094276  -0.000123  0.978685  0.0  0.104577  6.2e-05  1.042043  0.0  0.106082  1.9e-05  1.041125  0.0  0.114562  0.103294  0.000129  1.042912  0.0
H  H3  1  0.15780562  0.13622388  0.52651773  1  0.094274  -0.000124  0.978732  0.0  0.104568  6.2e-05  1.042095  0.0  0.106074  1.9e-05  1.041176  0.0  0.114553  0.103286  0.000129  1.042963  0.0
H  H4  1  0.64774201  0.63170244  0.90123629  1  0.124267  0.000199  0.985565  0.001  0.132693  0.000215  1.048119  0.001  0.136778  7.2e-05  1.046188  0.0  0.09676  0.129061  0.00055  1.050641  0.0
H  H5  1  0.35225692  0.36829736  0.40123862  1  0.124217  0.0002  0.985597  0.001  0.132657  0.000215  1.048137  0.001  0.13674  7.2e-05  1.04621  0.0  0.096741  0.12902  0.00055  1.050663  0.0
H  H6  1  0.43938047  0.78390185  0.74535163  1  0.107449  1.6e-05  0.977852  0.001  0.112309  0.000141  1.053175  0.0  0.115399  2e-05  1.049874  0.0  0.114375  0.109783  0.00028  1.055742  0.001
H  H7  1  0.56061881  0.21609782  0.24535361  1  0.107469  1.6e-05  0.97779  0.001  0.112327  0.000141  1.053119  0.0  0.115418  1.9e-05  1.049815  0.0  0.114383  0.109801  0.00028  1.055686  0.001
H  H8  1  0.48726394  0.18736068  0.83210481  1  0.088845  -0.000216  0.96323  0.0  0.098035  2.5e-05  1.037745  0.0  0.099305  -2.4e-05  1.037514  0.0  0.10406  0.09691  9.6e-05  1.038234  0.0
H  H9  1  0.51273498  0.81263793  0.33210360  1  0.088825  -0.000221  0.963234  0.0  0.098023  2.5e-05  1.037735  0.0  0.099285  -2.4e-05  1.0375  0.0  0.10405  0.096899  9.6e-05  1.038225  0.0
H  H10  1  0.37523654  0.04971879  0.73220719  1  0.09622  -0.000321  0.953912  0.0  0.109254  -0.000177  1.023354  0.0  0.110977  -0.000207  1.022766  0.0  0.106544  0.107771  -0.000139  1.024038  0.0
H  H11  1  0.62476556  0.95028201  0.23220685  1  0.096213  -0.000328  0.953908  0.0  0.109254  -0.000178  1.023346  0.0  0.11097  -0.000207  1.022753  0.0  0.106535  0.107772  -0.000139  1.024029  0.0
H  H12  1  0.65319318  0.93707830  0.58918687  1  0.095455  -0.000171  0.953789  0.0  0.103929  -8.7e-05  1.022019  0.0  0.106801  -0.000116  1.02062  0.0  0.097554  0.101383  -4.7e-05  1.024017  0.0
H  H13  1  0.34680678  0.06292352  0.08918717  1  0.095434  -0.000172  0.953789  0.0  0.103902  -8.7e-05  1.022038  0.0  0.106774  -0.000116  1.020638  0.0  0.097534  0.101356  -4.7e-05  1.024036  0.0
H  H14  1  0.85484625  0.03749669  0.42244273  1  0.091403  0.000283  0.956612  0.0  0.102382  0.000356  1.016978  0.0  0.104943  0.000209  1.016307  0.0  0.095742  0.100926  0.000509  1.016934  0.0
H  H15  1  0.14515510  0.96250199  0.92244305  1  0.091458  0.000285  0.956581  0.0  0.102395  0.000356  1.016986  0.0  0.104958  0.000208  1.016311  0.0  0.095746  0.100937  0.000508  1.016943  0.0
H  H16  1  0.94651649  0.31137998  0.40264028  1  0.099086  4.9e-05  0.956192  0.0  0.109404  9e-05  1.017218  0.0  0.112776  3.6e-05  1.015911  0.0  0.097814  0.107031  0.000145  1.017979  0.0
H  H17  1  0.05348621  0.68861868  0.90264143  1  0.099095  4.9e-05  0.95622  0.0  0.10942  9e-05  1.017242  0.0  0.112795  3.6e-05  1.015926  0.0  0.097824  0.107047  0.000145  1.018001  0.0
H  H18  1  0.62830143  0.39193035  0.71627163  1  0.096158  -6.6e-05  0.956335  0.0  0.107904  -0.0  1.018596  0.0  0.1108  -3.9e-05  1.017759  0.0  0.098002  0.106035  8.5e-05  1.018961  0.0
H  H19  1  0.37170087  0.60807156  0.21627136  1  0.096169  -6.5e-05  0.956338  0.0  0.107914  -0.0  1.018602  0.0  0.110809  -3.9e-05  1.017768  0.0  0.098021  0.106045  8.5e-05  1.018969  0.0
H  H20  1  0.76869609  0.60250418  0.60683144  1  0.093076  -0.000149  0.915759  0.0  0.108215  -1.5e-05  0.978314  0.0  0.10986  -8.9e-05  0.97688  0.0  0.109179  0.106384  8.5e-05  0.98004  0.0
H  H21  1  0.23130498  0.39749652  0.10683393  1  0.093067  -0.000148  0.915806  0.0  0.108213  -1.5e-05  0.978346  0.0  0.109863  -8.9e-05  0.976909  0.0  0.109183  0.10638  8.5e-05  0.980071  0.0
H  H22  1  0.99026114  0.56209625  0.59038255  1  0.085995  0.00035  0.94748  0.0  0.096454  0.000708  1.022215  0.0  0.096564  0.000455  1.022209  0.0  0.109078  0.096257  0.001003  1.02241  0.0
H  H23  1  0.00973734  0.43790444  0.09038532  1  0.085969  0.000351  0.94752  0.0  0.096429  0.000708  1.022239  0.0  0.09654  0.000455  1.022238  0.0  0.109073  0.096232  0.001003  1.022437  0.0
H  H24  1  0.64448991  0.46419928  0.34584746  1  0.11106  0.000221  0.962903  0.0  0.124099  0.000442  1.024184  0.0  0.126174  0.00031  1.022086  0.0  0.125287  0.122316  0.000589  1.026286  0.0
H  H25  1  0.35551161  0.53579934  0.84584998  1  0.111037  0.000221  0.96289  0.0  0.124078  0.000442  1.024172  0.0  0.126151  0.00031  1.022082  0.0  0.125244  0.122293  0.000589  1.026278  0.0
H  H26  1  0.73768344  0.64637467  0.14826372  1  0.128801  0.000322  0.969171  0.001  0.139775  0.000293  1.025571  0.0  0.142718  0.000186  1.025755  0.0  0.10546  0.137767  0.000386  1.02546  0.001
H  H27  1  0.26231507  0.35362720  0.64826348  1  0.128811  0.000321  0.969145  0.001  0.139785  0.000293  1.025545  0.0  0.142726  0.000186  1.025725  0.0  0.105448  0.137775  0.000386  1.025439  0.001
H  H28  1  0.02525249  0.84106358  0.23189085  1  0.101263  -0.000109  0.976677  0.0  0.108314  0.000235  1.044055  0.0  0.110342  0.000128  1.042767  0.0  0.113825  0.106921  0.000365  1.044673  0.0
H  H29  1  0.97474484  0.15894061  0.73188964  1  0.101271  -0.000107  0.976626  0.0  0.108307  0.000235  1.044022  0.0  0.110336  0.000128  1.042735  0.0  0.113825  0.106915  0.000365  1.044639  0.0
C  C30  1  0.74427619  0.86863173  0.95539486  1  0.06793  -0.00627  3.719736  -0.003  0.028282  0.002313  3.996571  0.003  0.040713  0.002033  4.011121  0.003  0.019007  0.019144  0.002961  3.987466  0.004
C  C31  1  0.25572376  0.13136697  0.45539714  1  0.067909  -0.006227  3.719774  -0.003  0.028265  0.002313  3.99661  0.003  0.040695  0.002033  4.011159  0.003  0.019009  0.019127  0.002961  3.987499  0.004
C  C32  1  0.64469806  0.75253239  0.89022979  1  -0.208338  0.00246  3.769252  0.003  -0.221783  0.001325  4.032658  0.002  -0.231162  0.000507  4.049277  0.001  -0.119113  -0.21572  0.001878  4.022844  0.002
C  C33  1  0.35530073  0.24746626  0.39023111  1  -0.208294  0.002445  3.769286  0.003  -0.221747  0.001325  4.032682  0.002  -0.231127  0.000507  4.049307  0.001  -0.119117  -0.215679  0.001878  4.022871  0.002
C  C34  1  0.53872852  0.82587919  0.81234990  1  0.017394  0.001876  3.655177  0.003  -0.042097  0.004517  3.910952  0.006  -0.031208  0.003703  3.921456  0.005  0.027094  -0.049047  0.004732  3.90422  0.006
C  C35  1  0.46126797  0.17412054  0.31235014  1  0.017377  0.001887  3.655222  0.003  -0.042116  0.004517  3.911002  0.006  -0.031227  0.003702  3.92151  0.005  0.027126  -0.049059  0.004732  3.904257  0.006
C  C36  1  0.50628945  0.09791409  0.76641550  1  -0.080028  -0.000274  3.662681  0.0  -0.157928  0.000375  3.902127  0.0  -0.1559  0.000242  3.913489  0.0  -0.051334  -0.158954  0.000646  3.894847  0.001
C  C37  1  0.49371110  0.90208560  0.26641529  1  -0.080015  -0.00025  3.662644  0.0  -0.157928  0.000375  3.902075  0.0  -0.15586  0.00024  3.913384  0.0  -0.051313  -0.158956  0.000646  3.894798  0.001
C  C38  1  0.62688323  0.15854183  0.66346945  1  0.074132  -0.000267  3.754678  0.0  0.094856  0.000139  4.000637  0.0  0.093301  -1.1e-05  4.026617  0.0  -0.013403  0.096101  0.00015  3.982889  0.0
C  C39  1  0.37311640  0.84145892  0.16346843  1  0.074169  -0.000288  3.754622  0.0  0.094932  0.000139  4.000537  0.0  0.093367  -1.1e-05  4.026509  0.0  -0.013386  0.096177  0.00015  3.982792  0.0
C  C40  1  0.69102120  0.05885997  0.58053555  1  -0.108153  0.000432  3.720617  0.001  -0.137248  0.000428  3.978457  0.001  -0.139017  0.000284  3.998946  0.001  -0.093575  -0.135928  0.000421  3.964587  0.001
C  C41  1  0.30898010  0.94114185  0.08053558  1  -0.108161  0.000443  3.720617  0.001  -0.137265  0.000428  3.978422  0.001  -0.139036  0.000284  3.998914  0.001  -0.093556  -0.13594  0.000421  3.964538  0.001
C  C42  1  0.80511929  0.11482974  0.48729248  1  -0.055892  0.000251  3.787972  0.0  -0.066637  0.000498  4.040722  0.001  -0.067685  0.000221  4.061172  0.0  -0.092059  -0.065981  0.00072  4.026222  0.001
C  C43  1  0.19488207  0.88517012  0.98729360  1  -0.055897  0.000237  3.787975  0.0  -0.066597  0.000498  4.040722  0.001  -0.067645  0.000221  4.061172  0.0  -0.09205  -0.065939  0.00072  4.026219  0.001
C  C44  1  0.85701972  0.26999912  0.47630691  1  -0.134086  0.000299  3.753416  0.0  -0.156401  0.000349  3.999843  0.0  -0.15984  0.000305  4.021417  0.0  -0.097415  -0.153476  0.000702  3.984517  0.001
C  C45  1  0.14298035  0.73000073  0.97630616  1  -0.134118  0.000306  3.753376  0.0  -0.156492  0.000349  3.999781  0.0  -0.15993  0.000304  4.021352  0.0  -0.097448  -0.153566  0.000702  3.984454  0.001
C  C46  1  0.79295184  0.37097775  0.55807945  1  0.069965  -0.000897  3.776689  -0.001  0.095479  -0.000587  4.011854  0.0  0.094599  -0.000677  4.037714  0.0  -0.014645  0.096479  -0.000178  3.993986  0.0
C  C47  1  0.20704803  0.62902292  0.05808121  1  0.06989  -0.000899  3.776722  -0.001  0.095509  -0.000588  4.01176  0.0  0.094634  -0.00068  4.03762  0.0  -0.014637  0.09651  -0.000178  3.993891  0.0
C  C48  1  0.67711215  0.31425001  0.65095424  1  -0.167141  0.000688  3.723844  0.001  -0.193772  0.00082  3.965446  0.001  -0.198085  0.000639  3.988756  0.001  -0.092981  -0.191404  0.00074  3.949976  0.001
C  C49  1  0.32288883  0.68575073  0.15095499  1  -0.167119  0.000691  3.723916  0.001  -0.193808  0.00082  3.965488  0.001  -0.198122  0.00064  3.988803  0.001  -0.093012  -0.19144  0.00074  3.950022  0.001
C  C50  1  0.85540310  0.53809647  0.55256070  1  -0.057157  0.000549  3.654098  0.001  -0.13867  0.0015  3.899812  0.002  -0.134804  0.001235  3.90985  0.002  -0.043858  -0.14117  0.001826  3.893246  0.003
C  C51  1  0.14459662  0.46190306  0.05256151  1  -0.057105  0.000545  3.65413  0.001  -0.13863  0.0015  3.899814  0.002  -0.134778  0.001237  3.909867  0.002  -0.043856  -0.141131  0.001826  3.893251  0.003
C  C52  1  0.75032331  0.55623407  0.33511162  1  0.026819  0.006104  3.653546  0.008  -0.034995  0.006899  3.905104  0.008  -0.023835  0.005471  3.91582  0.007  0.030589  -0.042572  0.008268  3.898655  0.009
C  C53  1  0.24967823  0.44376454  0.83511237  1  0.026867  0.006096  3.653557  0.008  -0.034932  0.006899  3.90512  0.008  -0.02377  0.005472  3.915826  0.007  0.030608  -0.04251  0.008269  3.898663  0.009
C  C54  1  0.79992274  0.65097018  0.23720308  1  -0.20287  0.001167  3.767666  0.002  -0.213574  0.000857  4.027607  0.001  -0.223614  -0.000248  4.046471  0.0  -0.113481  -0.20682  0.001898  4.015186  0.002
C  C55  1  0.20007771  0.34902836  0.73720383  1  -0.202875  0.001178  3.76774  0.002  -0.213577  0.000857  4.027663  0.001  -0.223616  -0.00025  4.04653  0.0  -0.113458  -0.206825  0.001898  4.015239  0.002
C  C56  1  0.94628675  0.74875130  0.27860568  1  0.069062  0.001064  3.710487  0.003  0.028303  0.005348  3.989707  0.007  0.040294  0.004578  4.004557  0.007  0.020599  0.019945  0.005943  3.979289  0.008
C  C57  1  0.05371294  0.25125180  0.77860562  1  0.068984  0.001036  3.710441  0.003  0.02824  0.005348  3.989678  0.007  0.040229  0.00458  4.004529  0.007  0.020564  0.019883  0.005943  3.979263  0.008
N  N58  1  0.70404873  0.00496228  0.91921536  1  -0.277924  0.039641  3.229982  0.062  -0.260929  0.029141  3.539908  0.037  -0.289464  0.022896  3.555642  0.029  -0.266706  -0.240392  0.034049  3.53114  0.043
N  N59  1  0.29595147  0.99503753  0.41921636  1  -0.277922  0.039628  3.229964  0.062  -0.26093  0.029141  3.539904  0.037  -0.289448  0.022895  3.555615  0.029  -0.266703  -0.240379  0.034048  3.531122  0.043
N  N60  1  0.57681217  0.97638121  0.83208497  1  0.078044  -0.000554  3.553586  0.0  0.203456  0.000329  3.723011  0.001  0.195756  -4.6e-05  3.749836  0.001  -0.141127  0.207337  0.000689  3.706566  0.001
N  N61  1  0.42318839  0.02361966  0.33208515  1  0.078063  -0.000562  3.553621  0.0  0.203465  0.000329  3.723054  0.001  0.195755  -4.2e-05  3.749867  0.001  -0.141136  0.207346  0.000689  3.706609  0.001
N  N62  1  0.86363640  0.59631230  0.42782404  1  0.072634  -0.003095  3.530472  -0.003  0.198334  -0.000553  3.702319  0.0  0.190483  -0.001233  3.728377  -0.001  -0.1405  0.201984  9.2e-05  3.686247  0.0
N  N63  1  0.13636377  0.40368751  0.92782581  1  0.072622  -0.00309  3.530544  -0.003  0.19829  -0.000552  3.702423  0.0  0.190435  -0.001234  3.7285  -0.001  -0.140468  0.201941  9.2e-05  3.686351  0.0
N  N64  1  0.98542443  0.71475838  0.39460015  1  -0.278487  0.039377  3.235535  0.06  -0.261493  0.030086  3.54501  0.038  -0.290421  0.023398  3.56025  0.028  -0.267504  -0.239697  0.035799  3.534486  0.045
N  N65  1  0.01457467  0.28524255  0.89460199  1  -0.27845  0.03939  3.235468  0.06  -0.261452  0.030086  3.544945  0.038  -0.290395  0.023399  3.560203  0.028  -0.26751  -0.239676  0.035799  3.534444  0.045
Cl  Cl66  1  0.61134083  0.36167271  0.01811126  1  -0.538454  0.078315  0.952235  0.112  -0.513934  0.0644  1.228816  0.081  -0.550811  0.045946  1.202199  0.057  -0.294127  -0.483715  0.080934  1.248509  0.101
Cl  Cl67  1  0.38865913  0.63832793  0.51811015  1  -0.538462  0.078314  0.952218  0.112  -0.513959  0.064399  1.228804  0.081  -0.550809  0.045946  1.202172  0.057  -0.294136  -0.483718  0.080934  1.248493  0.101
Cl  Cl68  1  0.91071939  0.13010134  0.17316446  1  -0.52218  0.084805  0.985113  0.124  -0.502412  0.067632  1.269934  0.088  -0.542647  0.047917  1.247129  0.062  -0.282771  -0.467784  0.086393  1.284812  0.112
Cl  Cl69  1  0.08928021  0.86989942  0.67316479  1  -0.522209  0.084804  0.985114  0.124  -0.502451  0.067631  1.269949  0.088  -0.542668  0.047916  1.247136  0.062  -0.282776  -0.4678  0.086394  1.284822  0.112
