# generated using pymatgen
data_H8PbC10I2(NO)2
_symmetry_space_group_name_H-M   'P 1'
_cell_length_a   8.59880094
_cell_length_b   9.50747310
_cell_length_c   10.27567743
_cell_angle_alpha   112.45899889
_cell_angle_beta   114.74273502
_cell_angle_gamma   89.94630725
_symmetry_Int_Tables_number   1
_chemical_formula_structural   H8PbC10I2(NO)2
_chemical_formula_sum   'H16 Pb2 C20 I4 N4 O4'
_cell_volume   692.31757000
_cell_formula_units_Z   2
loop_
 _symmetry_equiv_pos_site_id
 _symmetry_equiv_pos_as_xyz
  1  'x, y, z'
loop_
 _atom_site_type_symbol
 _atom_site_label
 _atom_site_symmetry_multiplicity
 _atom_site_fract_x
 _atom_site_fract_y
 _atom_site_fract_z
 _atom_site_occupancy
 _atom_site_hle17_bader_spin_density
 _atom_site_hle17_ddec_charge
 _atom_site_hle17_ddec_spin_density
 _atom_site_hle17_ddec_sum_bond_order
 _atom_site_hle17_magmom
 _atom_site_hse06_10hf_bader_spin_density
 _atom_site_hse06_10hf_ddec_charge
 _atom_site_hse06_10hf_ddec_spin_density
 _atom_site_hse06_10hf_ddec_sum_bond_order
 _atom_site_hse06_10hf_magmom
 _atom_site_hse06_bader_spin_density
 _atom_site_hse06_ddec_charge
 _atom_site_hse06_ddec_spin_density
 _atom_site_hse06_ddec_sum_bond_order
 _atom_site_hse06_magmom
 _atom_site_pbe_bader_spin_density
 _atom_site_pbe_cm5_charge
 _atom_site_pbe_ddec_charge
 _atom_site_pbe_ddec_spin_density
 _atom_site_pbe_ddec_sum_bond_order
 _atom_site_pbe_magmom
H  H0  1  0.39120771  0.36498942  0.40160753  1  0  0.111187  0  0.935825  0  0  0.119303  0  1.00079  0  0  0.122624  0  0.997309  0  0  0.123202  0.1161  0  1.004984  0
H  H1  1  0.98990249  0.13507992  0.59860788  1  0  0.110923  0  0.936342  0  0  0.118575  0  1.002301  0  0  0.121996  0  0.998621  0  0  0.123182  0.116225  0  1.004732  0
H  H2  1  0.60884080  0.63500644  0.59836765  1  0  0.111083  0  0.936106  0  0  0.119239  0  1.001016  0  0  0.122555  0  0.997534  0  0  0.123123  0.116032  0  1.005217  0
H  H3  1  0.01009123  0.86492150  0.40141838  1  0  0.11112  0  0.936597  0  0  0.118819  0  1.002473  0  0  0.122242  0  0.99879  0  0  0.12317  0.11647  0  1.004906  0
H  H4  1  0.24193056  0.55600546  0.53387425  1  0  0.103957  0  0.976089  0  0  0.108723  0  1.04545  0  0  0.112377  0  1.043815  0  0  0.092739  0.105913  0  1.047043  0
H  H5  1  0.70864327  0.94424795  0.46610439  1  0  0.103976  0  0.974991  0  0  0.108898  0  1.043932  0  0  0.11248  0  1.042413  0  0  0.092521  0.105501  0  1.047028  0
H  H6  1  0.75822654  0.44412160  0.46610676  1  0  0.104131  0  0.975939  0  0  0.108617  0  1.045545  0  0  0.112338  0  1.04384  0  0  0.092793  0.105781  0  1.047153  0
H  H7  1  0.29125316  0.05592098  0.53389353  1  0  0.104173  0  0.974914  0  0  0.109023  0  1.043866  0  0  0.112627  0  1.04229  0  0  0.092532  0.105576  0  1.046995  0
H  H8  1  0.93817507  0.58048273  0.36391611  1  0  0.102829  0  0.942813  0  0  0.110145  0  1.00965  0  0  0.11391  0  1.006093  0  0  0.101166  0.107389  0  1.012417  0
H  H9  1  0.57466136  0.91952229  0.63580731  1  0  0.102273  0  0.943065  0  0  0.109661  0  1.009892  0  0  0.113377  0  1.00641  0  0  0.101082  0.106699  0  1.012777  0
H  H10  1  0.06194232  0.41955210  0.63615143  1  0  0.102812  0  0.942609  0  0  0.110074  0  1.009509  0  0  0.113837  0  1.005959  0  0  0.101114  0.107321  0  1.012268  0
H  H11  1  0.42526920  0.08054898  0.36419866  1  0  0.102439  0  0.94279  0  0  0.109661  0  1.009757  0  0  0.113367  0  1.006296  0  0  0.101164  0.106697  0  1.012637  0
H  H12  1  0.80255833  0.41528830  0.07331733  1  0  0.106209  0  0.981139  0  0  0.111869  0  1.051659  0  0  0.115152  0  1.050153  0  0  0.098953  0.109135  0  1.053181  0
H  H13  1  0.72959163  0.08427870  0.92657148  1  0  0.107062  0  0.980983  0  0  0.112849  0  1.05113  0  0  0.115979  0  1.049942  0  0  0.09915  0.109321  0  1.054242  0
H  H14  1  0.19740161  0.58469786  0.92674041  1  0  0.106253  0  0.98121  0  0  0.111816  0  1.05187  0  0  0.115096  0  1.05037  0  0  0.09887  0.10908  0  1.053396  0
H  H15  1  0.27042896  0.91569237  0.07347953  1  0  0.106977  0  0.981355  0  0  0.112747  0  1.051501  0  0  0.115892  0  1.050265  0  0  0.099128  0.109219  0  1.054613  0
Pb  Pb16  1  0.43642912  0.24992237  0.00005962  1  0  0.983511  0  1.783391  0  0  0.820004  0  2.236874  0  0  0.877782  0  2.191897  0  0  0.387319  0.77813  0  2.268374  0
Pb  Pb17  1  0.56348247  0.75003919  0.99982167  1  0  0.9834  0  1.782959  0  0  0.819963  0  2.236434  0  0  0.877768  0  2.191407  0  0  0.387209  0.778093  0  2.267904  0
C  C18  1  0.26188578  0.38392858  0.33742829  1  0  0.018984  0  3.612499  0  0  -0.024882  0  3.877548  0  0  -0.017375  0  3.889032  0  0  0.036285  -0.030199  0  3.871952  0
C  C19  1  0.92482776  0.11596558  0.66271120  1  0  0.016196  0  3.61517  0  0  -0.027826  0  3.881014  0  0  -0.020272  0  3.892295  0  0  0.034815  -0.032772  0  3.873637  0
C  C20  1  0.73818293  0.61608487  0.66251349  1  0  0.019421  0  3.612037  0  0  -0.024381  0  3.87683  0  0  -0.016866  0  3.888323  0  0  0.036568  -0.029691  0  3.87123  0
C  C21  1  0.07517448  0.88398007  0.33731267  1  0  0.01579  0  3.615648  0  0  -0.028354  0  3.881458  0  0  -0.020792  0  3.89271  0  0  0.034737  -0.033297  0  3.874069  0
C  C22  1  0.17581954  0.48663061  0.40663146  1  0  -0.088191  0  3.750842  0  0  -0.10029  0  4.005329  0  0  -0.105299  0  4.023788  0  0  -0.082418  -0.09731  0  3.99437  0
C  C23  1  0.76969383  0.01329726  0.59336438  1  0  -0.086966  0  3.751129  0  0  -0.099024  0  4.005946  0  0  -0.103907  0  4.024255  0  0  -0.081758  -0.096095  0  3.994808  0
C  C24  1  0.82428731  0.51339889  0.59334682  1  0  -0.08854  0  3.751206  0  0  -0.100451  0  4.005734  0  0  -0.105511  0  4.024145  0  0  -0.08264  -0.097446  0  3.994793  0
C  C25  1  0.23024228  0.98675188  0.40664923  1  0  -0.087087  0  3.750595  0  0  -0.098962  0  4.005324  0  0  -0.103837  0  4.023643  0  0  -0.081708  -0.095983  0  3.994203  0
C  C26  1  0.00859018  0.49959467  0.31325562  1  0  -0.005844  0  3.700135  0  0  -0.032388  0  3.959724  0  0  -0.027797  0  3.974562  0  0  -0.074816  -0.036048  0  3.950136  0
C  C27  1  0.69579818  0.00020997  0.68660837  1  0  -0.004897  0  3.699843  0  0  -0.031638  0  3.959845  0  0  -0.027058  0  3.97462  0  0  -0.074557  -0.03427  0  3.949352  0
C  C28  1  0.99145961  0.50038817  0.68676401  1  0  -0.005596  0  3.699571  0  0  -0.032108  0  3.959146  0  0  -0.027504  0  3.973957  0  0  -0.074695  -0.035763  0  3.949554  0
C  C29  1  0.30412075  0.99983119  0.31337890  1  0  -0.005381  0  3.69995  0  0  -0.031944  0  3.959884  0  0  -0.02738  0  3.974667  0  0  -0.074808  -0.034557  0  3.949357  0
C  C30  1  0.93124512  0.40629958  0.15151744  1  0  -0.106202  0  3.723383  0  0  -0.128323  0  3.978229  0  0  -0.13196  0  3.995485  0  0  -0.074537  -0.125945  0  3.967765  0
C  C31  1  0.78010827  0.09328632  0.84840834  1  0  -0.106785  0  3.725995  0  0  -0.129347  0  3.980772  0  0  -0.132843  0  3.998049  0  0  -0.074712  -0.126719  0  3.969604  0
C  C32  1  0.06870967  0.59363906  0.84851955  1  0  -0.106365  0  3.723357  0  0  -0.128471  0  3.978269  0  0  -0.132094  0  3.995496  0  0  -0.074597  -0.126096  0  3.967812  0
C  C33  1  0.21983717  0.90673499  0.15159563  1  0  -0.106511  0  3.726567  0  0  -0.128991  0  3.981224  0  0  -0.132469  0  3.998498  0  0  -0.074652  -0.126367  0  3.970067  0
C  C34  1  0.01959952  0.30336467  0.08440405  1  0  0.101267  0  3.659983  0  0  0.091134  0  3.907287  0  0  0.0981  0  3.921284  0  0  0.117644  0.085636  0  3.898787  0
C  C35  1  0.93542567  0.19623515  0.91567702  1  0  0.098417  0  3.662705  0  0  0.089239  0  3.909266  0  0  0.096002  0  3.923416  0  0  0.117696  0.084705  0  3.900032  0
C  C36  1  0.98037488  0.69661240  0.91561264  1  0  0.101266  0  3.660224  0  0  0.091165  0  3.907526  0  0  0.098139  0  3.921532  0  0  0.117672  0.085669  0  3.899031  0
C  C37  1  0.06456823  0.80373146  0.08434074  1  0  0.098405  0  3.662825  0  0  0.089151  0  3.909441  0  0  0.095892  0  3.923601  0  0  0.117497  0.084616  0  3.900211  0
I  I38  1  0.48550148  0.39143942  0.75715095  1  0  -0.552547  0  0.928623  0  0  -0.482405  0  1.222854  0  0  -0.509728  0  1.20593  0  0  -0.212837  -0.459587  0  1.235263  0
I  I39  1  0.72814801  0.10853231  0.24277673  1  0  -0.551089  0  0.930551  0  0  -0.480662  0  1.22512  0  0  -0.508425  0  1.20829  0  0  -0.212322  -0.458971  0  1.237084  0
I  I40  1  0.51460359  0.60843350  0.24277749  1  0  -0.552383  0  0.928771  0  0  -0.482225  0  1.223009  0  0  -0.509558  0  1.206138  0  0  -0.212746  -0.459413  0  1.235431  0
I  I41  1  0.27175878  0.89129614  0.75722752  1  0  -0.551094  0  0.930746  0  0  -0.480759  0  1.225581  0  0  -0.508534  0  1.208715  0  0  -0.212295  -0.459054  0  1.237516  0
N  N42  1  0.18473374  0.29406194  0.17945343  1  0  0.243184  0  3.686401  0  0  0.290151  0  3.942943  0  0  0.290382  0  3.96296  0  0  -0.103357  0.289401  0  3.928947  0
N  N43  1  0.00546411  0.20577935  0.82071659  1  0  0.244877  0  3.683953  0  0  0.291835  0  3.940024  0  0  0.292126  0  3.960168  0  0  -0.102009  0.290916  0  3.926851  0
N  N44  1  0.81526521  0.70597109  0.82052660  1  0  0.242758  0  3.686145  0  0  0.289743  0  3.942704  0  0  0.289965  0  3.962738  0  0  -0.103352  0.288991  0  3.928714  0
N  N45  1  0.99452115  0.79417683  0.17929639  1  0  0.244918  0  3.684073  0  0  0.291963  0  3.940172  0  0  0.292269  0  3.960319  0  0  -0.101826  0.291042  0  3.926991  0
O  O46  1  0.26771865  0.19261479  0.11882490  1  0  -0.526713  0  1.906228  0  0  -0.473663  0  2.157149  0  0  -0.499565  0  2.158571  0  0  -0.215957  -0.453541  0  2.155001  0
O  O47  1  0.14880168  0.30741720  0.88149806  1  0  -0.525637  0  1.903495  0  0  -0.471893  0  2.153542  0  0  -0.498058  0  2.155273  0  0  -0.216432  -0.453584  0  2.152073  0
O  O48  1  0.73229823  0.80744849  0.88114590  1  0  -0.526558  0  1.906283  0  0  -0.473603  0  2.157335  0  0  -0.499484  0  2.158709  0  0  -0.215949  -0.453464  0  2.155163  0
O  O49  1  0.85120173  0.69254011  0.11851968  1  0  -0.525413  0  1.903223  0  0  -0.471782  0  2.153234  0  0  -0.497956  0  2.15498  0  0  -0.216348  -0.453488  0  2.151807  0
