# generated using pymatgen
data_Ag2H11C14(NO2)3
_symmetry_space_group_name_H-M   'P 1'
_cell_length_a   8.23921626
_cell_length_b   10.01447299
_cell_length_c   10.28962802
_cell_angle_alpha   65.36424644
_cell_angle_beta   77.70433313
_cell_angle_gamma   79.68931864
_symmetry_Int_Tables_number   1
_chemical_formula_structural   Ag2H11C14(NO2)3
_chemical_formula_sum   'Ag4 H22 C28 N6 O12'
_cell_volume   750.12893206
_cell_formula_units_Z   2
loop_
 _symmetry_equiv_pos_site_id
 _symmetry_equiv_pos_as_xyz
  1  'x, y, z'
loop_
 _atom_site_type_symbol
 _atom_site_label
 _atom_site_symmetry_multiplicity
 _atom_site_fract_x
 _atom_site_fract_y
 _atom_site_fract_z
 _atom_site_occupancy
 _atom_site_hle17_bader_spin_density
 _atom_site_hle17_ddec_charge
 _atom_site_hle17_ddec_spin_density
 _atom_site_hle17_ddec_sum_bond_order
 _atom_site_hle17_magmom
 _atom_site_hse06_10hf_bader_spin_density
 _atom_site_hse06_10hf_ddec_charge
 _atom_site_hse06_10hf_ddec_spin_density
 _atom_site_hse06_10hf_ddec_sum_bond_order
 _atom_site_hse06_10hf_magmom
 _atom_site_hse06_bader_spin_density
 _atom_site_hse06_ddec_charge
 _atom_site_hse06_ddec_spin_density
 _atom_site_hse06_ddec_sum_bond_order
 _atom_site_hse06_magmom
 _atom_site_pbe_bader_spin_density
 _atom_site_pbe_cm5_charge
 _atom_site_pbe_ddec_charge
 _atom_site_pbe_ddec_spin_density
 _atom_site_pbe_ddec_sum_bond_order
 _atom_site_pbe_magmom
Ag  Ag0  1  0.77363845  0.29606011  0.18854855  1  0  0.531915  0  1.4082  0  0  0.393976  0  1.855406  0  0  0.429236  0  1.800535  0  0  0.448066  0.368922  0  1.893443  0
Ag  Ag1  1  0.22635816  0.70394051  0.81145280  1  0  0.531882  0  1.408206  0  0  0.393965  0  1.85543  0  0  0.429226  0  1.800556  0  0  0.448072  0.368908  0  1.893475  0
Ag  Ag2  1  0.91161304  0.62702349  0.02072125  1  0  0.495661  0  1.590292  0  0  0.380164  0  2.071845  0  0  0.414058  0  2.006111  0  0  0.397812  0.354105  0  2.118169  0
Ag  Ag3  1  0.08838481  0.37297714  0.97927987  1  0  0.495683  0  1.590271  0  0  0.380186  0  2.071812  0  0  0.414082  0  2.006077  0  0  0.397823  0.354126  0  2.118133  0
H  H4  1  0.59192984  0.80131433  0.65952310  1  0  0.12295  0  0.956282  0  0  0.12085  0  1.037153  0  0  0.125854  0  1.031085  0  0  0.113167  0.117062  0  1.04213  0
H  H5  1  0.40807188  0.19868520  0.34047781  1  0  0.12292  0  0.956298  0  0  0.120819  0  1.037178  0  0  0.125821  0  1.031111  0  0  0.113155  0.117031  0  1.042153  0
H  H6  1  0.87644510  0.41864207  0.60431103  1  0  0.108018  0  0.955168  0  0  0.113919  0  1.025445  0  0  0.118042  0  1.021521  0  0  0.109312  0.110954  0  1.028125  0
H  H7  1  0.12356006  0.58135967  0.39568547  1  0  0.108023  0  0.955162  0  0  0.113935  0  1.025424  0  0  0.118051  0  1.02151  0  0  0.109314  0.11097  0  1.028107  0
H  H8  1  0.54670767  0.69515981  0.30324692  1  0  0.118913  0  0.958126  0  0  0.123723  0  1.028806  0  0  0.127842  0  1.024951  0  0  0.113286  0.120655  0  1.031867  0
H  H9  1  0.45329004  0.30484190  0.69674893  1  0  0.118902  0  0.958159  0  0  0.123713  0  1.028839  0  0  0.127831  0  1.024983  0  0  0.113295  0.120642  0  1.031905  0
H  H10  1  0.48859251  0.24953336  0.06201071  1  0  0.141511  0  0.941992  0  0  0.161157  0  1.005506  0  0  0.163019  0  1.004092  0  0  0.100582  0.15985  0  1.006481  0
H  H11  1  0.51140561  0.75046505  0.93799031  1  0  0.141465  0  0.942057  0  0  0.16112  0  1.005559  0  0  0.162981  0  1.004147  0  0  0.100573  0.159824  0  1.006524  0
H  H12  1  0.53267999  0.21870272  0.89920059  1  0  0.126425  0  0.95709  0  0  0.145812  0  1.019445  0  0  0.147585  0  1.018526  0  0  0.09684  0.144381  0  1.020346  0
H  H13  1  0.46731937  0.78129570  0.10080118  1  0  0.126442  0  0.957094  0  0  0.14581  0  1.019475  0  0  0.147582  0  1.018556  0  0  0.096837  0.144377  0  1.020377  0
H  H14  1  0.65667285  0.33114012  0.92593678  1  0  0.13473  0  0.962121  0  0  0.155351  0  1.022848  0  0  0.156539  0  1.022906  0  0  0.097519  0.154437  0  1.022845  0
H  H15  1  0.34332611  0.66886160  0.07406176  1  0  0.134688  0  0.962187  0  0  0.155329  0  1.02289  0  0  0.156517  0  1.022948  0  0  0.097506  0.154415  0  1.022887  0
H  H16  1  0.66349627  0.97323071  0.93370782  1  0  0.104723  0  0.949343  0  0  0.115656  0  1.008726  0  0  0.117709  0  1.008595  0  0  0.121908  0.1143  0  1.009064  0
H  H17  1  0.33650322  0.02676660  0.06629341  1  0  0.104749  0  0.949296  0  0  0.115666  0  1.008695  0  0  0.117719  0  1.008563  0  0  0.121908  0.11431  0  1.009032  0
H  H18  1  0.99772952  0.76200449  0.22465615  1  0  0.104907  0  0.953225  0  0  0.114063  0  1.015209  0  0  0.116985  0  1.013763  0  0  0.118915  0.111994  0  1.016418  0
H  H19  1  0.00227206  0.23799615  0.77534433  1  0  0.104919  0  0.953239  0  0  0.114068  0  1.015225  0  0  0.116991  0  1.013779  0  0  0.118916  0.112  0  1.016432  0
H  H20  1  0.08239069  0.07549752  0.25858607  1  0  0.135461  0  0.950732  0  0  0.152033  0  1.022429  0  0  0.154027  0  1.020556  0  0  0.097616  0.150768  0  1.02329  0
H  H21  1  0.91760690  0.92450530  0.74141226  1  0  0.135453  0  0.950739  0  0  0.15202  0  1.022444  0  0  0.154011  0  1.020575  0  0  0.097614  0.150758  0  1.0233  0
H  H22  1  0.07022212  0.88221428  0.36229897  1  0  0.148067  0  0.949421  0  0  0.165918  0  1.00889  0  0  0.168777  0  1.007327  0  0  0.097857  0.163832  0  1.00998  0
H  H23  1  0.92977560  0.11778746  0.63770270  1  0  0.148073  0  0.94937  0  0  0.165911  0  1.008863  0  0  0.168768  0  1.007304  0  0  0.097858  0.163824  0  1.009953  0
H  H24  1  0.91250317  0.01425794  0.39830856  1  0  0.150573  0  0.948227  0  0  0.173233  0  1.001905  0  0  0.174872  0  1.001374  0  0  0.104022  0.172331  0  1.002096  0
H  H25  1  0.08749454  0.98574377  0.60168923  1  0  0.150551  0  0.948224  0  0  0.173204  0  1.001911  0  0  0.174838  0  1.001386  0  0  0.104021  0.172303  0  1.0021  0
C  C26  1  0.55869360  0.75839249  0.47750077  1  0  0.068535  0  3.724017  0  0  0.05569  0  3.977304  0  0  0.049864  0  3.999736  0  0  0.076447  0.059593  0  3.962768  0
C  C27  1  0.44130948  0.24160594  0.52249938  1  0  0.068559  0  3.723938  0  0  0.055695  0  3.977239  0  0  0.049867  0  3.999676  0  0  0.076447  0.059599  0  3.962703  0
C  C28  1  0.62638638  0.72920764  0.60102682  1  0  -0.072431  0  3.659147  0  0  -0.111669  0  3.919097  0  0  -0.10581  0  3.932521  0  0  -0.064445  -0.115936  0  3.910964  0
C  C29  1  0.37361506  0.27079409  0.39897129  1  0  -0.072405  0  3.659142  0  0  -0.111632  0  3.919102  0  0  -0.105775  0  3.932531  0  0  -0.064422  -0.115898  0  3.910967  0
C  C30  1  0.74455803  0.60714681  0.64554292  1  0  -0.03669  0  3.7032  0  0  -0.005733  0  3.929479  0  0  -0.01654  0  3.952337  0  0  -0.004844  0.0008  0  3.91456  0
C  C31  1  0.25544257  0.39285161  0.35445767  1  0  -0.036626  0  3.703276  0  0  -0.005707  0  3.929604  0  0  -0.016503  0  3.952439  0  0  -0.004813  0.000824  0  3.914687  0
C  C32  1  0.78712581  0.51564455  0.56883063  1  0  -0.02739  0  3.629889  0  0  -0.068956  0  3.877821  0  0  -0.063672  0  3.893901  0  0  -0.058236  -0.071461  0  3.866593  0
C  C33  1  0.21287674  0.48435829  0.43116587  1  0  -0.027432  0  3.629841  0  0  -0.069  0  3.877786  0  0  -0.063712  0  3.893869  0  0  -0.058265  -0.071507  0  3.866563  0
C  C34  1  0.71714085  0.54600581  0.44587559  1  0  -0.050238  0  3.738164  0  0  -0.023584  0  3.974953  0  0  -0.03405  0  3.99823  0  0  -0.011967  -0.016883  0  3.959633  0
C  C35  1  0.28286099  0.45399263  0.55412575  1  0  -0.050215  0  3.738162  0  0  -0.023559  0  3.974946  0  0  -0.034026  0  3.998222  0  0  -0.011918  -0.016856  0  3.959625  0
C  C36  1  0.60307023  0.67040865  0.39803357  1  0  -0.082828  0  3.688874  0  0  -0.125072  0  3.950577  0  0  -0.120533  0  3.967554  0  0  -0.068313  -0.128025  0  3.939659  0
C  C37  1  0.39693134  0.32959198  0.60196400  1  0  -0.082821  0  3.688931  0  0  -0.125061  0  3.950631  0  0  -0.120521  0  3.967608  0  0  -0.068337  -0.128012  0  3.939719  0
C  C38  1  0.82409314  0.57218171  0.77618965  1  0  0.640892  0  3.914208  0  0  0.587718  0  4.196354  0  0  0.623772  0  4.193022  0  0  0.208679  0.56363  0  4.19715  0
C  C39  1  0.17590870  0.42781672  0.22381072  1  0  0.6408  0  3.914308  0  0  0.587647  0  4.196441  0  0  0.623699  0  4.193114  0  0  0.208669  0.56356  0  4.197235  0
C  C40  1  0.76066956  0.44032637  0.37166691  1  0  0.619926  0  3.940635  0  0  0.568909  0  4.225941  0  0  0.602713  0  4.224582  0  0  0.185454  0.546196  0  4.225939  0
C  C41  1  0.23933064  0.55967535  0.62833045  1  0  0.619974  0  3.940614  0  0  0.568956  0  4.225926  0  0  0.602761  0  4.224564  0  0  0.185453  0.546244  0  4.225923  0
C  C42  1  0.58946219  0.23197257  0.97952389  1  0  -0.389413  0  3.691965  0  0  -0.470965  0  3.921795  0  0  -0.474025  0  3.929514  0  0  -0.242178  -0.468213  0  3.916224  0
C  C43  1  0.41053592  0.76802584  0.02047616  1  0  -0.389347  0  3.692072  0  0  -0.470895  0  3.92191  0  0  -0.473956  0  3.929631  0  0  -0.242159  -0.468153  0  3.916331  0
C  C44  1  0.70669387  0.10034580  0.04708056  1  0  0.284155  0  3.719742  0  0  0.28819  0  3.966296  0  0  0.295352  0  3.988175  0  0  0.127073  0.283237  0  3.95122  0
C  C45  1  0.29330412  0.89965372  0.95292100  1  0  0.28407  0  3.719719  0  0  0.288106  0  3.966321  0  0  0.295267  0  3.988201  0  0  0.127035  0.283152  0  3.95125  0
C  C46  1  0.72869380  0.97512072  0.01449217  1  0  -0.003239  0  3.659287  0  0  -0.037886  0  3.918129  0  0  -0.039598  0  3.937671  0  0  0.044863  -0.037095  0  3.904979  0
C  C47  1  0.27130569  0.02487660  0.98551003  1  0  -0.003266  0  3.659179  0  0  -0.037881  0  3.91801  0  0  -0.039597  0  3.937559  0  0  0.044857  -0.03709  0  3.904859  0
C  C48  1  0.91465123  0.85995721  0.17414008  1  0  0.008614  0  3.640556  0  0  -0.026511  0  3.899092  0  0  -0.028005  0  3.9187  0  0  0.044241  -0.025717  0  3.885521  0
C  C49  1  0.08534800  0.14004232  0.82586126  1  0  0.008568  0  3.640609  0  0  -0.026547  0  3.899126  0  0  -0.028042  0  3.918732  0  0  0.044248  -0.025754  0  3.885555  0
C  C50  1  0.89971134  0.98388004  0.20806424  1  0  0.289742  0  3.707472  0  0  0.292454  0  3.954914  0  0  0.299795  0  3.977264  0  0  0.128492  0.287588  0  3.939415  0
C  C51  1  0.10028776  0.01612059  0.79193764  1  0  0.289713  0  3.707521  0  0  0.292467  0  3.95493  0  0  0.299811  0  3.977276  0  0  0.128483  0.2876  0  3.939434  0
C  C52  1  0.99729724  0.98813675  0.31218443  1  0  -0.406788  0  3.685383  0  0  -0.486874  0  3.913655  0  0  -0.491115  0  3.921153  0  0  -0.24777  -0.483502  0  3.908048  0
C  C53  1  0.00270049  0.01186499  0.68781820  1  0  -0.406744  0  3.685372  0  0  -0.486799  0  3.913597  0  0  -0.491031  0  3.921101  0  0  -0.247752  -0.483428  0  3.907993  0
N  N54  1  0.79542655  0.10342310  0.14217227  1  0  -0.3627  0  3.251873  0  0  -0.281991  0  3.519211  0  0  -0.303338  0  3.536156  0  0  -0.330986  -0.267125  0  3.506968  0
N  N55  1  0.20457144  0.89657642  0.85782832  1  0  -0.362562  0  3.251735  0  0  -0.281941  0  3.519153  0  0  -0.303287  0  3.536097  0  0  -0.330969  -0.267075  0  3.506913  0
N  N56  1  0.83249512  0.85610253  0.07687189  1  0  -0.223665  0  3.209465  0  0  -0.166642  0  3.494304  0  0  -0.175629  0  3.509734  0  0  -0.304575  -0.159687  0  3.483063  0
N  N57  1  0.16750522  0.14389811  0.92312978  1  0  -0.223623  0  3.209343  0  0  -0.166607  0  3.494163  0  0  -0.175595  0  3.509592  0  0  -0.304566  -0.159653  0  3.482923  0
N  N58  1  0.43430291  0.88484511  0.43017238  1  0  0.48555  0  3.941271  0  0  0.542168  0  4.18708  0  0  0.564751  0  4.194417  0  0  0.05651  0.527086  0  4.182102  0
N  N59  1  0.56569893  0.11515331  0.56982798  1  0  0.48559  0  3.941191  0  0  0.542217  0  4.186984  0  0  0.564794  0  4.194328  0  0  0.056506  0.527134  0  4.18201  0
O  O60  1  0.70230249  0.48173578  0.25110440  1  0  -0.629865  0  2.0826  0  0  -0.536803  0  2.348272  0  0  -0.572248  0  2.339425  0  0  -0.348182  -0.511373  0  2.353287  0
O  O61  1  0.29769895  0.51826596  0.74889371  1  0  -0.629895  0  2.082507  0  0  -0.536841  0  2.348192  0  0  -0.572284  0  2.339344  0  0  -0.348182  -0.511412  0  2.35321  0
O  O62  1  0.84476016  0.31998964  0.42892616  1  0  -0.597625  0  1.934346  0  0  -0.548195  0  2.162858  0  0  -0.574544  0  2.157959  0  0  -0.320264  -0.529572  0  2.165461  0
O  O63  1  0.15524017  0.68001099  0.57107357  1  0  -0.597626  0  1.934373  0  0  -0.548188  0  2.162872  0  0  -0.574537  0  2.157967  0  0  -0.320262  -0.529566  0  2.165475  0
O  O64  1  0.91129865  0.44774058  0.82021509  1  0  -0.620808  0  2.146971  0  0  -0.546982  0  2.415129  0  0  -0.579327  0  2.405224  0  0  -0.320638  -0.524739  0  2.421299  0
O  O65  1  0.08870305  0.55225894  0.17978291  1  0  -0.620772  0  2.146936  0  0  -0.546961  0  2.415092  0  0  -0.579307  0  2.40519  0  0  -0.320658  -0.524718  0  2.421263  0
O  O66  1  0.79481732  0.66751426  0.83221534  1  0  -0.593729  0  2.089202  0  0  -0.516011  0  2.349827  0  0  -0.54852  0  2.338904  0  0  -0.31823  -0.493026  0  2.35617  0
O  O67  1  0.20518315  0.33248527  0.16778579  1  0  -0.593721  0  2.08925  0  0  -0.516003  0  2.349866  0  0  -0.548513  0  2.338945  0  0  -0.318244  -0.493018  0  2.356205  0
O  O68  1  0.35633672  0.93378455  0.52100161  1  0  -0.358614  0  1.866078  0  0  -0.345567  0  2.08214  0  0  -0.359742  0  2.078564  0  0  -0.117541  -0.336186  0  2.08493  0
O  O69  1  0.64366374  0.06621498  0.47899854  1  0  -0.358685  0  1.866072  0  0  -0.345613  0  2.082101  0  0  -0.359773  0  2.078524  0  0  -0.117557  -0.336232  0  2.084894  0
O  O70  1  0.41321113  0.93770204  0.30123566  1  0  -0.365253  0  1.768145  0  0  -0.351564  0  1.961312  0  0  -0.364123  0  1.958719  0  0  -0.130488  -0.3432  0  1.963337  0
O  O71  1  0.58678797  0.06229859  0.69876525  1  0  -0.365273  0  1.768115  0  0  -0.351578  0  1.961258  0  0  -0.364135  0  1.95867  0  0  -0.130486  -0.343213  0  1.963284  0
