# generated using pymatgen
data_ErH13(C9O7)2
_symmetry_space_group_name_H-M   'P 1'
_cell_length_a   9.39975684
_cell_length_b   10.43448363
_cell_length_c   11.08882218
_cell_angle_alpha   78.14376225
_cell_angle_beta   70.32892614
_cell_angle_gamma   92.04653024
_symmetry_Int_Tables_number   1
_chemical_formula_structural   ErH13(C9O7)2
_chemical_formula_sum   'Er2 H26 C36 O28'
_cell_volume   995.77744378
_cell_formula_units_Z   2
loop_
 _symmetry_equiv_pos_site_id
 _symmetry_equiv_pos_as_xyz
  1  'x, y, z'
loop_
 _atom_site_type_symbol
 _atom_site_label
 _atom_site_symmetry_multiplicity
 _atom_site_fract_x
 _atom_site_fract_y
 _atom_site_fract_z
 _atom_site_occupancy
 _atom_site_hle17_bader_spin_density
 _atom_site_hle17_ddec_charge
 _atom_site_hle17_ddec_spin_density
 _atom_site_hle17_ddec_sum_bond_order
 _atom_site_hle17_magmom
 _atom_site_hse06_10hf_bader_spin_density
 _atom_site_hse06_10hf_ddec_charge
 _atom_site_hse06_10hf_ddec_spin_density
 _atom_site_hse06_10hf_ddec_sum_bond_order
 _atom_site_hse06_10hf_magmom
 _atom_site_hse06_bader_spin_density
 _atom_site_hse06_ddec_charge
 _atom_site_hse06_ddec_spin_density
 _atom_site_hse06_ddec_sum_bond_order
 _atom_site_hse06_magmom
 _atom_site_pbe_bader_spin_density
 _atom_site_pbe_cm5_charge
 _atom_site_pbe_ddec_charge
 _atom_site_pbe_ddec_spin_density
 _atom_site_pbe_ddec_sum_bond_order
 _atom_site_pbe_magmom
Er  Er0  1  0.76399953  0.03072810  0.49754381  1  0  2.330287  0  1.524848  0  0  2.267834  0  1.837516  0  0  2.314679  0  1.796941  0  0  1.488632  2.1504  0  2.020264  0
Er  Er1  1  0.23600712  0.96927918  0.50245490  1  0  2.330307  0  1.524724  0  0  2.26786  0  1.837371  0  0  2.314699  0  1.796795  0  0  1.488615  2.150505  0  2.019971  0
H  H2  1  0.01898823  0.62770440  0.32609838  1  0  0.108551  0  0.925022  0  0  0.121731  0  0.976836  0  0  0.125989  0  0.973673  0  0  0.110854  0.118056  0  0.980132  0
H  H3  1  0.98100259  0.37230335  0.67391191  1  0  0.108647  0  0.925131  0  0  0.121879  0  0.97687  0  0  0.126136  0  0.973703  0  0  0.11094  0.118204  0  0.980165  0
H  H4  1  0.94794895  0.53129283  0.16605635  1  0  0.127578  0  0.98133  0  0  0.133382  0  1.041288  0  0  0.13871  0  1.037708  0  0  0.111553  0.129287  0  1.043961  0
H  H5  1  0.05203360  0.46869999  0.83395893  1  0  0.127526  0  0.981404  0  0  0.13329  0  1.041397  0  0  0.138664  0  1.037754  0  0  0.111499  0.129192  0  1.044075  0
H  H6  1  0.67020651  0.33839454  0.17167258  1  0  0.138911  0  0.915597  0  0  0.14672  0  0.972872  0  0  0.15131  0  0.969262  0  0  0.122445  0.143124  0  0.976211  0
H  H7  1  0.32979658  0.66159986  0.82833032  1  0  0.138906  0  0.915507  0  0  0.146747  0  0.972755  0  0  0.151338  0  0.969143  0  0  0.122434  0.143147  0  0.976094  0
H  H8  1  0.35456503  0.54250802  0.03411983  1  0  0.135935  0  0.966115  0  0  0.140811  0  1.030328  0  0  0.1454  0  1.027225  0  0  0.115964  0.137841  0  1.031631  0
H  H9  1  0.64542171  0.45749276  0.96589285  1  0  0.136001  0  0.965986  0  0  0.140855  0  1.030233  0  0  0.145444  0  1.02713  0  0  0.115969  0.137886  0  1.031532  0
H  H10  1  0.28620658  0.74693388  0.30156896  1  0  0.394797  0  0.897655  0  0  0.364059  0  0.97859  0  0  0.374599  0  0.967897  0  0  0.30511  0.356245  0  0.986609  0
H  H11  1  0.71380403  0.25306840  0.69843854  1  0  0.394733  0  0.897581  0  0  0.364031  0  0.978465  0  0  0.37457  0  0.96778  0  0  0.305159  0.356217  0  0.986478  0
H  H12  1  0.73277966  0.73159502  0.42715470  1  0  0.440683  0  0.798963  0  0  0.427571  0  0.844149  0  0  0.43419  0  0.837139  0  0  0.337436  0.422116  0  0.849602  0
H  H13  1  0.26722221  0.26839762  0.57283624  1  0  0.440707  0  0.798945  0  0  0.427629  0  0.844073  0  0  0.434237  0  0.837083  0  0  0.337491  0.42218  0  0.849515  0
H  H14  1  0.68713276  0.84200792  0.33354930  1  0  0.448529  0  0.824117  0  0  0.418023  0  0.896846  0  0  0.426553  0  0.884327  0  0  0.321798  0.411747  0  0.905865  0
H  H15  1  0.31285876  0.15798339  0.66645020  1  0  0.448523  0  0.824141  0  0  0.418023  0  0.896844  0  0  0.426558  0  0.884317  0  0  0.321821  0.411749  0  0.905862  0
H  H16  1  0.68509452  0.76926460  0.70727702  1  0  0.455502  0  0.784703  0  0  0.439062  0  0.834898  0  0  0.446401  0  0.82703  0  0  0.340058  0.433152  0  0.840627  0
H  H17  1  0.31489837  0.23074121  0.29273484  1  0  0.455528  0  0.784608  0  0  0.439095  0  0.8348  0  0  0.446434  0  0.826934  0  0  0.34003  0.433181  0  0.840537  0
H  H18  1  0.79417758  0.85575966  0.74665335  1  0  0.462066  0  0.827517  0  0  0.428684  0  0.89413  0  0  0.438726  0  0.879324  0  0  0.321031  0.421325  0  0.904767  0
H  H19  1  0.20582446  0.14424658  0.25334413  1  0  0.462202  0  0.82735  0  0  0.428712  0  0.894111  0  0  0.438755  0  0.879306  0  0  0.321032  0.421347  0  0.90476  0
H  H20  1  0.93298265  0.27188584  0.30336597  1  0  0.44995  0  0.851487  0  0  0.416016  0  0.919402  0  0  0.428588  0  0.901263  0  0  0.291527  0.406803  0  0.932395  0
H  H21  1  0.06701507  0.72811060  0.69662726  1  0  0.450051  0  0.851338  0  0  0.416117  0  0.91925  0  0  0.42868  0  0.901125  0  0  0.29157  0.406899  0  0.932251  0
H  H22  1  0.03775086  0.21306033  0.38404949  1  0  0.429683  0  0.868909  0  0  0.403961  0  0.924271  0  0  0.414177  0  0.909042  0  0  0.298003  0.396076  0  0.935823  0
H  H23  1  0.96224949  0.78694004  0.61594591  1  0  0.429731  0  0.868867  0  0  0.404016  0  0.924215  0  0  0.414223  0  0.909  0  0  0.298021  0.396121  0  0.935782  0
H  H24  1  0.51813686  0.20843176  0.51129406  1  0  0.439784  0  0.856444  0  0  0.412235  0  0.914038  0  0  0.422655  0  0.898676  0  0  0.301842  0.404087  0  0.9259  0
H  H25  1  0.48186493  0.79156071  0.48870594  1  0  0.439807  0  0.856426  0  0  0.412262  0  0.914017  0  0  0.422683  0  0.898654  0  0  0.301885  0.404125  0  0.925864  0
H  H26  1  0.64882096  0.28544878  0.53520086  1  0  0.442688  0  0.84157  0  0  0.418578  0  0.892301  0  0  0.42862  0  0.877345  0  0  0.312606  0.410935  0  0.903496  0
H  H27  1  0.35116530  0.71454711  0.46481102  1  0  0.442801  0  0.841384  0  0  0.418669  0  0.892168  0  0  0.428721  0  0.877195  0  0  0.312646  0.41102  0  0.903377  0
C  C28  1  0.07575465  0.88881213  0.31948715  1  0  0.736982  0  3.837422  0  0  0.68423  0  4.140233  0  0  0.721316  0  4.124618  0  0  0.237585  0.657674  0  4.144478  0
C  C29  1  0.92424198  0.11118515  0.68051255  1  0  0.737021  0  3.837439  0  0  0.684156  0  4.14041  0  0  0.721241  0  4.124788  0  0  0.237493  0.65759  0  4.144661  0
C  C30  1  0.03435752  0.82998029  0.22129705  1  0  -0.072606  0  3.723089  0  0  -0.062205  0  3.968822  0  0  -0.066447  0  3.988057  0  0  -0.005779  -0.059949  0  3.957928  0
C  C31  1  0.96566373  0.17002551  0.77868969  1  0  -0.072631  0  3.723246  0  0  -0.06216  0  3.968957  0  0  -0.066387  0  3.988171  0  0  -0.005648  -0.059892  0  3.958044  0
C  C32  1  0.00593791  0.69305078  0.24084808  1  0  -0.080602  0  3.721586  0  0  -0.106215  0  3.980348  0  0  -0.105307  0  3.996148  0  0  -0.079499  -0.106471  0  3.970254  0
C  C33  1  0.99405486  0.30695324  0.75915422  1  0  -0.080614  0  3.721874  0  0  -0.106317  0  3.980636  0  0  -0.105403  0  3.996427  0  0  -0.079559  -0.106573  0  3.970538  0
C  C34  1  0.96497039  0.63843734  0.15064596  1  0  -0.046705  0  3.638978  0  0  -0.069912  0  3.890563  0  0  -0.070702  0  3.905197  0  0  -0.066125  -0.069265  0  3.880582  0
C  C35  1  0.03502273  0.36155886  0.84935582  1  0  -0.046745  0  3.639123  0  0  -0.069833  0  3.890738  0  0  -0.070653  0  3.905346  0  0  -0.066058  -0.069197  0  3.880762  0
C  C36  1  0.94977162  0.71905882  0.03868993  1  0  0.008246  0  3.604922  0  0  0.015745  0  3.84795  0  0  0.016724  0  3.862597  0  0  0.021554  0.014772  0  3.838995  0
C  C37  1  0.05024217  0.28094001  0.96129564  1  0  0.00843  0  3.605107  0  0  0.01565  0  3.848326  0  0  0.016623  0  3.863003  0  0  0.021496  0.014682  0  3.839352  0
C  C38  1  0.97053378  0.85674319  0.02232932  1  0  -0.057048  0  3.72171  0  0  -0.057317  0  3.965328  0  0  -0.062182  0  3.985268  0  0  -0.004882  -0.054574  0  3.952993  0
C  C39  1  0.02949320  0.14326287  0.97764854  1  0  -0.057  0  3.721735  0  0  -0.057141  0  3.965286  0  0  -0.062092  0  3.985268  0  0  -0.004804  -0.054366  0  3.952897  0
C  C40  1  0.01760960  0.91169660  0.11067715  1  0  -0.05763  0  3.74813  0  0  -0.060775  0  3.994218  0  0  -0.065454  0  4.016019  0  0  -0.009875  -0.057901  0  3.980283  0
C  C41  1  0.98241242  0.08830537  0.88930555  1  0  -0.057657  0  3.748173  0  0  -0.060823  0  3.9942  0  0  -0.065461  0  4.016049  0  0  -0.009948  -0.057964  0  3.980251  0
C  C42  1  0.92735011  0.66135414  0.93043680  1  0  0.648059  0  3.972601  0  0  0.592033  0  4.28831  0  0  0.626269  0  4.279507  0  0  0.20136  0.567938  0  4.294156  0
C  C43  1  0.07264789  0.33863434  0.06956317  1  0  0.64788  0  3.972645  0  0  0.592052  0  4.288111  0  0  0.626309  0  4.279281  0  0  0.201333  0.567942  0  4.293977  0
C  C44  1  0.06017879  0.05445137  0.08453028  1  0  0.416605  0  3.72177  0  0  0.388522  0  3.989876  0  0  0.414785  0  3.987145  0  0  0.168431  0.370011  0  3.992458  0
C  C45  1  0.93984253  0.94555458  0.91544830  1  0  0.416695  0  3.721651  0  0  0.388639  0  3.989843  0  0  0.41478  0  3.987267  0  0  0.168472  0.370135  0  3.992431  0
C  C46  1  0.60415703  0.07981411  0.28359276  1  0  0.75241  0  3.851141  0  0  0.702274  0  4.150562  0  0  0.739347  0  4.134898  0  0  0.241271  0.676018  0  4.155535  0
C  C47  1  0.39584869  0.92018345  0.71640072  1  0  0.752571  0  3.850569  0  0  0.702421  0  4.150001  0  0  0.739464  0  4.13439  0  0  0.241316  0.676147  0  4.155004  0
C  C48  1  0.60194597  0.14626842  0.15114843  1  0  -0.048002  0  3.687981  0  0  -0.036286  0  3.927749  0  0  -0.040178  0  3.946535  0  0  0.007911  -0.034854  0  3.918104  0
C  C49  1  0.39806595  0.85373504  0.84884947  1  0  -0.047964  0  3.687835  0  0  -0.036223  0  3.927658  0  0  -0.040134  0  3.946435  0  0  0.007947  -0.034777  0  3.918036  0
C  C50  1  0.63205858  0.28351919  0.11248871  1  0  -0.034931  0  3.631954  0  0  -0.063885  0  3.890212  0  0  -0.06306  0  3.905021  0  0  -0.057853  -0.065194  0  3.882635  0
C  C51  1  0.36794890  0.71648514  0.88751119  1  0  -0.034973  0  3.631918  0  0  -0.063956  0  3.890147  0  0  -0.063129  0  3.904958  0  0  -0.057863  -0.065254  0  3.882558  0
C  C52  1  0.55501421  0.07554471  0.07357064  1  0  -0.058929  0  3.717105  0  0  -0.062318  0  3.963323  0  0  -0.067909  0  3.987057  0  0  -0.008761  -0.060013  0  3.948834  0
C  C53  1  0.44498894  0.92445059  0.92643660  1  0  -0.058793  0  3.716771  0  0  -0.062332  0  3.963008  0  0  -0.067839  0  3.986642  0  0  -0.008769  -0.06007  0  3.948591  0
C  C54  1  0.53585730  0.92952171  0.11170460  1  0  0.399538  0  3.725173  0  0  0.376072  0  3.995671  0  0  0.399371  0  3.996926  0  0  0.161028  0.360102  0  3.995124  0
C  C55  1  0.46414292  0.07047762  0.88829372  1  0  0.399323  0  3.725315  0  0  0.376052  0  3.995678  0  0  0.399328  0  3.996916  0  0  0.161001  0.360076  0  3.99515  0
C  C56  1  0.46667888  0.85551733  0.04162223  1  0  -0.047969  0  3.716754  0  0  -0.052351  0  3.963812  0  0  -0.05601  0  3.985945  0  0  -0.005027  -0.049462  0  3.948415  0
C  C57  1  0.53332728  0.14447412  0.95838394  1  0  -0.047753  0  3.716774  0  0  -0.052294  0  3.963898  0  0  -0.055929  0  3.986054  0  0  -0.005069  -0.049419  0  3.948485  0
C  C58  1  0.43199235  0.71717072  0.08200302  1  0  -0.058189  0  3.681166  0  0  -0.046213  0  3.920389  0  0  -0.050901  0  3.940535  0  0  0.006787  -0.042168  0  3.905956  0
C  C59  1  0.56799947  0.28282432  0.91800745  1  0  -0.058104  0  3.680966  0  0  -0.046097  0  3.920217  0  0  -0.050777  0  3.940368  0  0  0.006933  -0.042046  0  3.905784  0
C  C60  1  0.38411329  0.64908927  0.00366211  1  0  -0.02677  0  3.636324  0  0  -0.052384  0  3.888979  0  0  -0.052306  0  3.906182  0  0  -0.054414  -0.052226  0  3.876629  0
C  C61  1  0.61588668  0.35090797  0.99634296  1  0  -0.02679  0  3.636173  0  0  -0.052404  0  3.888874  0  0  -0.05233  0  3.906078  0  0  -0.05443  -0.052255  0  3.876527  0
C  C62  1  0.43033168  0.63337347  0.21075599  1  0  0.665802  0  3.796664  0  0  0.612989  0  4.107181  0  0  0.645731  0  4.095924  0  0  0.234826  0.590193  0  4.115005  0
C  C63  1  0.56965415  0.36661765  0.78924875  1  0  0.66573  0  3.795937  0  0  0.61297  0  4.106403  0  0  0.645701  0  4.095164  0  0  0.234881  0.590159  0  4.114245  0
O  O64  1  0.97620658  0.93814878  0.40064484  1  0  -0.78795  0  2.146223  0  0  -0.754341  0  2.418709  0  0  -0.779374  0  2.406285  0  0  -0.403625  -0.719139  0  2.426159  0
O  O65  1  0.02378177  0.06185539  0.59934514  1  0  -0.78803  0  2.146186  0  0  -0.754348  0  2.418675  0  0  -0.779393  0  2.406254  0  0  -0.403561  -0.719161  0  2.426122  0
O  O66  1  0.20862301  0.87945372  0.32637240  1  0  -0.722049  0  2.079027  0  0  -0.678698  0  2.330331  0  0  -0.704714  0  2.319975  0  0  -0.360545  -0.649885  0  2.33871  0
O  O67  1  0.79137592  0.12055536  0.67362726  1  0  -0.722103  0  2.079133  0  0  -0.678721  0  2.330494  0  0  -0.704754  0  2.32016  0  0  -0.360629  -0.649903  0  2.33888  0
O  O68  1  0.05389662  0.66303179  0.83702729  1  0  -0.645447  0  1.971125  0  0  -0.587217  0  2.19197  0  0  -0.617368  0  2.18332  0  0  -0.320275  -0.563288  0  2.196993  0
O  O69  1  0.94609767  0.33695363  0.16297608  1  0  -0.645341  0  1.971036  0  0  -0.587204  0  2.19186  0  0  -0.617342  0  2.183186  0  0  -0.320279  -0.563271  0  2.196887  0
O  O70  1  0.79763759  0.61897154  0.93975640  1  0  -0.598401  0  1.907101  0  0  -0.560232  0  2.130836  0  0  -0.58865  0  2.125078  0  0  -0.324261  -0.539587  0  2.133675  0
O  O71  1  0.20235687  0.38101655  0.06026178  1  0  -0.598353  0  1.907152  0  0  -0.560225  0  2.130773  0  0  -0.588651  0  2.125014  0  0  -0.324193  -0.539572  0  2.133622  0
O  O72  1  0.13183633  0.09611390  0.14754568  1  0  -0.472199  0  2.05503  0  0  -0.410511  0  2.266956  0  0  -0.429324  0  2.262616  0  0  -0.230736  -0.398189  0  2.270444  0
O  O73  1  0.86816946  0.90388457  0.85245122  1  0  -0.47203  0  2.054772  0  0  -0.410504  0  2.26682  0  0  -0.429273  0  2.262535  0  0  -0.230731  -0.398166  0  2.27029  0
O  O74  1  0.73041190  0.06875503  0.30010027  1  0  -0.706695  0  2.035211  0  0  -0.672359  0  2.292914  0  0  -0.698361  0  2.281617  0  0  -0.3916  -0.6424  0  2.303195  0
O  O75  1  0.26958856  0.93124714  0.69990379  1  0  -0.706768  0  2.03509  0  0  -0.672438  0  2.29282  0  0  -0.698421  0  2.281515  0  0  -0.391578  -0.642473  0  2.30309  0
O  O76  1  0.47530020  0.04785830  0.37533625  1  0  -0.791808  0  2.13431  0  0  -0.757066  0  2.407085  0  0  -0.783742  0  2.394229  0  0  -0.420891  -0.723026  0  2.416015  0
O  O77  1  0.52471077  0.95215797  0.62465693  1  0  -0.791852  0  2.134029  0  0  -0.757112  0  2.406831  0  0  -0.783786  0  2.394003  0  0  -0.420945  -0.72306  0  2.415783  0
O  O78  1  0.58588092  0.87016132  0.19570171  1  0  -0.46265  0  1.970444  0  0  -0.411959  0  2.181342  0  0  -0.430077  0  2.177628  0  0  -0.238656  -0.400178  0  2.184378  0
O  O79  1  0.41412006  0.12983415  0.80429438  1  0  -0.462537  0  1.970571  0  0  -0.41198  0  2.181479  0  0  -0.430092  0  2.177765  0  0  -0.238609  -0.400186  0  2.184528  0
O  O80  1  0.32981869  0.66097411  0.32038655  1  0  -0.58553  0  2.105419  0  0  -0.534536  0  2.319198  0  0  -0.555344  0  2.30135  0  0  -0.346177  -0.520046  0  2.332473  0
O  O81  1  0.67018341  0.33903301  0.67961617  1  0  -0.585371  0  2.105326  0  0  -0.534413  0  2.319059  0  0  -0.555207  0  2.301215  0  0  -0.346189  -0.519925  0  2.332336  0
O  O82  1  0.49854658  0.53690799  0.21921353  1  0  -0.496615  0  1.884069  0  0  -0.467004  0  2.088813  0  0  -0.485794  0  2.080113  0  0  -0.277356  -0.454453  0  2.095039  0
O  O83  1  0.50140648  0.46309423  0.78079484  1  0  -0.496807  0  1.883383  0  0  -0.46723  0  2.088129  0  0  -0.48603  0  2.079437  0  0  -0.277555  -0.454668  0  2.094358  0
O  O84  1  0.68103049  0.81082289  0.42542855  1  0  -0.847277  0  1.872979  0  0  -0.80307  0  2.046611  0  0  -0.819863  0  2.023469  0  0  -0.555259  -0.783583  0  2.066054  0
O  O85  1  0.31896640  0.18916560  0.57456993  1  0  -0.847294  0  1.873029  0  0  -0.803095  0  2.046674  0  0  -0.819891  0  2.023544  0  0  -0.555338  -0.783614  0  2.066115  0
O  O86  1  0.77263157  0.83653319  0.66982270  1  0  -0.894855  0  1.878689  0  0  -0.854666  0  2.064109  0  0  -0.872086  0  2.037404  0  0  -0.588828  -0.832447  0  2.087295  0
O  O87  1  0.22736110  0.16346986  0.33017888  1  0  -0.894975  0  1.878456  0  0  -0.854727  0  2.06402  0  0  -0.872153  0  2.037312  0  0  -0.58879  -0.832519  0  2.08722  0
O  O88  1  0.93033885  0.21960948  0.39412088  1  0  -0.938589  0  1.86221  0  0  -0.896947  0  2.046447  0  0  -0.917972  0  2.014578  0  0  -0.668123  -0.870992  0  2.076107  0
O  O89  1  0.06965998  0.78039862  0.60587898  1  0  -0.93871  0  1.86214  0  0  -0.897063  0  2.046357  0  0  -0.91808  0  2.014495  0  0  -0.668163  -0.871121  0  2.076027  0
O  O90  1  0.62962005  0.21878917  0.48985538  1  0  -0.893472  0  1.874639  0  0  -0.852209  0  2.044856  0  0  -0.87113  0  2.015085  0  0  -0.641121  -0.828762  0  2.072917  0
O  O91  1  0.37038478  0.78122209  0.51013771  1  0  -0.89359  0  1.874463  0  0  -0.852341  0  2.044656  0  0  -0.871265  0  2.014873  0  0  -0.641214  -0.828899  0  2.072685  0
