# generated using pymatgen
data_Zr3H19C44N5(ClO13)2
_symmetry_space_group_name_H-M   'P 1'
_cell_length_a   19.07087756
_cell_length_b   19.03815677
_cell_length_c   19.05984901
_cell_angle_alpha   59.64552063
_cell_angle_beta   59.90125697
_cell_angle_gamma   60.02069653
_symmetry_Int_Tables_number   1
_chemical_formula_structural   Zr3H19C44N5(ClO13)2
_chemical_formula_sum   'Zr6 H38 C88 N10 Cl4 O52'
_cell_volume   4877.16046372
_cell_formula_units_Z   2
loop_
 _symmetry_equiv_pos_site_id
 _symmetry_equiv_pos_as_xyz
  1  'x, y, z'
loop_
 _atom_site_type_symbol
 _atom_site_label
 _atom_site_symmetry_multiplicity
 _atom_site_fract_x
 _atom_site_fract_y
 _atom_site_fract_z
 _atom_site_occupancy
 _atom_site_pbe_bader_charge
 _atom_site_pbe_bader_spin_density
 _atom_site_pbe_cm5_charge
 _atom_site_pbe_ddec_charge
 _atom_site_pbe_ddec_spin_density
 _atom_site_pbe_ddec_sum_bond_order
 _atom_site_pbe_magmom
Zr  Zr0  1  0.90310120  0.41059781  0.59181100  1  2.636745  0  1.633362  2.376935  0  2.746331  0
Zr  Zr1  1  0.09448843  0.59145808  0.41091204  1  2.636981  0  1.633318  2.376963  0  2.746807  0
Zr  Zr2  1  0.08855626  0.40452867  0.59742594  1  2.63521  0  1.630321  2.374633  0  2.751624  0
Zr  Zr3  1  0.90946635  0.59709164  0.40486022  1  2.636013  0  1.630475  2.374773  0  2.751168  0
Zr  Zr4  1  0.90631185  0.59355553  0.59385187  1  2.640511  0  1.634812  2.377461  0  2.758155  0
Zr  Zr5  1  0.09155198  0.40826217  0.40865234  1  2.634187  0  1.63483  2.376813  0  2.753849  0
H  H6  1  0.92063220  0.42644140  0.72135184  1  0.620594  0  0.33439  0.429526  0  0.849944  0
H  H7  1  0.93162018  0.72099387  0.42670584  1  0.601067  0  0.334702  0.429709  0  0.848567  0
H  H8  1  0.21808765  0.42336793  0.43303281  1  0.621273  0  0.334288  0.429262  0  0.849369  0
H  H9  1  0.92548770  0.43268310  0.42374631  1  0.616159  0  0.334328  0.429466  0  0.848864  0
H  H10  1  0.46832179  0.59578912  0.05914175  1  0.08354  0  0.119165  0.130277  0  0.983578  0
H  H11  1  0.54351958  0.39162795  0.95642927  1  0.086299  0  0.119215  0.131594  0  0.982415  0
H  H12  1  0.65041570  0.64086617  0.78855173  1  0.144501  0  0.117634  0.128416  0  0.987654  0
H  H13  1  0.51431821  0.64937623  0.91267385  1  0.088558  0  0.112435  0.115872  0  0.984848  0
H  H14  1  0.28261693  0.43119279  0.15159476  1  0.116466  0  0.115674  0.128362  0  0.998849  0
H  H15  1  0.40069347  0.44248200  0.01082396  1  0.086525  0  0.111387  0.113778  0  0.987017  0
H  H16  1  0.10844601  0.95615810  0.39186437  1  0.08093  0  0.119128  0.131283  0  0.982623  0
H  H17  1  0.87670149  0.05883138  0.59622286  1  0.118424  0  0.119233  0.130318  0  0.983731  0
H  H18  1  0.13447372  0.15141089  0.43137455  1  0.167061  0  0.115592  0.128035  0  0.999186  0
H  H19  1  0.14586616  0.01071522  0.44255956  1  0.074584  0  0.111296  0.113813  0  0.987309  0
H  H20  1  0.92007303  0.78836697  0.64100522  1  0.141715  0  0.117575  0.128197  0  0.98774  0
H  H21  1  0.92345965  0.91248425  0.64955674  1  0.125025  0  0.112778  0.116612  0  0.984032  0
H  H22  1  0.45670953  0.05030092  0.38746723  1  0.068779  0  0.118707  0.130167  0  0.983377  0
H  H23  1  0.55396829  0.96573264  0.59975847  1  0.100012  0  0.119636  0.131436  0  0.981227  0
H  H24  1  0.65082872  0.78748465  0.42697599  1  0.131794  0  0.115247  0.127335  0  0.993574  0
H  H25  1  0.51106793  0.90636027  0.43631782  1  0.053162  0  0.111863  0.114747  0  0.987456  0
H  H26  1  0.28580006  0.14876067  0.64044864  1  0.107719  0  0.116153  0.122788  0  0.987927  0
H  H27  1  0.40947987  0.01245043  0.64897368  1  0.052213  0  0.111273  0.114255  0  0.990041  0
H  H28  1  0.88058145  0.59940406  0.96608113  1  0.120206  0  0.11968  0.131425  0  0.981239  0
H  H29  1  0.10545635  0.38705535  0.05067150  1  0.105592  0  0.118517  0.129839  0  0.983688  0
H  H30  1  0.92523586  0.64012305  0.14900523  1  0.12348  0  0.116183  0.12293  0  0.987991  0
H  H31  1  0.92933608  0.64864814  0.01268915  1  0.054572  0  0.110889  0.114043  0  0.990187  0
H  H32  1  0.13476327  0.42675088  0.78770273  1  0.127081  0  0.115365  0.127419  0  0.993891  0
H  H33  1  0.14632640  0.43606200  0.90658695  1  0.09612  0  0.111599  0.114437  0  0.987586  0
H  H34  1  0.12794828  0.81462931  0.16589419  1  0.120057  0  0.10542  0.122037  0  1.030974  0
H  H35  1  0.90392340  0.80670607  0.17214326  1  0.114927  0  0.101357  0.113657  0  1.03748  0
H  H36  1  0.89133959  0.16568385  0.81515261  1  0.127771  0  0.105528  0.12173  0  1.031407  0
H  H37  1  0.11730469  0.17167914  0.80696586  1  0.125943  0  0.101504  0.113539  0  1.038065  0
H  H38  1  0.46375415  0.38147035  0.60576497  1  0.105486  0  0.11859  0.130257  0  0.982818  0
H  H39  1  0.54902109  0.60566190  0.38161818  1  0.068235  0  0.118686  0.130429  0  0.983084  0
H  H40  1  0.65303722  0.43049688  0.63228036  1  0.182691  0  0.11574  0.127791  0  1.002647  0
H  H41  1  0.51671878  0.43176970  0.64519391  1  0.090772  0  0.111399  0.114739  0  0.986671  0
H  H42  1  0.28408683  0.63208220  0.43074930  1  0.159123  0  0.115749  0.128028  0  1.002371  0
H  H43  1  0.40622064  0.64505725  0.43195383  1  0.048283  0  0.111648  0.115066  0  0.986471  0
C  C44  1  0.75536015  0.50929451  0.72804000  1  1.575182  0  0.238231  0.645594  0  4.112574  0
C  C45  1  0.00735508  0.72773215  0.50953503  1  1.574168  0  0.238268  0.645273  0  4.111463  0
C  C46  1  0.23386063  0.50218701  0.26599938  1  1.579173  0  0.239313  0.64649  0  4.109603  0
C  C47  1  0.99789602  0.26570187  0.50257161  1  1.58172  0  0.239938  0.647871  0  4.107789  0
C  C48  1  0.99742929  0.25953956  0.73233403  1  1.55829  0  0.240483  0.647831  0  4.079842  0
C  C49  1  0.75940290  0.51351907  0.49772757  1  1.58598  0  0.238711  0.646555  0  4.108456  0
C  C50  1  0.01074453  0.73192592  0.25982426  1  1.551147  0  0.241056  0.648571  0  4.080202  0
C  C51  1  0.22934258  0.49745411  0.51377904  1  1.592838  0  0.239337  0.648197  0  4.105703  0
C  C52  1  0.99896673  0.50167863  0.73603066  1  1.573472  0  0.237742  0.645923  0  4.114473  0
C  C53  1  0.22594801  0.25719525  0.50878035  1  1.584632  0  0.238724  0.646878  0  4.109909  0
C  C54  1  0.00816044  0.50835858  0.25754359  1  1.598009  0  0.237873  0.645409  0  4.112532  0
C  C55  1  0.76332864  0.73571802  0.50200170  1  1.565399  0  0.23774  0.646334  0  4.115067  0
C  C56  1  0.30807869  0.50690872  0.18409591  1  0.057413  0  -0.005134  -0.081808  0  3.929987  0
C  C57  1  0.67276813  0.51342353  0.80129066  1  0.01639  0  -0.007924  -0.087805  0  3.934769  0
C  C58  1  0.36109802  0.55351879  0.15563777  1  0.167219  0  0.089843  0.076786  0  3.931123  0
C  C59  1  0.42741816  0.56087168  0.07719822  1  0.061792  0  -0.076531  -0.181336  0  3.935079  0
C  C60  1  0.63954130  0.44526656  0.84882017  1  0.151137  0  0.088504  0.075369  0  3.940637  0
C  C61  1  0.56450618  0.44788972  0.91925094  1  -0.032931  0  -0.079296  -0.189395  0  3.943943  0
C  C62  1  0.62561910  0.58706378  0.82570668  1  0.017362  0  -0.064727  -0.051959  0  3.936315  0
C  C63  1  0.54996493  0.59100934  0.89575447  1  0.007939  0  -0.078518  -0.126097  0  3.947896  0
C  C64  1  0.32398248  0.46703656  0.13028220  1  0.004531  0  -0.064244  -0.052106  0  3.931258  0
C  C65  1  0.39053821  0.47328486  0.05176885  1  -0.030265  0  -0.078884  -0.124325  0  3.947842  0
C  C66  1  0.44387372  0.51950906  0.02434259  1  -0.037042  0  0.005983  0.090195  0  3.99327  0
C  C67  1  0.51911519  0.52075555  0.94475064  1  0.014746  0  0.006436  0.093943  0  3.993576  0
C  C68  1  0.01253111  0.80102960  0.51361540  1  0.053713  0  -0.007755  -0.088009  0  3.934426  0
C  C69  1  0.00082982  0.18383680  0.50727450  1  0.044725  0  -0.005384  -0.082702  0  3.931054  0
C  C70  1  0.06641496  0.84854322  0.44548204  1  0.173491  0  0.088001  0.07487  0  3.940972  0
C  C71  1  0.06833947  0.91900170  0.44810890  1  0.04791  0  -0.079316  -0.188731  0  3.943415  0
C  C72  1  0.92969197  0.15532152  0.55395282  1  0.174496  0  0.09025  0.076384  0  3.932339  0
C  C73  1  0.93445062  0.07692398  0.56121590  1  0.022818  0  -0.076879  -0.181152  0  3.934338  0
C  C74  1  0.07857801  0.13008494  0.46726757  1  -0.022196  0  -0.064272  -0.050912  0  3.930518  0
C  C75  1  0.08428587  0.05160148  0.47345207  1  -0.025558  0  -0.078783  -0.124962  0  3.948789  0
C  C76  1  0.96153717  0.82550973  0.58722176  1  -0.018019  0  -0.064828  -0.051683  0  3.936786  0
C  C77  1  0.96315623  0.89556413  0.59118604  1  -0.086589  0  -0.079086  -0.127378  0  3.947117  0
C  C78  1  0.01529373  0.94454794  0.52095111  1  -0.019421  0  0.006815  0.094233  0  3.992968  0
C  C79  1  0.01217804  0.02412788  0.51972197  1  -0.020015  0  0.006024  0.090358  0  3.992806  0
C  C80  1  0.29992207  0.17512432  0.51155347  1  0.084975  0  -0.006862  -0.087343  0  3.931869  0
C  C81  1  0.68072434  0.80885760  0.50767578  1  0.072049  0  -0.007493  -0.086419  0  3.939511  0
C  C82  1  0.34839034  0.14435341  0.44211034  1  0.135193  0  0.08951  0.076019  0  3.937311  0
C  C83  1  0.41886620  0.06939462  0.44455297  1  0.131213  0  -0.078588  -0.186342  0  3.940682  0
C  C84  1  0.65052547  0.85920395  0.55731795  1  0.160503  0  0.089165  0.074246  0  3.939836  0
C  C85  1  0.57303092  0.92645342  0.56293050  1  0.038815  0  -0.077296  -0.182202  0  3.935298  0
C  C86  1  0.62866702  0.82742052  0.46439822  1  -0.044313  0  -0.067  -0.057013  0  3.939536  0
C  C87  1  0.55071082  0.89433725  0.46960592  1  0.027718  0  -0.079416  -0.126792  0  3.95416  0
C  C88  1  0.32364352  0.12563584  0.58590730  1  -0.044636  0  -0.065962  -0.050391  0  3.943485  0
C  C89  1  0.39351259  0.04998814  0.58979943  1  0.006995  0  -0.079716  -0.129324  0  3.952769  0
C  C90  1  0.44327295  0.02149379  0.51847244  1  -0.045779  0  0.006177  0.09373  0  3.991635  0
C  C91  1  0.52222349  0.94582710  0.51786335  1  -0.040416  0  0.005374  0.090686  0  3.991393  0
C  C92  1  0.00276754  0.50735199  0.80916678  1  0.028489  0  -0.007245  -0.085647  0  3.938323  0
C  C93  1  0.01350522  0.51117544  0.17544525  1  -0.022257  0  -0.006651  -0.087099  0  3.931812  0
C  C94  1  0.93298710  0.55695722  0.85955709  1  0.148605  0  0.088864  0.073549  0  3.939492  0
C  C95  1  0.93763414  0.56260628  0.92678044  1  0.013936  0  -0.077151  -0.182025  0  3.935379  0
C  C96  1  0.06513927  0.44169407  0.14473005  1  0.217347  0  0.088805  0.075424  0  3.937863  0
C  C97  1  0.06720088  0.44415499  0.06974658  1  0.000737  0  -0.078521  -0.186304  0  3.941658  0
C  C98  1  0.96500484  0.58557378  0.12590482  1  0.004595  0  -0.065517  -0.049667  0  3.943665  0
C  C99  1  0.96689546  0.58945859  0.05026206  1  0.006673  0  -0.079447  -0.129758  0  3.953587  0
C  C100  1  0.07957344  0.46414417  0.82765847  1  -0.001917  0  -0.06729  -0.057479  0  3.939545  0
C  C101  1  0.08540762  0.46932666  0.89459435  1  -0.018167  0  -0.079183  -0.126508  0  3.954547  0
C  C102  1  0.01415663  0.51754628  0.94612211  1  -0.006719  0  0.005522  0.090882  0  3.991987  0
C  C103  1  0.01686094  0.51811731  0.02179724  1  -0.013343  0  0.006047  0.094149  0  3.992072  0
C  C104  1  0.08001780  0.84099599  0.13606671  1  0.064072  0  -0.076409  -0.118982  0  3.901527  0
C  C105  1  0.08171173  0.91182539  0.05919331  1  0.06037  0  -0.006824  0.035656  0  4.004308  0
C  C106  1  0.14729636  0.95126617  0.01579556  1  0.067138  0  0.009271  0.032964  0  4.04297  0
C  C107  1  0.95292906  0.83683391  0.13953711  1  -0.004411  0  -0.083545  -0.130833  0  3.931544  0
C  C108  1  0.95226039  0.90757328  0.06307498  1  -0.011408  0  -0.009762  0.032989  0  4.026663  0
C  C109  1  0.88819906  0.94277407  0.02409586  1  0.131871  0  0.006206  0.031343  0  4.036525  0
C  C110  1  0.94279763  0.13579883  0.84144465  1  0.056745  0  -0.076447  -0.11832  0  3.900424  0
C  C111  1  0.94715933  0.05890075  0.91226349  1  0.003202  0  -0.006576  0.035373  0  4.004073  0
C  C112  1  0.88545069  0.01557751  0.95179053  1  0.100095  0  0.009362  0.033466  0  4.043492  0
C  C113  1  0.07071263  0.13913283  0.83714393  1  -0.047886  0  -0.083019  -0.130033  0  3.932704  0
C  C114  1  0.07711042  0.06264784  0.90787830  1  -0.001598  0  -0.010276  0.032777  0  4.02693  0
C  C115  1  0.14502772  0.02358863  0.94299682  1  0.130402  0  0.006144  0.031218  0  4.036384  0
C  C116  1  0.01536172  0.80486415  0.17610042  1  -0.059777  0  -0.015945  -0.028288  0  3.98759  0
C  C117  1  0.01633579  0.94729463  0.02252886  1  0.004873  0  0.005244  0.014577  0  3.927567  0
C  C118  1  0.00360235  0.17578942  0.80526137  1  -0.024147  0  -0.016032  -0.028472  0  3.986948  0
C  C119  1  0.01379406  0.02216832  0.94765995  1  -0.005272  0  0.004679  0.014178  0  3.928177  0
C  C120  1  0.30298826  0.50168186  0.51819901  1  0.032625  0  -0.006591  -0.085134  0  3.928125  0
C  C121  1  0.67712179  0.51797718  0.50189764  1  0.118056  0  -0.007025  -0.085922  0  3.9291  0
C  C122  1  0.35377515  0.43314219  0.56848937  1  0.147257  0  0.087357  0.07217  0  3.9394  0
C  C123  1  0.42402982  0.43795455  0.56854893  1  -0.011919  0  -0.079024  -0.186428  0  3.936671  0
C  C124  1  0.64460493  0.56831578  0.43334264  1  0.108994  0  0.087539  0.073088  0  3.938921  0
C  C125  1  0.56946633  0.56842965  0.43811315  1  0.042256  0  -0.079395  -0.187299  0  3.93685  0
C  C126  1  0.62902558  0.46902169  0.57808842  1  -0.058062  0  -0.064276  -0.048984  0  3.932931  0
C  C127  1  0.55308768  0.46937981  0.58445653  1  0.012118  0  -0.078343  -0.12499  0  3.947186  0
C  C128  1  0.32380558  0.57789365  0.46923842  1  0.00478  0  -0.064775  -0.050033  0  3.932987  0
C  C129  1  0.39301213  0.58431069  0.46955050  1  0.023122  0  -0.078641  -0.125216  0  3.947595  0
C  C130  1  0.44539664  0.51396186  0.51787912  1  -0.002998  0  0.006591  0.092906  0  3.986531  0
C  C131  1  0.52273493  0.51775512  0.51409113  1  -0.063405  0  0.006807  0.093444  0  3.986408  0
N  N132  1  0.35374936  0.59265394  0.21030531  1  0.390046  0  0.060436  0.523089  0  4.23039  0
N  N133  1  0.68456166  0.36357494  0.83026986  1  0.45105  0  0.062413  0.524299  0  4.233961  0
N  N134  1  0.12174743  0.82990504  0.36383783  1  0.420859  0  0.063257  0.525535  0  4.23307  0
N  N135  1  0.84327990  0.20984131  0.59337227  1  0.410886  0  0.060701  0.522513  0  4.227423  0
N  N136  1  0.33069214  0.19149334  0.35953894  1  0.417114  0  0.062374  0.523648  0  4.233785  0
N  N137  1  0.70159844  0.84734395  0.60313758  1  0.403268  0  0.061601  0.524014  0  4.234301  0
N  N138  1  0.84791542  0.60268749  0.84777616  1  0.39442  0  0.061047  0.522251  0  4.236593  0
N  N139  1  0.11811561  0.35903167  0.19196633  1  0.434423  0  0.062432  0.523495  0  4.232133  0
N  N140  1  0.33775038  0.34951839  0.62232465  1  0.430892  0  0.062734  0.527095  0  4.227156  0
N  N141  1  0.69043179  0.62217434  0.34974786  1  0.443506  0  0.061735  0.526011  0  4.228397  0
Cl  Cl142  1  0.22374007  0.06991291  0.89179865  1  -0.190518  0  -0.000246  -0.06022  0  1.543296  0
Cl  Cl143  1  0.22830924  0.90580500  0.05706565  1  -0.169576  0  0.012503  -0.038333  0  1.569743  0
Cl  Cl144  1  0.80850797  0.05697959  0.90645512  1  -0.167045  0  0.012503  -0.038511  0  1.570314  0
Cl  Cl145  1  0.81424759  0.89167738  0.07053332  1  -0.192769  0  -0.000442  -0.060407  0  1.542947  0
O  O146  1  0.78730165  0.44811028  0.69925945  1  -1.174617  0  -0.352272  -0.616118  0  2.325491  0
O  O147  1  0.06535705  0.69894768  0.44835786  1  -1.172702  0  -0.352057  -0.615585  0  2.325189  0
O  O148  1  0.20549688  0.55955966  0.29856779  1  -1.164355  0  -0.352566  -0.613878  0  2.316549  0
O  O149  1  0.93628908  0.29830014  0.55993200  1  -1.179223  0  -0.352858  -0.614431  0  2.315918  0
O  O150  1  0.05465833  0.29256886  0.70499378  1  -1.184025  0  -0.364161  -0.622181  0  2.304793  0
O  O151  1  0.79312098  0.57070357  0.43583032  1  -1.174848  0  -0.350854  -0.615845  0  2.298787  0
O  O152  1  0.94782118  0.70458372  0.29285882  1  -1.185128  0  -0.364682  -0.622729  0  2.304058  0
O  O153  1  0.20033572  0.43556694  0.57100461  1  -1.17944  0  -0.351282  -0.61663  0  2.297811  0
O  O154  1  0.93830121  0.56009715  0.70650121  1  -1.17203  0  -0.352233  -0.613537  0  2.324242  0
O  O155  1  0.19790634  0.29111391  0.44649168  1  -1.170622  0  -0.352449  -0.614561  0  2.321295  0
O  O156  1  0.06456860  0.44607424  0.29145676  1  -1.17581  0  -0.352552  -0.614171  0  2.322209  0
O  O157  1  0.79512792  0.70619441  0.56039755  1  -1.167264  0  -0.352009  -0.613166  0  2.324641  0
O  O158  1  0.19705528  0.28716727  0.56810145  1  -1.168821  0  -0.344225  -0.602056  0  2.274431  0
O  O159  1  0.94772056  0.56765540  0.28751983  1  -1.17447  0  -0.343632  -0.601539  0  2.275727  0
O  O160  1  0.79488337  0.70838399  0.44008089  1  -1.171425  0  -0.346089  -0.604126  0  2.267737  0
O  O161  1  0.05666457  0.43976952  0.70869430  1  -1.177748  0  -0.345909  -0.603361  0  2.267214  0
O  O162  1  0.93645741  0.29298096  0.70289607  1  -1.1753  0  -0.346202  -0.601126  0  2.265313  0
O  O163  1  0.20136037  0.55668713  0.45225940  1  -1.175275  0  -0.347349  -0.601618  0  2.302804  0
O  O164  1  0.06771183  0.70248037  0.29325973  1  -1.174743  0  -0.346472  -0.601439  0  2.266154  0
O  O165  1  0.78961893  0.45202086  0.55700665  1  -1.178787  0  -0.34714  -0.600668  0  2.303  0
O  O166  1  0.05776743  0.29581704  0.44266852  1  -1.176319  0  -0.346506  -0.600789  0  2.287843  0
O  O167  1  0.78797720  0.56657287  0.70031581  1  -1.162773  0  -0.346268  -0.59974  0  2.286602  0
O  O168  1  0.94517600  0.70001282  0.56684322  1  -1.169018  0  -0.346299  -0.599658  0  2.286063  0
O  O169  1  0.20380830  0.44224570  0.29614694  1  -1.172911  0  -0.346144  -0.600178  0  2.286918  0
O  O170  1  0.94649224  0.45243417  0.44527992  1  -1.237998  0  -0.69254  -1.070982  0  2.348448  0
O  O171  1  0.15579890  0.44491329  0.45278862  1  -1.24705  0  -0.69244  -1.070814  0  2.348621  0
O  O172  1  0.95028405  0.65846500  0.44855698  1  -1.226693  0  -0.693578  -1.072658  0  2.350753  0
O  O173  1  0.94266106  0.44827045  0.65881823  1  -1.245818  0  -0.693402  -1.072626  0  2.351502  0
O  O174  1  0.03734671  0.53665380  0.54243742  1  -1.202632  0  -0.79162  -1.153521  0  2.131498  0
O  O175  1  0.88354953  0.54213026  0.53698478  1  -1.200332  0  -0.791622  -1.153163  0  2.131027  0
O  O176  1  0.04001521  0.53978789  0.38548983  1  -1.198662  0  -0.791939  -1.152157  0  2.132045  0
O  O177  1  0.03466977  0.38513897  0.54017739  1  -1.200109  0  -0.792097  -1.152466  0  2.132464  0
O  O178  1  0.37505320  0.54235502  0.27521481  1  -0.436016  0  -0.129207  -0.322263  0  1.88186  0
O  O179  1  0.33160240  0.67211602  0.18422022  1  -0.420382  0  -0.126158  -0.320419  0  1.879079  0
O  O180  1  0.74272730  0.30948622  0.86055908  1  -0.448269  0  -0.118233  -0.311333  0  1.89968  0
O  O181  1  0.65665257  0.35414959  0.79045951  1  -0.441991  0  -0.123942  -0.321488  0  1.883551  0
O  O182  1  0.08749456  0.86013875  0.30966965  1  -0.431368  0  -0.118363  -0.311704  0  1.898822  0
O  O183  1  0.19886649  0.79006424  0.35453988  1  -0.44056  0  -0.124321  -0.322014  0  1.884003  0
O  O184  1  0.80707680  0.27471369  0.54328643  1  -0.42726  0  -0.129514  -0.322207  0  1.881285  0
O  O185  1  0.81238647  0.18368161  0.67286083  1  -0.440843  0  -0.125925  -0.319601  0  1.877001  0
O  O186  1  0.36123977  0.25010139  0.30672661  1  -0.426779  0  -0.120874  -0.310578  0  1.877769  0
O  O187  1  0.29141089  0.16452080  0.34825181  1  -0.440709  0  -0.123841  -0.32188  0  1.883504  0
O  O188  1  0.76333634  0.87415457  0.55860026  1  -0.431241  0  -0.126359  -0.318892  0  1.879365  0
O  O189  1  0.67531894  0.81610912  0.68266931  1  -0.427614  0  -0.124384  -0.318805  0  1.86842  0
O  O190  1  0.80400676  0.55807720  0.87451230  1  -0.435819  0  -0.126375  -0.318456  0  1.880344  0
O  O191  1  0.82577539  0.68222308  0.81667352  1  -0.412786  0  -0.123866  -0.317432  0  1.869468  0
O  O192  1  0.08159147  0.30638416  0.25062867  1  -0.434791  0  -0.120819  -0.310681  0  1.877135  0
O  O193  1  0.19570831  0.34751454  0.16501961  1  -0.440653  0  -0.123791  -0.32152  0  1.882547  0
O  O194  1  0.36705862  0.29752687  0.58596614  1  -0.433273  0  -0.124102  -0.316111  0  1.875434  0
O  O195  1  0.29996583  0.33677386  0.70054328  1  -0.453772  0  -0.132549  -0.332325  0  1.865809  0
O  O196  1  0.74942083  0.58586632  0.29769765  1  -0.44422  0  -0.12366  -0.315728  0  1.875873  0
O  O197  1  0.66281767  0.70035651  0.33710142  1  -0.448689  0  -0.132117  -0.332006  0  1.86625  0
