# generated using pymatgen
data_ZnH7C13SNO6
_symmetry_space_group_name_H-M   'P 1'
_cell_length_a   6.87071908
_cell_length_b   12.60868900
_cell_length_c   34.72913856
_cell_angle_alpha   89.87138682
_cell_angle_beta   94.42718758
_cell_angle_gamma   90.14512744
_symmetry_Int_Tables_number   1
_chemical_formula_structural   ZnH7C13SNO6
_chemical_formula_sum   'Zn4 H28 C52 S4 N4 O24'
_cell_volume   2999.61872414
_cell_formula_units_Z   4
loop_
 _symmetry_equiv_pos_site_id
 _symmetry_equiv_pos_as_xyz
  1  'x, y, z'
loop_
 _atom_site_type_symbol
 _atom_site_label
 _atom_site_symmetry_multiplicity
 _atom_site_fract_x
 _atom_site_fract_y
 _atom_site_fract_z
 _atom_site_occupancy
 _atom_site_pbe_bader_charge
 _atom_site_pbe_bader_spin_density
 _atom_site_pbe_cm5_charge
 _atom_site_pbe_ddec_charge
 _atom_site_pbe_ddec_spin_density
 _atom_site_pbe_ddec_sum_bond_order
 _atom_site_pbe_magmom
Zn  Zn0  1  0.64312929  0.98071915  0.50246959  1  1.287586  0  0.720567  0.930075  0  2.167015  0
Zn  Zn1  1  0.25729164  0.00309477  0.49603299  1  1.310842  0  0.711037  0.93482  0  2.198707  0
Zn  Zn2  1  0.26586053  0.97866210  0.99751095  1  1.28773  0  0.72086  0.931031  0  2.166121  0
Zn  Zn3  1  0.65180006  0.00234575  0.00378058  1  1.308023  0  0.710851  0.934664  0  2.198433  0
H  H4  1  0.68040057  0.96285857  0.88483320  1  0.108102  0  0.10291  0.10569  0  1.026472  0
H  H5  1  0.69192163  0.96381841  0.81380276  1  0.048476  0  0.095175  0.09537  0  1.033655  0
H  H6  1  0.07453053  0.03149956  0.80225534  1  0.063779  0  0.099319  0.105314  0  1.013346  0
H  H7  1  0.83390380  0.03244429  0.69768932  1  0.063663  0  0.099004  0.104987  0  1.013272  0
H  H8  1  0.21589677  0.96483839  0.68607582  1  0.049575  0  0.095379  0.095535  0  1.03351  0
H  H9  1  0.22772071  0.96425365  0.61505809  1  0.089708  0  0.103025  0.105701  0  1.025755  0
H  H10  1  0.22935348  0.00520473  0.74610674  1  0.050942  0  0.098248  0.093082  0  1.011987  0
H  H11  1  0.67857215  0.00581037  0.75383600  1  0.079048  0  0.098528  0.093116  0  1.012224  0
H  H12  1  0.66183959  0.03796908  0.12045511  1  0.131071  0  0.102235  0.1033  0  1.032428  0
H  H13  1  0.68347024  0.03985850  0.19188404  1  0.054531  0  0.095786  0.097879  0  1.026527  0
H  H14  1  0.06895630  0.96444975  0.18848680  1  0.035666  0  0.100481  0.107086  0  1.011741  0
H  H15  1  0.84107472  0.96387848  0.31161351  1  0.039352  0  0.100463  0.107192  0  1.011398  0
H  H16  1  0.22774597  0.04060976  0.30783334  1  0.056713  0  0.096001  0.098295  0  1.026362  0
H  H17  1  0.24852387  0.03893555  0.37925547  1  0.104299  0  0.10187  0.102667  0  1.030862  0
H  H18  1  0.23115964  0.99628196  0.24843880  1  0.050094  0  0.099634  0.095081  0  1.008571  0
H  H19  1  0.67972676  0.99568872  0.25148346  1  0.030612  0  0.099859  0.094999  0  1.00846  0
H  H20  1  0.02064194  0.03625598  0.90477678  1  0.475558  0  0.306036  0.319273  0  0.971186  0
H  H21  1  0.91057704  0.06044066  0.85849521  1  0.468963  0  0.309285  0.302097  0  0.957513  0
H  H22  1  0.88831169  0.03836544  0.59519855  1  0.475776  0  0.306234  0.319439  0  0.970562  0
H  H23  1  0.99814763  0.06215406  0.64150144  1  0.447771  0  0.309305  0.302129  0  0.957128  0
H  H24  1  0.00255885  0.95011654  0.08452503  1  0.480153  0  0.302863  0.313745  0  0.979526  0
H  H25  1  0.89932996  0.92855761  0.12828545  1  0.45149  0  0.313302  0.307729  0  0.943257  0
H  H26  1  0.90637706  0.95029561  0.41562558  1  0.475662  0  0.303024  0.313476  0  0.979589  0
H  H27  1  0.00968618  0.92819754  0.37196071  1  0.459077  0  0.313555  0.308195  0  0.942529  0
H  H28  1  0.69003816  0.22627463  0.52056504  1  0.650696  0  0.29696  0.354527  0  0.995549  0
H  H29  1  0.00244802  0.77784964  0.47644813  1  0.641288  0  0.29706  0.350084  0  0.99907  0
H  H30  1  0.21921713  0.22450078  0.97921010  1  0.648094  0  0.29689  0.35488  0  0.995029  0
H  H31  1  0.90686230  0.77742920  0.02351065  1  0.64784  0  0.297447  0.350267  0  0.99909  0
C  C32  1  0.33787059  0.79492967  0.49849632  1  1.543486  0  0.220599  0.61518  0  4.145916  0
C  C33  1  0.52261874  0.99783157  0.57325115  1  1.450222  0  0.214794  0.611075  0  4.113359  0
C  C34  1  0.36030861  0.20274518  0.49803247  1  1.494472  0  0.215842  0.608348  0  4.154026  0
C  C35  1  0.54436341  0.99399173  0.42836099  1  1.44748  0  0.214919  0.611837  0  4.110667  0
C  C36  1  0.57128573  0.79393193  0.00152370  1  1.467796  0  0.220754  0.615881  0  4.144039  0
C  C37  1  0.38610377  0.99638334  0.92667673  1  1.456262  0  0.214812  0.61073  0  4.114007  0
C  C38  1  0.54904443  0.20172061  0.00167140  1  1.477639  0  0.215392  0.607432  0  4.154846  0
C  C39  1  0.36526893  0.99277712  0.07155611  1  1.453541  0  0.215052  0.61193  0  4.108796  0
C  C40  1  0.37591600  0.99803777  0.88443044  1  -0.00352  0  -0.037586  -0.177281  0  3.938823  0
C  C41  1  0.54960320  0.98031445  0.86620627  1  -0.083686  0  -0.087802  -0.068324  0  4.038424  0
C  C42  1  0.55600032  0.98177089  0.82663275  1  -0.032707  0  -0.113759  -0.188696  0  4.017125  0
C  C43  1  0.38252144  0.00145617  0.80276808  1  0.042415  0  -0.00549  0.146091  0  4.074435  0
C  C44  1  0.20930070  0.01755764  0.82036414  1  -0.034036  0  -0.102329  -0.25876  0  3.904193  0
C  C45  1  0.19942338  0.01658226  0.86088809  1  0.478757  0  0.118455  0.326732  0  4.066658  0
C  C46  1  0.37611774  0.00309992  0.76074211  1  -0.12439  0  -0.08486  -0.118435  0  3.971338  0
C  C47  1  0.53188711  0.00345545  0.73916347  1  -0.064048  0  -0.085153  -0.119496  0  3.971453  0
C  C48  1  0.69907839  0.01865263  0.67956553  1  -0.039412  0  -0.102212  -0.258591  0  3.904649  0
C  C49  1  0.52563336  0.00234727  0.69713856  1  -0.015556  0  -0.004736  0.148099  0  4.072  0
C  C50  1  0.35204337  0.98286801  0.67325404  1  -0.054533  0  -0.114368  -0.189879  0  4.016445  0
C  C51  1  0.35859308  0.98166139  0.63368782  1  0.017792  0  -0.087897  -0.068176  0  4.036734  0
C  C52  1  0.53256958  0.99945555  0.61548889  1  0.012823  0  -0.037683  -0.177289  0  3.938652  0
C  C53  1  0.70909243  0.01797929  0.63904616  1  0.489795  0  0.119287  0.327029  0  4.067728  0
C  C54  1  0.35853051  0.99673050  0.11349950  1  -0.002283  0  -0.037893  -0.178139  0  3.939076  0
C  C55  1  0.53429862  0.01900629  0.13597842  1  -0.12299  0  -0.088384  -0.070477  0  4.038875  0
C  C56  1  0.54600142  0.01987794  0.17575407  1  -0.036406  0  -0.11258  -0.183944  0  4.014234  0
C  C57  1  0.37608040  0.99890216  0.19537746  1  0.042262  0  -0.004633  0.147732  0  4.073086  0
C  C58  1  0.20076077  0.97932363  0.17358012  1  0.047599  0  -0.101395  -0.25877  0  3.903777  0
C  C59  1  0.18564874  0.97723798  0.13276486  1  0.447626  0  0.120477  0.327847  0  4.068932  0
C  C60  1  0.37568802  0.99868029  0.23727566  1  -0.104397  0  -0.085157  -0.120992  0  3.977184  0
C  C61  1  0.53524710  0.99855587  0.26263987  1  -0.014459  0  -0.084419  -0.118826  0  3.976537  0
C  C62  1  0.70939014  0.97917190  0.32644238  1  0.046161  0  -0.100915  -0.258095  0  3.903955  0
C  C63  1  0.53457253  0.99901180  0.30453800  1  0.028271  0  -0.005244  0.145218  0  4.075294  0
C  C64  1  0.36478935  0.02046841  0.32405352  1  -0.036389  0  -0.113026  -0.183797  0  4.0138  0
C  C65  1  0.37606278  0.01980650  0.36382842  1  -0.091051  0  -0.088222  -0.070278  0  4.035131  0
C  C66  1  0.55137332  0.99746216  0.38641886  1  -0.023174  0  -0.037647  -0.178387  0  3.938598  0
C  C67  1  0.72408402  0.97740577  0.36726255  1  0.477422  0  0.119961  0.328622  0  4.068398  0
C  C68  1  0.50394607  0.39031397  0.51233533  1  0.090516  0  -0.016084  -0.091326  0  3.963864  0
C  C69  1  0.17398578  0.60875392  0.48606597  1  0.063446  0  -0.015075  -0.088208  0  3.972071  0
C  C70  1  0.35611619  0.31899581  0.49918004  1  -0.142405  0  -0.01437  -0.148408  0  3.916507  0
C  C71  1  0.32422014  0.67912749  0.49880876  1  -0.213475  0  -0.0198  -0.164513  0  3.934007  0
C  C72  1  0.24116971  0.50294103  0.49117508  1  -0.114247  0  -0.004935  -0.012441  0  4.022038  0
C  C73  1  0.43381919  0.49533460  0.50760770  1  -0.161916  0  -0.005833  -0.013145  0  4.042193  0
C  C74  1  0.40516994  0.38908011  0.98746144  1  0.043655  0  -0.016011  -0.091207  0  3.964112  0
C  C75  1  0.73525716  0.60804876  0.01376322  1  0.098479  0  -0.015674  -0.088995  0  3.971157  0
C  C76  1  0.55311414  0.31799790  0.00055414  1  -0.135534  0  -0.014302  -0.148717  0  3.919073  0
C  C77  1  0.58493108  0.67819635  0.00111600  1  -0.114568  0  -0.019722  -0.164284  0  3.933149  0
C  C78  1  0.66810092  0.50212719  0.00858195  1  -0.134617  0  -0.004979  -0.01279  0  4.021662  0
C  C79  1  0.47531259  0.49424640  0.99220961  1  -0.137887  0  -0.005604  -0.013029  0  4.041857  0
C  C80  1  0.70638916  0.37629459  0.53061091  1  1.570003  0  0.220742  0.580148  0  4.154417  0
C  C81  1  0.97392036  0.62674352  0.46757760  1  1.546948  0  0.22032  0.579105  0  4.154406  0
C  C82  1  0.20252315  0.37466907  0.96927726  1  1.556377  0  0.220577  0.580387  0  4.15346  0
C  C83  1  0.93534357  0.62625108  0.03227050  1  1.567349  0  0.220399  0.579701  0  4.154067  0
S  S84  1  0.14006175  0.38051487  0.48185195  1  0.387698  0  0.143297  0.225443  0  2.855955  0
S  S85  1  0.53832839  0.61650685  0.51662482  1  0.414682  0  0.141344  0.233307  0  2.90287  0
S  S86  1  0.76925710  0.37984459  0.01783629  1  0.383429  0  0.143525  0.22623  0  2.857752  0
S  S87  1  0.37067832  0.61527776  0.98334342  1  0.410996  0  0.141195  0.233487  0  2.903126  0
N  N88  1  0.02461113  0.03247969  0.87566857  1  -1.251874  0  -0.582298  -0.598514  0  3.365071  0
N  N89  1  0.88412226  0.03418339  0.62430091  1  -1.257227  0  -0.582773  -0.599008  0  3.364926  0
N  N90  1  0.00918307  0.95790347  0.11364558  1  -1.259166  0  -0.58208  -0.596812  0  3.357822  0
N  N91  1  0.90009293  0.95782632  0.38648766  1  -1.268203  0  -0.582151  -0.59729  0  3.35709  0
O  O92  1  0.50699988  0.83491270  0.50412536  1  -1.164838  0  -0.301418  -0.542301  0  2.371443  0
O  O93  1  0.17988745  0.85246686  0.49299764  1  -1.151243  0  -0.310068  -0.533371  0  2.308801  0
O  O94  1  0.35676228  0.99591667  0.55393789  1  -1.180079  0  -0.318295  -0.571081  0  2.314992  0
O  O95  1  0.68791538  0.99796662  0.55671237  1  -1.130918  0  -0.320046  -0.537538  0  2.308397  0
O  O96  1  0.19564864  0.15328460  0.49273917  1  -1.119802  0  -0.312668  -0.509872  0  2.240811  0
O  O97  1  0.52417045  0.15405008  0.50202866  1  -1.175599  0  -0.299651  -0.564664  0  2.330803  0
O  O98  1  0.70860213  0.98699868  0.45023430  1  -1.12902  0  -0.319369  -0.537203  0  2.28304  0
O  O99  1  0.37945805  0.99699123  0.44291590  1  -1.174505  0  -0.318373  -0.576496  0  2.333398  0
O  O100  1  0.40204718  0.83345583  0.99599516  1  -1.1612  0  -0.30196  -0.543472  0  2.372102  0
O  O101  1  0.72924014  0.85184995  0.00699183  1  -1.154936  0  -0.309544  -0.533063  0  2.30867  0
O  O102  1  0.55207914  0.99467761  0.94594390  1  -1.180515  0  -0.318004  -0.570831  0  2.315456  0
O  O103  1  0.22092882  0.99627241  0.94325939  1  -1.131568  0  -0.31984  -0.537216  0  2.308936  0
O  O104  1  0.71371592  0.15266444  0.00700180  1  -1.123121  0  -0.312245  -0.509259  0  2.240703  0
O  O105  1  0.38528889  0.15255111  0.99762469  1  -1.173862  0  -0.299719  -0.564709  0  2.330146  0
O  O106  1  0.20083296  0.98555611  0.04974444  1  -1.130859  0  -0.319392  -0.537378  0  2.282454  0
O  O107  1  0.53008425  0.99550671  0.05695121  1  -1.18033  0  -0.318491  -0.576882  0  2.333686  0
O  O108  1  0.78419547  0.27946386  0.53351418  1  -1.158123  0  -0.349005  -0.485939  0  2.281801  0
O  O109  1  0.79775950  0.45501649  0.54268376  1  -1.123614  0  -0.291575  -0.474722  0  2.104256  0
O  O110  1  0.90416015  0.72601459  0.46462297  1  -1.14264  0  -0.350285  -0.488664  0  2.286407  0
O  O111  1  0.87589582  0.55077668  0.45533592  1  -1.119054  0  -0.289367  -0.469349  0  2.094193  0
O  O112  1  0.12474873  0.27766465  0.96639018  1  -1.156953  0  -0.348842  -0.486164  0  2.281444  0
O  O113  1  0.11093896  0.45329073  0.95727501  1  -1.117166  0  -0.291899  -0.47538  0  2.103675  0
O  O114  1  0.00519876  0.72566564  0.03527492  1  -1.159394  0  -0.350751  -0.489042  0  2.286128  0
O  O115  1  0.03328831  0.55033888  0.04447619  1  -1.114087  0  -0.289049  -0.4694  0  2.096242  0
