# generated using pymatgen
data_UH17C10N2O9
_symmetry_space_group_name_H-M   'P 1'
_cell_length_a   8.47983861
_cell_length_b   8.59557769
_cell_length_c   10.79409324
_cell_angle_alpha   72.57460790
_cell_angle_beta   75.91899906
_cell_angle_gamma   79.68028798
_symmetry_Int_Tables_number   1
_chemical_formula_structural   UH17C10N2O9
_chemical_formula_sum   'U2 H34 C20 N4 O18'
_cell_volume   723.29198252
_cell_formula_units_Z   2
loop_
 _symmetry_equiv_pos_site_id
 _symmetry_equiv_pos_as_xyz
  1  'x, y, z'
loop_
 _atom_site_type_symbol
 _atom_site_label
 _atom_site_symmetry_multiplicity
 _atom_site_fract_x
 _atom_site_fract_y
 _atom_site_fract_z
 _atom_site_occupancy
 _atom_site_hle17_bader_spin_density
 _atom_site_hle17_ddec_charge
 _atom_site_hle17_ddec_spin_density
 _atom_site_hle17_ddec_sum_bond_order
 _atom_site_hle17_magmom
 _atom_site_hse06_10hf_bader_spin_density
 _atom_site_hse06_10hf_ddec_charge
 _atom_site_hse06_10hf_ddec_spin_density
 _atom_site_hse06_10hf_ddec_sum_bond_order
 _atom_site_hse06_10hf_magmom
 _atom_site_hse06_bader_spin_density
 _atom_site_hse06_ddec_charge
 _atom_site_hse06_ddec_spin_density
 _atom_site_hse06_ddec_sum_bond_order
 _atom_site_hse06_magmom
 _atom_site_pbe_bader_spin_density
 _atom_site_pbe_cm5_charge
 _atom_site_pbe_ddec_charge
 _atom_site_pbe_ddec_spin_density
 _atom_site_pbe_ddec_sum_bond_order
 _atom_site_pbe_magmom
U  U0  1  0.81682438  0.55944861  0.78168965  1  0  2.462834  0  4.129581  0  0  2.528329  0  4.779917  0  0  2.63273  0  4.74744  0  0  2.152191  2.45406  0  4.804357  0
U  U1  1  0.18316334  0.44054852  0.21831396  1  0  2.462685  0  4.12962  0  0  2.528191  0  4.780015  0  0  2.632586  0  4.747545  0  0  2.152135  2.453889  0  4.804504  0
H  H2  1  0.73798460  0.71128947  0.98665767  1  0  0.416914  0  0.887592  0  0  0.390676  0  0.949734  0  0  0.402909  0  0.932316  0  0  0.299974  0.381766  0  0.962275  0
H  H3  1  0.26201256  0.28871015  0.01334443  1  0  0.416917  0  0.887599  0  0  0.39068  0  0.949733  0  0  0.402913  0  0.932316  0  0  0.299959  0.381767  0  0.962279  0
H  H4  1  0.57238080  0.64190925  0.00115660  1  0  0.436732  0  0.857446  0  0  0.410173  0  0.91582  0  0  0.422292  0  0.898393  0  0  0.308113  0.40164  0  0.928048  0
H  H5  1  0.42761606  0.35809282  0.99884312  1  0  0.436767  0  0.85742  0  0  0.410183  0  0.915829  0  0  0.422301  0  0.898404  0  0  0.308099  0.401649  0  0.928059  0
H  H6  1  0.59916008  0.08021009  0.23785496  1  0  0.274752  0  0.856394  0  0  0.25721  0  0.918412  0  0  0.265027  0  0.91252  0  0  0.325042  0.251601  0  0.922616  0
H  H7  1  0.40084027  0.91979323  0.76214193  1  0  0.274773  0  0.856412  0  0  0.25723  0  0.918424  0  0  0.265046  0  0.912532  0  0  0.325053  0.251621  0  0.922623  0
H  H8  1  0.81097453  0.16634521  0.55253806  1  0  0.073051  0  0.919543  0  0  0.093315  0  0.973647  0  0  0.093908  0  0.973856  0  0  0.109727  0.092698  0  0.973685  0
H  H9  1  0.18902506  0.83365442  0.44746356  1  0  0.073051  0  0.919544  0  0  0.093322  0  0.973643  0  0  0.093914  0  0.973852  0  0  0.109733  0.092703  0  0.973682  0
H  H10  1  0.68555504  0.35649311  0.52818606  1  0  0.047229  0  0.918448  0  0  0.061064  0  0.985507  0  0  0.061061  0  0.985929  0  0  0.096732  0.061124  0  0.985244  0
H  H11  1  0.31444440  0.64350774  0.47181438  1  0  0.047216  0  0.918484  0  0  0.061057  0  0.985533  0  0  0.061054  0  0.985952  0  0  0.09672  0.061118  0  0.985265  0
H  H12  1  0.54116244  0.24179204  0.39087561  1  0  0.085437  0  0.94738  0  0  0.102542  0  1.010559  0  0  0.103955  0  1.009503  0  0  0.101067  0.101466  0  1.011632  0
H  H13  1  0.45883928  0.75821006  0.60912315  1  0  0.085415  0  0.947389  0  0  0.102526  0  1.010576  0  0  0.103939  0  1.009522  0  0  0.101063  0.10145  0  1.011649  0
H  H14  1  0.74008178  0.29689202  0.32435840  1  0  0.096919  0  0.947763  0  0  0.117428  0  1.002146  0  0  0.118208  0  1.002163  0  0  0.103955  0.116895  0  1.001835  0
H  H15  1  0.25992117  0.70311007  0.67564198  1  0  0.096938  0  0.947757  0  0  0.117448  0  1.002145  0  0  0.118232  0  1.002162  0  0  0.103953  0.116913  0  1.001831  0
H  H16  1  0.85562195  0.99613930  0.39762532  1  0  0.093019  0  0.897488  0  0  0.111232  0  0.950218  0  0  0.112606  0  0.949428  0  0  0.119167  0.110027  0  0.951037  0
H  H17  1  0.14437653  0.00385910  0.60237218  1  0  0.093004  0  0.897531  0  0  0.111227  0  0.95025  0  0  0.112603  0  0.949458  0  0  0.119152  0.110023  0  0.951072  0
H  H18  1  0.65353561  0.94536138  0.46480085  1  0  0.091371  0  0.932051  0  0  0.103004  0  0.999779  0  0  0.104655  0  0.998494  0  0  0.118608  0.10182  0  1.00069  0
H  H19  1  0.34646244  0.05464070  0.53519679  1  0  0.09137  0  0.93205  0  0  0.102993  0  0.999791  0  0  0.104644  0  0.998506  0  0  0.118598  0.101809  0  1.000705  0
H  H20  1  0.84720771  0.78985292  0.25792555  1  0  0.10828  0  0.952317  0  0  0.124081  0  1.009543  0  0  0.126234  0  1.008436  0  0  0.121607  0.122482  0  1.010421  0
H  H21  1  0.15279050  0.21014793  0.74207327  1  0  0.108281  0  0.952298  0  0  0.124038  0  1.009588  0  0  0.126186  0  1.00848  0  0  0.121606  0.122443  0  1.010472  0
H  H22  1  0.71847520  0.86604199  0.14076296  1  0  0.09512  0  0.959103  0  0  0.109015  0  1.022188  0  0  0.111043  0  1.021065  0  0  0.11674  0.107591  0  1.023077  0
H  H23  1  0.28152193  0.13395763  0.85923636  1  0  0.095097  0  0.959136  0  0  0.109029  0  1.022185  0  0  0.111056  0  1.021061  0  0  0.116737  0.107608  0  1.023072  0
H  H24  1  0.40463263  0.35966094  0.68794935  1  0  0.078022  0  0.901335  0  0  0.098346  0  0.955572  0  0  0.098895  0  0.955525  0  0  0.107391  0.097973  0  0.95526  0
H  H25  1  0.59536681  0.64033992  0.31205108  1  0  0.07802  0  0.901317  0  0  0.098343  0  0.955558  0  0  0.098892  0  0.955513  0  0  0.107387  0.097966  0  0.955247  0
H  H26  1  0.37987857  0.28479590  0.55853275  1  0  0.06714  0  0.952244  0  0  0.081272  0  1.019365  0  0  0.081697  0  1.019465  0  0  0.108759  0.081122  0  1.019129  0
H  H27  1  0.62012194  0.71520618  0.44146625  1  0  0.067132  0  0.952258  0  0  0.081256  0  1.019402  0  0  0.08168  0  1.019505  0  0  0.108757  0.081105  0  1.019166  0
H  H28  1  0.52741818  0.12142100  0.85774828  1  0  0.11017  0  0.930915  0  0  0.124042  0  0.991453  0  0  0.125883  0  0.990895  0  0  0.119472  0.122813  0  0.991316  0
H  H29  1  0.47258139  0.87857863  0.14225057  1  0  0.110187  0  0.930888  0  0  0.12407  0  0.991426  0  0  0.125911  0  0.990868  0  0  0.119487  0.122843  0  0.99129  0
H  H30  1  0.70963710  0.20251197  0.77077421  1  0  0.103211  0  0.949789  0  0  0.108055  0  1.026149  0  0  0.110453  0  1.024616  0  0  0.114963  0.107064  0  1.025708  0
H  H31  1  0.29036370  0.79748767  0.22922625  1  0  0.103216  0  0.949831  0  0  0.108069  0  1.026205  0  0  0.110467  0  1.02467  0  0  0.114954  0.107074  0  1.025763  0
H  H32  1  0.93328700  0.02992734  0.10732518  1  0  0.137859  0  0.906585  0  0  0.150783  0  0.96343  0  0  0.153673  0  0.961836  0  0  0.129836  0.148632  0  0.964953  0
H  H33  1  0.06671731  0.97007353  0.89267522  1  0  0.137913  0  0.90657  0  0  0.150811  0  0.963441  0  0  0.153701  0  0.961846  0  0  0.129841  0.148659  0  0.964972  0
H  H34  1  0.88843048  0.19769858  0.17805415  1  0  0.140469  0  0.944009  0  0  0.154624  0  0.999238  0  0  0.157228  0  0.997323  0  0  0.133169  0.152961  0  1.000515  0
H  H35  1  0.11157139  0.80230228  0.82194673  1  0  0.140524  0  0.944046  0  0  0.154685  0  0.999251  0  0  0.157288  0  0.997336  0  0  0.133179  0.153022  0  1.000526  0
C  C36  1  0.68873544  0.22437552  0.53561018  1  0  0.01592  0  3.645104  0  0  -0.0364  0  3.908706  0  0  -0.032855  0  3.921525  0  0  -0.061266  -0.038872  0  3.899968  0
C  C37  1  0.31126414  0.77562411  0.46438959  1  0  0.015999  0  3.64509  0  0  -0.036315  0  3.90869  0  0  -0.032767  0  3.921501  0  0  -0.061223  -0.03879  0  3.899952  0
C  C38  1  0.66887969  0.20730357  0.40341001  1  0  -0.165732  0  3.66793  0  0  -0.211608  0  3.930884  0  0  -0.212954  0  3.943641  0  0  -0.161641  -0.210578  0  3.922035  0
C  C39  1  0.33112111  0.79269606  0.59659044  1  0  -0.165702  0  3.667922  0  0  -0.211602  0  3.930912  0  0  -0.212955  0  3.943675  0  0  -0.161639  -0.210562  0  3.92205  0
C  C40  1  0.72731619  0.03451848  0.38884743  1  0  0.01031  0  3.514408  0  0  -0.053336  0  3.782311  0  0  -0.048936  0  3.790769  0  0  -0.056837  -0.056226  0  3.776391  0
C  C41  1  0.27268324  0.96548237  0.61115115  1  0  0.01037  0  3.514447  0  0  -0.053269  0  3.782344  0  0  -0.048869  0  3.790802  0  0  -0.056772  -0.056158  0  3.776423  0
C  C42  1  0.72522892  0.85061907  0.24397202  1  0  -0.040884  0  3.51959  0  0  -0.104939  0  3.778846  0  0  -0.102457  0  3.787791  0  0  -0.061949  -0.106521  0  3.772658  0
C  C43  1  0.27477171  0.14938179  0.75602632  1  0  -0.04078  0  3.519648  0  0  -0.104863  0  3.778935  0  0  -0.102371  0  3.787866  0  0  -0.061944  -0.106448  0  3.772754  0
C  C44  1  0.40807456  0.24592772  0.65812638  1  0  -0.029342  0  3.680669  0  0  -0.089284  0  3.950872  0  0  -0.086004  0  3.963105  0  0  -0.067876  -0.091603  0  3.941869  0
C  C45  1  0.59192488  0.75407314  0.34187313  1  0  -0.029269  0  3.68066  0  0  -0.089231  0  3.950885  0  0  -0.085956  0  3.963126  0  0  -0.067865  -0.091549  0  3.941884  0
C  C46  1  0.62938885  0.11311742  0.77389475  1  0  -0.180039  0  3.671036  0  0  -0.231649  0  3.918822  0  0  -0.233453  0  3.925141  0  0  -0.069813  -0.230011  0  3.912513  0
C  C47  1  0.37060951  0.88688220  0.22610526  1  0  -0.179977  0  3.671107  0  0  -0.231657  0  3.918911  0  0  -0.233464  0  3.925227  0  0  -0.069785  -0.230018  0  3.912606  0
C  C48  1  0.71865967  0.94206099  0.81675519  1  0  0.703281  0  3.808598  0  0  0.661388  0  4.121295  0  0  0.697956  0  4.110411  0  0  0.22519  0.636534  0  4.127578  0
C  C49  1  0.28134037  0.05793495  0.18324907  1  0  0.703227  0  3.808602  0  0  0.661447  0  4.121148  0  0  0.698017  0  4.110262  0  0  0.225213  0.636583  0  4.127446  0
C  C50  1  0.83387323  0.11586188  0.14363708  1  0  -0.18598  0  3.502384  0  0  -0.244959  0  3.742826  0  0  -0.246749  0  3.747211  0  0  -0.056395  -0.243661  0  3.740018  0
C  C51  1  0.16612727  0.88414021  0.85636192  1  0  -0.186118  0  3.502502  0  0  -0.245058  0  3.742946  0  0  -0.246857  0  3.747346  0  0  -0.056425  -0.243751  0  3.740131  0
C  C52  1  0.74682437  0.22243618  0.03418101  1  0  0.731552  0  3.828204  0  0  0.688625  0  4.138966  0  0  0.724962  0  4.12845  0  0  0.241087  0.662806  0  4.147808  0
C  C53  1  0.25319071  0.77756596  0.96581419  1  0  0.731784  0  3.828255  0  0  0.688817  0  4.139089  0  0  0.725159  0  4.128561  0  0  0.241271  0.662993  0  4.147933  0
C  C54  1  0.98358834  0.59213123  0.46735104  1  0  0.540735  0  3.950881  0  0  0.503717  0  4.256326  0  0  0.535968  0  4.246043  0  0  0.22762  0.481417  0  4.262635  0
C  C55  1  0.01641644  0.40786474  0.53263746  1  0  0.540564  0  3.950759  0  0  0.503494  0  4.256276  0  0  0.535743  0  4.245995  0  0  0.227445  0.4812  0  4.262581  0
N  N56  1  0.56874638  0.14879981  0.65153255  1  0  -0.209274  0  3.236921  0  0  -0.137275  0  3.497773  0  0  -0.150552  0  3.516846  0  0  -0.342415  -0.127364  0  3.483951  0
N  N57  1  0.43125185  0.85120104  0.34846812  1  0  -0.209422  0  3.236952  0  0  -0.137428  0  3.497856  0  0  -0.1507  0  3.516917  0  0  -0.342471  -0.12752  0  3.48404  0
N  N58  1  0.71400642  0.02285230  0.25557015  1  0  -0.067809  0  3.357333  0  0  0.014773  0  3.571852  0  0  0.002949  0  3.589901  0  0  -0.343709  0.022915  0  3.559407  0
N  N59  1  0.28599529  0.97714979  0.74442769  1  0  -0.068013  0  3.357543  0  0  0.014591  0  3.572044  0  0  0.002768  0  3.590087  0  0  -0.343777  0.022732  0  3.5596  0
O  O60  1  0.01418187  0.59370810  0.79912594  1  0  -0.705359  0  1.549985  0  0  -0.711426  0  1.824193  0  0  -0.731464  0  1.811591  0  0  -0.757759  -0.699627  0  1.833507  0
O  O61  1  0.98582718  0.40629402  0.20087693  1  0  -0.705231  0  1.550488  0  0  -0.711268  0  1.824702  0  0  -0.731295  0  1.812096  0  0  -0.757902  -0.69947  0  1.834022  0
O  O62  1  0.62243496  0.52699312  0.75736126  1  0  -0.714818  0  1.540564  0  0  -0.725503  0  1.831963  0  0  -0.745086  0  1.81951  0  0  -0.766425  -0.714358  0  1.840415  0
O  O63  1  0.37757619  0.47300163  0.24264482  1  0  -0.714853  0  1.540136  0  0  -0.725539  0  1.831498  0  0  -0.745134  0  1.819057  0  0  -0.766219  -0.714387  0  1.839955  0
O  O64  1  0.73335013  0.84250023  0.74488391  1  0  -0.680117  0  2.034984  0  0  -0.67493  0  2.322695  0  0  -0.709787  0  2.316142  0  0  -0.390585  -0.650328  0  2.325985  0
O  O65  1  0.26664717  0.15749816  0.25511753  1  0  -0.680076  0  2.035102  0  0  -0.674945  0  2.322805  0  0  -0.7098  0  2.31625  0  0  -0.390583  -0.650332  0  2.3261  0
O  O66  1  0.76849712  0.90465583  0.92422644  1  0  -0.615923  0  1.946679  0  0  -0.572964  0  2.171967  0  0  -0.599815  0  2.163125  0  0  -0.305982  -0.553213  0  2.177833  0
O  O67  1  0.23149878  0.09534379  0.07577035  1  0  -0.615935  0  1.946443  0  0  -0.573019  0  2.171681  0  0  -0.599875  0  2.162838  0  0  -0.306025  -0.553263  0  2.177555  0
O  O68  1  0.84204131  0.29876508  0.93071033  1  0  -0.667777  0  2.011577  0  0  -0.655132  0  2.288124  0  0  -0.689171  0  2.280844  0  0  -0.387911  -0.630711  0  2.293962  0
O  O69  1  0.15796273  0.70123824  0.06929231  1  0  -0.667913  0  2.011404  0  0  -0.65525  0  2.287974  0  0  -0.689295  0  2.28069  0  0  -0.38797  -0.630814  0  2.293809  0
O  O70  1  0.59416562  0.23139447  0.05545235  1  0  -0.612349  0  1.981171  0  0  -0.564122  0  2.207628  0  0  -0.589796  0  2.198556  0  0  -0.279017  -0.546041  0  2.214103  0
O  O71  1  0.40582783  0.76860515  0.94454214  1  0  -0.61231  0  1.981469  0  0  -0.564134  0  2.207979  0  0  -0.589802  0  2.198887  0  0  -0.279091  -0.546062  0  2.21446  0
O  O72  1  0.90135231  0.67983287  0.54162492  1  0  -0.603179  0  2.062024  0  0  -0.583889  0  2.321492  0  0  -0.612586  0  2.316375  0  0  -0.330997  -0.563125  0  2.324102  0
O  O73  1  0.09863700  0.32017164  0.45837941  1  0  -0.60303  0  2.062401  0  0  -0.583722  0  2.321898  0  0  -0.612411  0  2.316782  0  0  -0.330908  -0.562961  0  2.324511  0
O  O74  1  0.04172495  0.64046039  0.34440771  1  0  -0.604721  0  2.101663  0  0  -0.581529  0  2.35918  0  0  -0.610431  0  2.354652  0  0  -0.329211  -0.560772  0  2.361515  0
O  O75  1  0.95827590  0.35953923  0.65559922  1  0  -0.604829  0  2.101072  0  0  -0.581582  0  2.358532  0  0  -0.61049  0  2.354009  0  0  -0.329198  -0.56082  0  2.360855  0
O  O76  1  0.69202801  0.60610899  0.99630907  1  0  -0.837004  0  1.874596  0  0  -0.814682  0  2.057179  0  0  -0.842123  0  2.02811  0  0  -0.610596  -0.794328  0  2.077783  0
O  O77  1  0.30796931  0.39388941  0.00369422  1  0  -0.83701  0  1.87453  0  0  -0.814694  0  2.057163  0  0  -0.842135  0  2.028091  0  0  -0.610573  -0.794331  0  2.077773  0
