# generated using pymatgen
data_ZnH12C14(N4Cl)2
_symmetry_space_group_name_H-M   'P 1'
_cell_length_a   6.78651999
_cell_length_b   8.88425563
_cell_length_c   13.93250437
_cell_angle_alpha   100.86752087
_cell_angle_beta   102.01486766
_cell_angle_gamma   94.47338120
_symmetry_Int_Tables_number   1
_chemical_formula_structural   ZnH12C14(N4Cl)2
_chemical_formula_sum   'Zn2 H24 C28 N16 Cl4'
_cell_volume   800.86426326
_cell_formula_units_Z   2
loop_
 _symmetry_equiv_pos_site_id
 _symmetry_equiv_pos_as_xyz
  1  'x, y, z'
loop_
 _atom_site_type_symbol
 _atom_site_label
 _atom_site_symmetry_multiplicity
 _atom_site_fract_x
 _atom_site_fract_y
 _atom_site_fract_z
 _atom_site_occupancy
 _atom_site_pbe_bader_spin_density
 _atom_site_pbe_cm5_charge
 _atom_site_pbe_ddec_charge
 _atom_site_pbe_ddec_spin_density
 _atom_site_pbe_ddec_sum_bond_order
 _atom_site_pbe_magmom
Zn  Zn0  1  0.24487757  0.10929288  0.36214517  1  0  0.560122  0.664128  0  2.682999  0
Zn  Zn1  1  0.75512056  0.89070671  0.63785530  1  0  0.560119  0.664129  0  2.682988  0
H  H2  1  0.93591431  0.31251023  0.47382741  1  0  0.130512  0.102311  0  1.008951  0
H  H3  1  0.06407761  0.68748822  0.52617086  1  0  0.130498  0.102319  0  1.008977  0
H  H4  1  0.07814848  0.31032846  0.19409592  1  0  0.139461  0.110102  0  1.038684  0
H  H5  1  0.92185096  0.68966998  0.80590455  1  0  0.139457  0.110098  0  1.03862  0
H  H6  1  0.82629492  0.66279981  0.25653482  1  0  0.108373  0.116097  0  1.024278  0
H  H7  1  0.17371113  0.33720207  0.74346459  1  0  0.108376  0.116078  0  1.024339  0
H  H8  1  0.92103829  0.55210061  0.15974131  1  0  0.119932  0.112641  0  1.018356  0
H  H9  1  0.07896436  0.44789898  0.84025819  1  0  0.119949  0.112691  0  1.018313  0
H  H10  1  0.39844153  0.60632438  0.53385573  1  0  0.131918  0.095386  0  1.036901  0
H  H11  1  0.60155661  0.39367522  0.46614402  1  0  0.131921  0.095378  0  1.036918  0
H  H12  1  0.70065289  0.90661187  0.39620548  1  0  0.132529  0.118582  0  1.019427  0
H  H13  1  0.29934543  0.09338888  0.60379443  1  0  0.132532  0.1186  0  1.019432  0
H  H14  1  0.20268430  0.96860364  0.84209810  1  0  0.097103  0.102233  0  1.020448  0
H  H15  1  0.79731684  0.03139595  0.15790268  1  0  0.097089  0.102244  0  1.0204  0
H  H16  1  0.53984928  0.10295082  0.93726072  1  0  0.104052  0.120398  0  1.008879  0
H  H17  1  0.46015337  0.89704877  0.06274022  1  0  0.104037  0.120411  0  1.008907  0
H  H18  1  0.90504966  0.30666675  0.00855242  1  0  0.099639  0.104946  0  1.057533  0
H  H19  1  0.09495148  0.69333284  0.99144908  1  0  0.099634  0.104926  0  1.057547  0
H  H20  1  0.27482222  0.73648950  0.21252325  1  0  0.117677  0.117115  0  0.995521  0
H  H21  1  0.72517760  0.26351125  0.78747682  1  0  0.117673  0.11712  0  0.995533  0
H  H22  1  0.53481349  0.78978864  0.21762655  1  0  0.115407  0.109598  0  1.017341  0
H  H23  1  0.46518312  0.21021096  0.78237520  1  0  0.115406  0.109603  0  1.017356  0
H  H24  1  0.88618149  0.06399008  0.87987060  1  0  0.089614  0.092065  0  1.053567  0
H  H25  1  0.11381983  0.93601067  0.12013106  1  0  0.089602  0.092061  0  1.053591  0
C  C26  1  0.94081785  0.34097155  0.40185317  1  0  0.149126  0.14672  0  3.972977  0
C  C27  1  0.05917708  0.65902690  0.59814612  1  0  0.149151  0.146751  0  3.973032  0
C  C28  1  0.01497783  0.33546442  0.25962277  1  0  0.170705  0.095798  0  3.899918  0
C  C29  1  0.98502011  0.66453402  0.74037682  1  0  0.170705  0.095834  0  3.899769  0
C  C30  1  0.81745265  0.54714914  0.21044515  1  0  -0.044771  -0.165913  0  3.849029  0
C  C31  1  0.18254870  0.45285161  0.78955364  1  0  -0.04478  -0.165953  0  3.849077  0
C  C32  1  0.42642156  0.54582162  0.16394565  1  0  0.132851  0.164733  0  3.925335  0
C  C33  1  0.57357959  0.45417797  0.83605370  1  0  0.132861  0.164758  0  3.925325  0
C  C34  1  0.23384799  0.34251071  0.04469336  1  0  0.108112  0.155239  0  4.02521  0
C  C35  1  0.76615466  0.65748888  0.95530685  1  0  0.108147  0.155299  0  4.025135  0
C  C36  1  0.44588976  0.65894563  0.47685691  1  0  0.146057  0.14043  0  3.983193  0
C  C37  1  0.55410837  0.34105397  0.52314356  1  0  0.146025  0.140397  0  3.983201  0
C  C38  1  0.60677338  0.48047558  0.14929884  1  0  0.13068  0.15986  0  3.935114  0
C  C39  1  0.39322947  0.51952516  0.85069939  1  0  0.130671  0.159816  0  3.93513  0
C  C40  1  0.60180856  0.81474370  0.40986878  1  0  0.166158  0.092748  0  3.882768  0
C  C41  1  0.39819126  0.18525705  0.59013201  1  0  0.166179  0.092734  0  3.882713  0
C  C42  1  0.41546434  0.28225517  0.02644181  1  0  0.109338  0.162144  0  4.037425  0
C  C43  1  0.58453718  0.71774673  0.97355928  1  0  0.109313  0.162106  0  4.03742  0
C  C44  1  0.21256367  0.07225312  0.89984344  1  0  -0.082124  -0.058316  0  3.964353  0
C  C45  1  0.78743897  0.92774646  0.10015821  1  0  -0.082142  -0.058351  0  3.964309  0
C  C46  1  0.40109996  0.14694443  0.95186788  1  0  -0.08567  -0.152422  0  3.946154  0
C  C47  1  0.59890099  0.85305401  0.04813418  1  0  -0.085609  -0.152405  0  3.946175  0
C  C48  1  0.04201408  0.26177638  0.99158726  1  0  -0.088845  -0.155113  0  3.936603  0
C  C49  1  0.95798857  0.73822321  0.00841296  1  0  -0.088842  -0.155092  0  3.936521  0
C  C50  1  0.42743784  0.70123395  0.23083730  1  0  -0.042416  -0.169143  0  3.885693  0
C  C51  1  0.57256179  0.29876565  0.76916333  1  0  -0.042432  -0.1692  0  3.885772  0
C  C52  1  0.03276774  0.12817173  0.92081938  1  0  -0.082624  -0.056233  0  3.971516  0
C  C53  1  0.96723339  0.87182786  0.07918212  1  0  -0.082626  -0.056251  0  3.971482  0
N  N54  1  0.04622312  0.26626757  0.33775114  1  0  -0.352596  -0.304633  0  3.581534  0
N  N55  1  0.95377332  0.73373088  0.66224830  1  0  -0.352599  -0.30466  0  3.581494  0
N  N56  1  0.84712515  0.45208914  0.36741481  1  0  -0.220625  -0.26567  0  3.106613  0
N  N57  1  0.15287167  0.54791161  0.63258352  1  0  -0.220666  -0.265779  0  3.106687  0
N  N58  1  0.89664030  0.44659560  0.27691784  1  0  -0.12631  0.189631  0  3.72031  0
N  N59  1  0.10336084  0.55340399  0.72308150  1  0  -0.126272  0.189729  0  3.720277  0
N  N60  1  0.37704808  0.60518482  0.37927608  1  0  -0.219536  -0.249198  0  3.109551  0
N  N61  1  0.62295288  0.39481362  0.62072383  1  0  -0.21951  -0.249152  0  3.109442  0
N  N62  1  0.47897416  0.70504086  0.33813418  1  0  -0.131935  0.174881  0  3.747189  0
N  N63  1  0.52102548  0.29495874  0.66186645  1  0  -0.131916  0.174928  0  3.747148  0
N  N64  1  0.58532758  0.78750261  0.49919653  1  0  -0.352804  -0.299042  0  3.568531  0
N  N65  1  0.41467074  0.21249814  0.50080338  1  0  -0.352819  -0.299071  0  3.56846  0
N  N66  1  0.24496262  0.47675542  0.11255193  1  0  -0.290811  -0.292744  0  3.311395  0
N  N67  1  0.75503985  0.52324301  0.88744741  1  0  -0.290858  -0.292798  0  3.311357  0
N  N68  1  0.60002283  0.35407295  0.08056366  1  0  -0.292021  -0.291323  0  3.300089  0
N  N69  1  0.39998001  0.64592779  0.91943529  1  0  -0.291993  -0.291271  0  3.300058  0
Cl  Cl70  1  0.07710454  0.88866686  0.37248644  1  0  -0.319431  -0.497985  0  1.251507  0
Cl  Cl71  1  0.92289510  0.11133273  0.62751419  1  0  -0.319421  -0.497975  0  1.251502  0
Cl  Cl72  1  0.43667725  0.11030983  0.24887873  1  0  -0.326847  -0.490043  0  1.160455  0
Cl  Cl73  1  0.56331957  0.88969092  0.75112103  1  0  -0.326855  -0.490059  0  1.160441  0
