# generated using pymatgen
data_Zn4H6C15S9O13
_symmetry_space_group_name_H-M   'P 1'
_cell_length_a   13.38341951
_cell_length_b   15.11940630
_cell_length_c   14.47490870
_cell_angle_alpha   69.49051973
_cell_angle_beta   66.15972493
_cell_angle_gamma   68.01578338
_symmetry_Int_Tables_number   1
_chemical_formula_structural   Zn4H6C15S9O13
_chemical_formula_sum   'Zn8 H12 C30 S18 O26'
_cell_volume   2414.88788468
_cell_formula_units_Z   2
loop_
 _symmetry_equiv_pos_site_id
 _symmetry_equiv_pos_as_xyz
  1  'x, y, z'
loop_
 _atom_site_type_symbol
 _atom_site_label
 _atom_site_symmetry_multiplicity
 _atom_site_fract_x
 _atom_site_fract_y
 _atom_site_fract_z
 _atom_site_occupancy
 _atom_site_pbe_bader_charge
 _atom_site_pbe_bader_spin_density
 _atom_site_pbe_cm5_charge
 _atom_site_pbe_ddec_charge
 _atom_site_pbe_ddec_spin_density
 _atom_site_pbe_ddec_sum_bond_order
 _atom_site_pbe_magmom
Zn  Zn0  1  0.05782234  0.01562821  0.02838568  1  1.314789  0  0.676563  0.967302  0  2.363018  0
Zn  Zn1  1  0.81572874  0.02482476  0.03393620  1  1.31842  0  0.680618  0.974077  0  2.362922  0
Zn  Zn2  1  0.01371844  0.82182632  0.02276025  1  1.321962  0  0.684498  0.987034  0  2.291257  0
Zn  Zn3  1  0.02614438  0.00682054  0.82472969  1  1.308274  0  0.681173  0.977516  0  2.351774  0
Zn  Zn4  1  0.40169852  0.40275855  0.40932537  1  1.320587  0  0.679237  0.974032  0  2.35191  0
Zn  Zn5  1  0.63467688  0.40981731  0.40796198  1  1.31536  0  0.678007  0.967169  0  2.400006  0
Zn  Zn6  1  0.43692747  0.39119194  0.62101795  1  1.318261  0  0.680747  0.972867  0  2.336374  0
Zn  Zn7  1  0.41682453  0.59631253  0.44744743  1  1.314397  0  0.68313  0.985177  0  2.289501  0
H  H8  1  0.82404403  0.25447909  0.19951076  1  0.137187  0  0.12683  0.147603  0  0.941531  0
H  H9  1  0.64383918  0.24351303  0.16180219  1  0.132975  0  0.124118  0.146624  0  0.949507  0
H  H10  1  0.23991616  0.78244524  0.24241288  1  0.141554  0  0.126603  0.1466  0  0.932835  0
H  H11  1  0.18518231  0.63336129  0.22867210  1  0.130581  0  0.127584  0.149215  0  0.935566  0
H  H12  1  0.31259155  0.16310638  0.79093718  1  0.140854  0  0.124684  0.14517  0  0.945345  0
H  H13  1  0.24696852  0.15994972  0.63356693  1  0.151814  0  0.124676  0.144414  0  0.949421  0
H  H14  1  0.63653318  0.80115386  0.28166770  1  0.107787  0  0.129773  0.149724  0  0.919197  0
H  H15  1  0.80661685  0.64333028  0.22255176  1  0.141979  0  0.123451  0.143113  0  0.940639  0
H  H16  1  0.64316187  0.23832848  0.80506441  1  0.15062  0  0.123949  0.144807  0  0.94181  0
H  H17  1  0.80507471  0.17117067  0.63663146  1  0.106276  0  0.129175  0.148098  0  0.918834  0
H  H18  1  0.22355045  0.77425066  0.65462062  1  0.124507  0  0.12387  0.144628  0  0.94197  0
H  H19  1  0.16174560  0.61769614  0.80132870  1  0.130052  0  0.130118  0.149578  0  0.916451  0
C  C20  1  0.76248190  0.43614677  0.98220298  1  -0.53581  0  -0.000555  -0.03054  0  4.216663  0
C  C21  1  0.80509761  0.26800778  0.12766960  1  -0.117753  0  -0.071423  -0.161048  0  3.844252  0
C  C22  1  0.85801213  0.17111214  0.09427980  1  1.59817  0  0.229088  0.630161  0  4.125788  0
C  C23  1  0.67611493  0.30449226  0.15142475  1  -0.062844  0  -0.073487  -0.164807  0  3.846373  0
C  C24  1  0.61504650  0.34282876  0.24965397  1  1.553344  0  0.226799  0.628246  0  4.142501  0
C  C25  1  0.99067503  0.73591217  0.44619502  1  -0.494719  0  0.008338  -0.016167  0  4.200876  0
C  C26  1  0.15636460  0.77031659  0.26407460  1  -0.09851  0  -0.069586  -0.159042  0  3.846965  0
C  C27  1  0.11131035  0.82602298  0.17187415  1  1.574302  0  0.229345  0.629794  0  4.124782  0
C  C28  1  0.16796586  0.66048496  0.29629454  1  -0.069473  0  -0.070509  -0.165516  0  3.856394  0
C  C29  1  0.26042153  0.59913298  0.34705651  1  1.599352  0  0.229223  0.632284  0  4.123072  0
C  C30  1  0.49854117  0.97647609  0.65854157  1  -0.503072  0  0.005798  -0.019085  0  4.218347  0
C  C31  1  0.31821242  0.10490871  0.75861755  1  -0.088012  0  -0.072064  -0.166252  0  3.841287  0
C  C32  1  0.21319134  0.06802275  0.82300114  1  1.605731  0  0.229047  0.630497  0  4.13192  0
C  C33  1  0.32939249  0.14614465  0.64319608  1  -0.11379  0  -0.070908  -0.159132  0  3.837292  0
C  C34  1  0.36151674  0.24286791  0.59638757  1  1.617441  0  0.230435  0.633713  0  4.124534  0
C  C35  1  0.62013065  0.74423913  0.06841871  1  -0.512057  0  0.00757  -0.016241  0  4.184499  0
C  C36  1  0.67782163  0.78172839  0.20583810  1  -0.066682  0  -0.067903  -0.15923  0  3.841696  0
C  C37  1  0.77143518  0.83389073  0.14209282  1  1.611795  0  0.230672  0.62858  0  4.124291  0
C  C38  1  0.71918473  0.67057706  0.21986879  1  -0.089331  0  -0.067978  -0.158399  0  3.84263  0
C  C39  1  0.64654198  0.61209323  0.31433278  1  1.600658  0  0.224068  0.623994  0  4.143448  0
C  C40  1  0.85470852  0.36975460  0.67509675  1  -0.502118  0  0.009748  -0.004739  0  4.166711  0
C  C41  1  0.73365151  0.23525198  0.77007484  1  -0.093642  0  -0.071531  -0.164731  0  3.845002  0
C  C42  1  0.80139869  0.14254732  0.82729728  1  1.600989  0  0.224672  0.625526  0  4.142838  0
C  C43  1  0.77035344  0.24443300  0.65327952  1  -0.039403  0  -0.066862  -0.15533  0  3.83834  0
C  C44  1  0.67555923  0.30105459  0.60461463  1  1.587013  0  0.227593  0.626216  0  4.132426  0
C  C45  1  0.39714142  0.65944059  0.82285308  1  -0.520245  0  0.005964  -0.015197  0  4.173706  0
C  C46  1  0.23175082  0.74320157  0.73283276  1  -0.071415  0  -0.071001  -0.166193  0  3.852252  0
C  C47  1  0.13480224  0.80347578  0.80641165  1  1.600216  0  0.225793  0.626203  0  4.13804  0
C  C48  1  0.24537840  0.63282104  0.76412198  1  -0.112621  0  -0.064627  -0.155181  0  3.834589  0
C  C49  1  0.30983310  0.58202437  0.67325063  1  1.607434  0  0.232055  0.633526  0  4.108913  0
S  S50  1  0.77822258  0.52926277  0.88242724  1  0.19288  0  -0.134912  -0.180225  0  2.325855  0
S  S51  1  0.87168948  0.36372810  0.03516061  1  0.195746  0  0.036302  0.076775  0  2.641781  0
S  S52  1  0.63745674  0.39940464  0.04216678  1  0.192174  0  0.047714  0.085329  0  2.68544  0
S  S53  1  0.88724774  0.74603088  0.55516295  1  0.140126  0  -0.154453  -0.188238  0  2.153301  0
S  S54  1  0.06691251  0.82315554  0.37672228  1  0.199062  0  0.046353  0.087347  0  2.613977  0
S  S55  1  0.03314794  0.63809914  0.38871256  1  0.202592  0  0.054354  0.100188  0  2.620172  0
S  S56  1  0.60617846  0.88150422  0.63212496  1  0.142704  0  -0.163778  -0.218792  0  2.20735  0
S  S57  1  0.44452490  0.00705310  0.77807930  1  0.203322  0  0.05649  0.105349  0  2.637641  0
S  S58  1  0.42851100  0.05476972  0.56876287  1  0.189748  0  0.041174  0.079859  0  2.604601  0
S  S59  1  0.57340035  0.75815767  0.97454976  1  0.173623  0  -0.143258  -0.192348  0  2.261604  0
S  S60  1  0.57008363  0.83238153  0.13992762  1  0.199558  0  0.049779  0.094093  0  2.617166  0
S  S61  1  0.72423953  0.64044389  0.10517911  1  0.199435  0  0.058618  0.10296  0  2.627732  0
S  S62  1  0.91855667  0.45284463  0.64983051  1  0.159463  0  -0.146235  -0.205394  0  2.18736  0
S  S63  1  0.74901358  0.34125423  0.79237623  1  0.198393  0  0.060357  0.100282  0  2.672162  0
S  S64  1  0.88584461  0.30367912  0.58534737  1  0.202545  0  0.051918  0.097958  0  2.619532  0
S  S65  1  0.49654237  0.64120813  0.87077738  1  0.17869  0  -0.142269  -0.193986  0  2.331229  0
S  S66  1  0.36187255  0.76324063  0.72633174  1  0.191463  0  0.052031  0.095886  0  2.617526  0
S  S67  1  0.31960992  0.57522153  0.86129172  1  0.212879  0  0.046151  0.092361  0  2.624111  0
O  O68  1  0.97859346  0.96545124  0.97683083  1  -1.222913  0  -0.572579  -1.038956  0  2.529078  0
O  O69  1  0.79048728  0.12480401  0.10500066  1  -1.170051  0  -0.309409  -0.535781  0  2.343289  0
O  O70  1  0.96587498  0.14293616  0.06286007  1  -1.168384  0  -0.312725  -0.537976  0  2.328769  0
O  O71  1  0.67658067  0.35011915  0.29299166  1  -1.174605  0  -0.309362  -0.5361  0  2.367986  0
O  O72  1  0.50748594  0.36287811  0.28024743  1  -1.129324  0  -0.313121  -0.538317  0  2.327624  0
O  O73  1  0.09449864  0.77668494  0.12679663  1  -1.171777  0  -0.304369  -0.535821  0  2.323188  0
O  O74  1  0.09722798  0.91818654  0.14806852  1  -1.145874  0  -0.313326  -0.537754  0  2.343468  0
O  O75  1  0.30860753  0.64462953  0.36809964  1  -1.1704  0  -0.305821  -0.541138  0  2.342026  0
O  O76  1  0.27938601  0.50691286  0.36397857  1  -1.180023  0  -0.314998  -0.537568  0  2.335707  0
O  O77  1  0.15114302  0.06861845  0.77544722  1  -1.171167  0  -0.307145  -0.536738  0  2.339396  0
O  O78  1  0.19694946  0.04137726  0.92035308  1  -1.18225  0  -0.314847  -0.537064  0  2.329931  0
O  O79  1  0.38483140  0.27486616  0.65363621  1  -1.176866  0  -0.307993  -0.536535  0  2.334683  0
O  O80  1  0.35934039  0.28358501  0.50384999  1  -1.175846  0  -0.312971  -0.539831  0  2.332399  0
O  O81  1  0.87085533  0.78229836  0.10387738  1  -1.168641  0  -0.303483  -0.534242  0  2.337476  0
O  O82  1  0.73878458  0.92637563  0.13284059  1  -1.186503  0  -0.317047  -0.543832  0  2.342013  0
O  O83  1  0.54298497  0.65538476  0.35436052  1  -1.174429  0  -0.308916  -0.540286  0  2.331904  0
O  O84  1  0.69796821  0.52244933  0.34291753  1  -1.176506  0  -0.319829  -0.546488  0  2.333309  0
O  O85  1  0.90267827  0.10503900  0.77528688  1  -1.184244  0  -0.309833  -0.540805  0  2.354054  0
O  O86  1  0.75025674  0.11172297  0.92277101  1  -1.174466  0  -0.315223  -0.542685  0  2.315672  0
O  O87  1  0.57678598  0.33527557  0.66267906  1  -1.168142  0  -0.301827  -0.526841  0  2.315698  0
O  O88  1  0.70595028  0.30820112  0.50745172  1  -1.178831  0  -0.318874  -0.54818  0  2.347401  0
O  O89  1  0.10299732  0.76204008  0.90276306  1  -1.170289  0  -0.310961  -0.543995  0  2.341646  0
O  O90  1  0.09695346  0.89278142  0.76326321  1  -1.174284  0  -0.31871  -0.544629  0  2.321427  0
O  O91  1  0.33880920  0.63532932  0.58194286  1  -1.169778  0  -0.302142  -0.532161  0  2.32242  0
O  O92  1  0.32772997  0.48920902  0.69921435  1  -1.175585  0  -0.315876  -0.547116  0  2.342221  0
O  O93  1  0.46989315  0.45263754  0.47199380  1  -1.226409  0  -0.571527  -1.035225  0  2.524249  0
