# generated using pymatgen
data_LaH17C12O7
_symmetry_space_group_name_H-M   'P 1'
_cell_length_a   8.09212833
_cell_length_b   8.99289090
_cell_length_c   10.61013888
_cell_angle_alpha   71.69571969
_cell_angle_beta   83.36743864
_cell_angle_gamma   84.00381814
_symmetry_Int_Tables_number   1
_chemical_formula_structural   LaH17C12O7
_chemical_formula_sum   'La2 H34 C24 O14'
_cell_volume   726.23753344
_cell_formula_units_Z   2
loop_
 _symmetry_equiv_pos_site_id
 _symmetry_equiv_pos_as_xyz
  1  'x, y, z'
loop_
 _atom_site_type_symbol
 _atom_site_label
 _atom_site_symmetry_multiplicity
 _atom_site_fract_x
 _atom_site_fract_y
 _atom_site_fract_z
 _atom_site_occupancy
 _atom_site_hle17_bader_spin_density
 _atom_site_hle17_ddec_charge
 _atom_site_hle17_ddec_spin_density
 _atom_site_hle17_ddec_sum_bond_order
 _atom_site_hle17_magmom
 _atom_site_hse06_10hf_bader_spin_density
 _atom_site_hse06_10hf_ddec_charge
 _atom_site_hse06_10hf_ddec_spin_density
 _atom_site_hse06_10hf_ddec_sum_bond_order
 _atom_site_hse06_10hf_magmom
 _atom_site_hse06_bader_spin_density
 _atom_site_hse06_ddec_charge
 _atom_site_hse06_ddec_spin_density
 _atom_site_hse06_ddec_sum_bond_order
 _atom_site_hse06_magmom
 _atom_site_pbe_bader_spin_density
 _atom_site_pbe_cm5_charge
 _atom_site_pbe_ddec_charge
 _atom_site_pbe_ddec_spin_density
 _atom_site_pbe_ddec_sum_bond_order
 _atom_site_pbe_magmom
La  La0  1  0.25174263  0.04909699  0.96980726  1  0  2.102928  0  1.805634  0  0  1.983386  0  2.323461  0  0  2.085809  0  2.226179  0  0  1.418899  1.906602  0  2.391743  0
La  La1  1  0.74825525  0.95090325  0.03019257  1  0  2.102974  0  1.805533  0  0  1.983451  0  2.323344  0  0  2.085869  0  2.226072  0  0  1.418928  1.906656  0  2.391662  0
H  H2  1  0.48691262  0.23883121  0.34183993  1  0  0.073094  0  0.900357  0  0  0.089049  0  0.950705  0  0  0.090474  0  0.950493  0  0  0.103878  0.08825  0  0.950876  0
H  H3  1  0.51308764  0.76117021  0.65816221  1  0  0.073072  0  0.90036  0  0  0.089031  0  0.950708  0  0  0.090457  0  0.950493  0  0  0.103873  0.088234  0  0.950879  0
H  H4  1  0.71327239  0.37858565  0.18842995  1  0  0.068448  0  0.952019  0  0  0.083506  0  1.019131  0  0  0.085872  0  1.017093  0  0  0.091495  0.081816  0  1.020581  0
H  H5  1  0.28672912  0.62141578  0.81156925  1  0  0.06852  0  0.951924  0  0  0.083564  0  1.019064  0  0  0.085932  0  1.017022  0  0  0.091522  0.081869  0  1.020523  0
H  H6  1  0.56678359  0.51843587  0.09628365  1  0  0.069571  0  0.931961  0  0  0.089786  0  0.991356  0  0  0.09021  0  0.992662  0  0  0.093163  0.08925  0  0.991025  0
H  H7  1  0.43321419  0.48156554  0.90371682  1  0  0.069557  0  0.931944  0  0  0.089783  0  0.991337  0  0  0.09021  0  0.992638  0  0  0.093171  0.089242  0  0.991007  0
H  H8  1  0.67539809  0.62339951  0.26336580  1  0  0.072077  0  0.968715  0  0  0.084055  0  1.041238  0  0  0.085519  0  1.040741  0  0  0.097584  0.083086  0  1.041559  0
H  H9  1  0.32460093  0.37660191  0.73663456  1  0  0.072102  0  0.968689  0  0  0.08407  0  1.041225  0  0  0.085535  0  1.040726  0  0  0.097589  0.083098  0  1.041545  0
H  H10  1  0.61404551  0.45569659  0.39204742  1  0  0.062856  0  0.94431  0  0  0.083745  0  1.004594  0  0  0.08428  0  1.005404  0  0  0.089513  0.083157  0  1.004584  0
H  H11  1  0.38595353  0.54430483  0.60795011  1  0  0.062878  0  0.944247  0  0  0.083729  0  1.004574  0  0  0.084265  0  1.005385  0  0  0.089502  0.083127  0  1.004582  0
H  H12  1  0.40843215  0.67097038  0.39056136  1  0  0.077452  0  0.909774  0  0  0.092816  0  0.962815  0  0  0.094329  0  0.96252  0  0  0.107679  0.091502  0  0.963478  0
H  H13  1  0.59156811  0.32903104  0.60944077  1  0  0.077457  0  0.909753  0  0  0.092811  0  0.962808  0  0  0.094323  0  0.962514  0  0  0.10768  0.091493  0  0.96347  0
H  H14  1  0.29482616  0.41467279  0.45334292  1  0  0.07244  0  0.931261  0  0  0.091057  0  0.994165  0  0  0.092046  0  0.994215  0  0  0.091765  0.090105  0  0.994401  0
H  H15  1  0.70517029  0.58532980  0.54665641  1  0  0.072471  0  0.931244  0  0  0.091067  0  0.994181  0  0  0.092048  0  0.994237  0  0  0.091778  0.090116  0  0.994414  0
H  H16  1  0.14951548  0.55394629  0.35966652  1  0  0.071956  0  0.940908  0  0  0.088756  0  1.002894  0  0  0.090664  0  1.00181  0  0  0.090725  0.087453  0  1.003491  0
H  H17  1  0.85048469  0.44605631  0.64033343  1  0  0.071901  0  0.941003  0  0  0.088773  0  1.002913  0  0  0.09068  0  1.001827  0  0  0.090722  0.087469  0  1.003509  0
H  H18  1  0.19019970  0.31079395  0.28755135  1  0  0.069844  0  0.965155  0  0  0.087114  0  1.028841  0  0  0.088163  0  1.028725  0  0  0.091105  0.08642  0  1.028913  0
H  H19  1  0.80979932  0.68920747  0.71244901  1  0  0.069839  0  0.965155  0  0  0.087106  0  1.028828  0  0  0.088156  0  1.028711  0  0  0.091107  0.086417  0  1.028898  0
H  H20  1  0.25322600  0.47520751  0.15629871  1  0  0.06544  0  0.942753  0  0  0.083474  0  1.005178  0  0  0.084979  0  1.004346  0  0  0.089276  0.082324  0  1.006046  0
H  H21  1  0.74677436  0.52479274  0.84370185  1  0  0.065449  0  0.942834  0  0  0.083471  0  1.00524  0  0  0.084975  0  1.004409  0  0  0.089274  0.082319  0  1.006111  0
H  H22  1  0.85753896  0.97718762  0.67577885  1  0  0.080247  0  0.915448  0  0  0.091285  0  0.97156  0  0  0.093106  0  0.971515  0  0  0.106466  0.090116  0  0.971514  0
H  H23  1  0.14245920  0.02280910  0.32422189  1  0  0.08025  0  0.915467  0  0  0.091274  0  0.971583  0  0  0.093094  0  0.97154  0  0  0.106485  0.090106  0  0.971539  0
H  H24  1  0.10376368  0.19975705  0.48636525  1  0  0.074217  0  0.950146  0  0  0.092435  0  1.012998  0  0  0.093541  0  1.01295  0  0  0.092412  0.091615  0  1.013031  0
H  H25  1  0.89623688  0.80024085  0.51363403  1  0  0.074204  0  0.95016  0  0  0.092425  0  1.013009  0  0  0.09353  0  1.012962  0  0  0.092402  0.091606  0  1.01304  0
H  H26  1  0.89860595  0.25524820  0.53841880  1  0  0.06582  0  0.94587  0  0  0.085694  0  1.005636  0  0  0.085938  0  1.006662  0  0  0.089537  0.085587  0  1.00476  0
H  H27  1  0.10139460  0.74474970  0.46158142  1  0  0.065815  0  0.94586  0  0  0.085692  0  1.005622  0  0  0.085936  0  1.006646  0  0  0.089534  0.085584  0  1.00475  0
H  H28  1  0.08515351  0.77157023  0.69092290  1  0  0.070281  0  0.935538  0  0  0.089382  0  0.994502  0  0  0.09066  0  0.994021  0  0  0.093431  0.088012  0  0.995618  0
H  H29  1  0.91484704  0.22842767  0.30907638  1  0  0.070289  0  0.935506  0  0  0.089395  0  0.994481  0  0  0.090675  0  0.993996  0  0  0.093428  0.088021  0  0.995597  0
H  H30  1  0.21885349  0.90561570  0.57805947  1  0  0.070228  0  0.920381  0  0  0.089507  0  0.979261  0  0  0.090742  0  0.979014  0  0  0.092723  0.088533  0  0.979596  0
H  H31  1  0.78114706  0.09438220  0.42193980  1  0  0.070198  0  0.92043  0  0  0.089493  0  0.979303  0  0  0.090727  0  0.979059  0  0  0.092724  0.088517  0  0.979639  0
H  H32  1  0.08383892  0.42629869  0.88929912  1  0  0.426785  0  0.830028  0  0  0.41334  0  0.878152  0  0  0.42138  0  0.866522  0  0  0.327305  0.407467  0  0.886696  0
H  H33  1  0.91615394  0.57370152  0.11071528  1  0  0.4269  0  0.82987  0  0  0.413439  0  0.878029  0  0  0.421484  0  0.86639  0  0  0.327331  0.407567  0  0.886573  0
H  H34  1  0.95114765  0.31215676  0.88067640  1  0  0.442778  0  0.851226  0  0  0.411192  0  0.91593  0  0  0.422701  0  0.899096  0  0  0.308408  0.402858  0  0.928126  0
H  H35  1  0.04885264  0.68784467  0.11931820  1  0  0.442817  0  0.851166  0  0  0.411233  0  0.915864  0  0  0.422737  0  0.899035  0  0  0.308435  0.402902  0  0.928054  0
C  C36  1  0.47100279  0.21212588  0.15366439  1  0  0.709098  0  3.810556  0  0  0.664587  0  4.113541  0  0  0.700534  0  4.105126  0  0  0.233018  0.639524  0  4.118657  0
C  C37  1  0.52900379  0.78787439  0.84633657  1  0  0.709133  0  3.81049  0  0  0.66461  0  4.113511  0  0  0.700557  0  4.105097  0  0  0.233096  0.63957  0  4.118599  0
C  C38  1  0.45739228  0.31807296  0.24249071  1  0  -0.116587  0  3.639334  0  0  -0.114217  0  3.874845  0  0  -0.119566  0  3.8881  0  0  -0.088033  -0.11064  0  3.865639  0
C  C39  1  0.54260798  0.68192846  0.75751049  1  0  -0.116556  0  3.639324  0  0  -0.114203  0  3.874841  0  0  -0.119553  0  3.888096  0  0  -0.088032  -0.110634  0  3.865643  0
C  C40  1  0.58946468  0.43968236  0.19690406  1  0  -0.11781  0  3.663976  0  0  -0.16414  0  3.926535  0  0  -0.165043  0  3.94046  0  0  -0.163534  -0.163246  0  3.916908  0
C  C41  1  0.41053443  0.56031788  0.80309661  1  0  -0.117854  0  3.663757  0  0  -0.164193  0  3.926347  0  0  -0.165097  0  3.940272  0  0  -0.163584  -0.163295  0  3.916725  0
C  C42  1  0.58249048  0.53527113  0.29403239  1  0  -0.117724  0  3.663852  0  0  -0.163867  0  3.925074  0  0  -0.164607  0  3.939618  0  0  -0.160093  -0.163195  0  3.915305  0
C  C43  1  0.41750971  0.46473147  0.70596284  1  0  -0.117728  0  3.66366  0  0  -0.163836  0  3.924879  0  0  -0.164579  0  3.939421  0  0  -0.160061  -0.163144  0  3.915099  0
C  C44  1  0.40717430  0.61466072  0.31191042  1  0  -0.115704  0  3.636149  0  0  -0.117053  0  3.8808  0  0  -0.122383  0  3.894291  0  0  -0.084106  -0.113596  0  3.871949  0
C  C45  1  0.59282722  0.38534070  0.68808972  1  0  -0.115713  0  3.636068  0  0  -0.117056  0  3.880705  0  0  -0.122388  0  3.894201  0  0  -0.084115  -0.113596  0  3.871836  0
C  C46  1  0.27444346  0.49449028  0.35275729  1  0  -0.127126  0  3.689995  0  0  -0.177103  0  3.959021  0  0  -0.177379  0  3.9718  0  0  -0.169594  -0.176624  0  3.950071  0
C  C47  1  0.72555662  0.50551349  0.64724236  1  0  -0.127179  0  3.689976  0  0  -0.17722  0  3.959031  0  0  -0.177487  0  3.971795  0  0  -0.169636  -0.176753  0  3.950089  0
C  C48  1  0.28325004  0.39855871  0.25561930  1  0  -0.120686  0  3.69034  0  0  -0.166925  0  3.948448  0  0  -0.166837  0  3.960876  0  0  -0.170101  -0.166724  0  3.939732  0
C  C49  1  0.71675156  0.60144153  0.74438303  1  0  -0.120681  0  3.690307  0  0  -0.166869  0  3.94837  0  0  -0.166776  0  3.960792  0  0  -0.170099  -0.16667  0  3.939654  0
C  C50  1  0.36676827  0.75173268  0.18956162  1  0  0.705686  0  3.777705  0  0  0.660093  0  4.071578  0  0  0.694977  0  4.066329  0  0  0.23209  0.635961  0  4.074375  0
C  C51  1  0.63323199  0.24826874  0.81044052  1  0  0.705718  0  3.777649  0  0  0.660176  0  4.071459  0  0  0.695061  0  4.066213  0  0  0.232168  0.636061  0  4.074212  0
C  C52  1  0.06180606  0.04577916  0.74876158  1  0  0.692933  0  3.812505  0  0  0.649627  0  4.110229  0  0  0.684747  0  4.104386  0  0  0.216106  0.62523  0  4.113609  0
C  C53  1  0.93818980  0.95421520  0.25123998  1  0  0.693014  0  3.812418  0  0  0.649677  0  4.11018  0  0  0.684798  0  4.104334  0  0  0.216145  0.625283  0  4.113559  0
C  C54  1  0.98416524  0.01425089  0.63737736  1  0  -0.120509  0  3.636889  0  0  -0.117864  0  3.872674  0  0  -0.123474  0  3.885827  0  0  -0.085397  -0.114195  0  3.86405  0
C  C55  1  0.01583407  0.98574701  0.36262297  1  0  -0.120467  0  3.636789  0  0  -0.117792  0  3.872581  0  0  -0.123402  0  3.885735  0  0  -0.085402  -0.114131  0  3.863966  0
C  C56  1  0.97728023  0.15896296  0.51399552  1  0  -0.115637  0  3.67933  0  0  -0.163601  0  3.939575  0  0  -0.163899  0  3.953714  0  0  -0.164905  -0.163164  0  3.92961  0
C  C57  1  0.02271917  0.84103376  0.48600700  1  0  -0.115675  0  3.679353  0  0  -0.163651  0  3.939593  0  0  -0.163948  0  3.953732  0  0  -0.164919  -0.163208  0  3.929633  0
C  C58  1  0.08769540  0.87603691  0.60246721  1  0  -0.105399  0  3.645619  0  0  -0.151918  0  3.908914  0  0  -0.152461  0  3.922151  0  0  -0.15662  -0.151359  0  3.900211  0
C  C59  1  0.91230401  0.12395981  0.39753248  1  0  -0.105368  0  3.645552  0  0  -0.151925  0  3.908883  0  0  -0.152472  0  3.922128  0  0  -0.15661  -0.151357  0  3.900171  0
O  O60  1  0.00700128  0.97539501  0.87074719  1  0  -0.765384  0  2.044621  0  0  -0.717068  0  2.312931  0  0  -0.756712  0  2.306224  0  0  -0.436207  -0.68804  0  2.316621  0
O  O61  1  0.99299536  0.02460523  0.12925180  1  0  -0.765453  0  2.044452  0  0  -0.717122  0  2.312763  0  0  -0.75677  0  2.306055  0  0  -0.436243  -0.688091  0  2.316448  0
O  O62  1  0.33797444  0.19126352  0.10937485  1  0  -0.705007  0  2.00113  0  0  -0.664541  0  2.267244  0  0  -0.698542  0  2.25784  0  0  -0.397633  -0.639814  0  2.272808  0
O  O63  1  0.66202477  0.80873554  0.89062801  1  0  -0.705077  0  2.001255  0  0  -0.664596  0  2.267369  0  0  -0.698598  0  2.257971  0  0  -0.397675  -0.639878  0  2.272929  0
O  O64  1  0.22503627  0.77104079  0.14397130  1  0  -0.667715  0  2.034656  0  0  -0.608233  0  2.26954  0  0  -0.639793  0  2.263292  0  0  -0.335761  -0.585523  0  2.273105  0
O  O65  1  0.77496141  0.22896179  0.85602981  1  0  -0.667596  0  2.034656  0  0  -0.608205  0  2.269606  0  0  -0.639771  0  2.263364  0  0  -0.335758  -0.585503  0  2.273155  0
O  O66  1  0.61463026  0.15008149  0.13047984  1  0  -0.687345  0  2.02375  0  0  -0.647792  0  2.284019  0  0  -0.681019  0  2.276069  0  0  -0.384965  -0.623521  0  2.288412  0
O  O67  1  0.38536540  0.84991522  0.86952300  1  0  -0.687349  0  2.023588  0  0  -0.647791  0  2.28386  0  0  -0.681021  0  2.275913  0  0  -0.385006  -0.623525  0  2.288243  0
O  O68  1  0.18241731  0.13216088  0.72413941  1  0  -0.643802  0  1.913194  0  0  -0.606439  0  2.149794  0  0  -0.635402  0  2.140692  0  0  -0.355866  -0.585668  0  2.155305  0
O  O69  1  0.81758564  0.86783821  0.27585841  1  0  -0.643831  0  1.913311  0  0  -0.606474  0  2.149954  0  0  -0.635433  0  2.140847  0  0  -0.355878  -0.585704  0  2.155471  0
O  O70  1  0.47544330  0.85283556  0.13685685  1  0  -0.761325  0  2.078773  0  0  -0.708468  0  2.344112  0  0  -0.747227  0  2.337748  0  0  -0.406428  -0.680589  0  2.347489  0
O  O71  1  0.52455590  0.14716350  0.86314600  1  0  -0.761382  0  2.078702  0  0  -0.70853  0  2.34402  0  0  -0.747289  0  2.337656  0  0  -0.4065  -0.680656  0  2.347377  0
O  O72  1  0.05766050  0.31727873  0.91646574  1  0  -0.856469  0  1.803388  0  0  -0.81466  0  1.978747  0  0  -0.83632  0  1.94697  0  0  -0.597329  -0.798967  0  2.001336  0
O  O73  1  0.94234764  0.68271802  0.08352282  1  0  -0.856601  0  1.803165  0  0  -0.814807  0  1.978526  0  0  -0.836471  0  1.946756  0  0  -0.597385  -0.799115  0  2.001112  0
