# generated using pymatgen
data_ZnH21C20N4O5
_symmetry_space_group_name_H-M   'P 1'
_cell_length_a   8.12692814
_cell_length_b   17.32127783
_cell_length_c   17.42351703
_cell_angle_alpha   90.00000638
_cell_angle_beta   89.99991303
_cell_angle_gamma   97.79741365
_symmetry_Int_Tables_number   1
_chemical_formula_structural   ZnH21C20N4O5
_chemical_formula_sum   'Zn4 H84 C80 N16 O20'
_cell_volume   2430.00960858
_cell_formula_units_Z   4
loop_
 _symmetry_equiv_pos_site_id
 _symmetry_equiv_pos_as_xyz
  1  'x, y, z'
loop_
 _atom_site_type_symbol
 _atom_site_label
 _atom_site_symmetry_multiplicity
 _atom_site_fract_x
 _atom_site_fract_y
 _atom_site_fract_z
 _atom_site_occupancy
 _atom_site_pbe_bader_charge
 _atom_site_pbe_bader_spin_density
 _atom_site_pbe_cm5_charge
 _atom_site_pbe_ddec_charge
 _atom_site_pbe_ddec_spin_density
 _atom_site_pbe_ddec_sum_bond_order
 _atom_site_pbe_magmom
Zn  Zn0  1  0.39010445  0.26666344  0.19053661  1  1.253992  0  0.689671  0.776875  0  2.441596  0
Zn  Zn1  1  0.10989499  0.23333669  0.69053679  1  1.253856  0  0.689664  0.776883  0  2.441574  0
Zn  Zn2  1  0.60989692  0.73333686  0.80946326  1  1.254005  0  0.689659  0.776855  0  2.441587  0
Zn  Zn3  1  0.89010515  0.76666361  0.30946423  1  1.253859  0  0.689691  0.776921  0  2.44153  0
H  H4  1  0.66219227  0.49032625  0.21705241  1  0.102129  0  0.098685  0.108659  0  1.033653  0
H  H5  1  0.83780459  0.00967137  0.71705241  1  0.102164  0  0.098688  0.108644  0  1.033612  0
H  H6  1  0.33780805  0.50967464  0.78294689  1  0.102122  0  0.098687  0.108649  0  1.033671  0
H  H7  1  0.16219555  0.99032893  0.28294918  1  0.102183  0  0.098671  0.108605  0  1.033648  0
H  H8  1  0.14288791  0.61418511  0.16255958  1  0.1054  0  0.106915  0.125116  0  1.010603  0
H  H9  1  0.35710627  0.88581440  0.66255904  1  0.10536  0  0.106912  0.125085  0  1.010697  0
H  H10  1  0.85711347  0.38581519  0.83744086  1  0.10541  0  0.106901  0.125113  0  1.010625  0
H  H11  1  0.64289387  0.11418590  0.33744141  1  0.105356  0  0.106903  0.125075  0  1.010696  0
H  H12  1  0.99860794  0.38041316  0.07698011  1  0.090094  0  0.102768  0.112441  0  1.043659  0
H  H13  1  0.50139113  0.11958622  0.57698035  1  0.090112  0  0.102773  0.112434  0  1.043617  0
H  H14  1  0.00139009  0.61958831  0.92301804  1  0.090073  0  0.102735  0.112391  0  1.043656  0
H  H15  1  0.49861025  0.88041408  0.42302009  1  0.090101  0  0.102768  0.112401  0  1.043633  0
H  H16  1  0.03503355  0.45695468  0.32954197  1  0.146695  0  0.12929  0.132253  0  0.983918  0
H  H17  1  0.46496297  0.04304545  0.82954246  1  0.146696  0  0.129286  0.132261  0  0.983919  0
H  H18  1  0.96496765  0.54304504  0.67045790  1  0.146685  0  0.129283  0.132259  0  0.983887  0
H  H19  1  0.53503471  0.95695486  0.17045913  1  0.146701  0  0.129294  0.132266  0  0.983933  0
H  H20  1  0.33960314  0.43382002  0.26500955  1  0.124926  0  0.12627  0.130086  0  0.98581  0
H  H21  1  0.16039342  0.06617953  0.76501025  1  0.124907  0  0.126263  0.13008  0  0.9858  0
H  H22  1  0.66039700  0.56618029  0.73499033  1  0.124928  0  0.126272  0.130087  0  0.985807  0
H  H23  1  0.83960515  0.93381961  0.23499135  1  0.12491  0  0.126252  0.130085  0  0.985776  0
H  H24  1  0.00944272  0.22434230  0.25047871  1  0.164687  0  0.143679  0.122723  0  0.983885  0
H  H25  1  0.49055741  0.27565666  0.75047921  1  0.164714  0  0.143678  0.122741  0  0.983882  0
H  H26  1  0.99055831  0.77565684  0.74952058  1  0.164708  0  0.143673  0.122693  0  0.983909  0
H  H27  1  0.50944239  0.72434248  0.24952009  1  0.164721  0  0.143671  0.122764  0  0.983822  0
H  H28  1  0.75071359  0.37459640  0.32631562  1  0.067502  0  0.114059  0.097161  0  0.973122  0
H  H29  1  0.74928342  0.12540296  0.82631512  1  0.067502  0  0.114069  0.097173  0  0.973116  0
H  H30  1  0.24928497  0.62540275  0.67368368  1  0.067512  0  0.114059  0.09715  0  0.973107  0
H  H31  1  0.25071532  0.87459676  0.17368361  1  0.067515  0  0.114054  0.097144  0  0.973121  0
H  H32  1  0.72977213  0.28115377  0.28404115  1  0.111759  0  0.117496  0.113254  0  0.98679  0
H  H33  1  0.77022643  0.21884617  0.78404179  1  0.111785  0  0.117458  0.113185  0  0.986924  0
H  H34  1  0.27022890  0.71884537  0.71595758  1  0.111793  0  0.117471  0.113192  0  0.986929  0
H  H35  1  0.22977248  0.78115413  0.21595808  1  0.111781  0  0.117489  0.113223  0  0.98685  0
H  H36  1  0.87325280  0.31817428  0.44534665  1  0.032661  0  0.0913  0.082896  0  0.998384  0
H  H37  1  0.62674611  0.18182449  0.94534739  1  0.032642  0  0.091297  0.082876  0  0.998375  0
H  H38  1  0.12674700  0.68182486  0.55465265  1  0.032641  0  0.091291  0.082885  0  0.998366  0
H  H39  1  0.37325229  0.81817407  0.05465248  1  0.032668  0  0.091302  0.082884  0  0.998399  0
H  H40  1  0.85455756  0.22665694  0.39954017  1  0.010094  0  0.100418  0.098584  0  0.972808  0
H  H41  1  0.64544044  0.27334241  0.89954148  1  0.010101  0  0.100378  0.09854  0  0.972868  0
H  H42  1  0.14544118  0.77334278  0.60045913  1  0.010091  0  0.100416  0.098576  0  0.972815  0
H  H43  1  0.35455953  0.72665732  0.10045839  1  0.010082  0  0.100384  0.098534  0  0.972885  0
H  H44  1  0.54594532  0.22000285  0.39639051  1  0.062206  0  0.093128  0.096051  0  1.018059  0
H  H45  1  0.95405252  0.27999592  0.89639046  1  0.062221  0  0.093095  0.09601  0  1.01813  0
H  H46  1  0.45405465  0.77999688  0.60360878  1  0.062215  0  0.093123  0.096036  0  1.018073  0
H  H47  1  0.04594587  0.72000264  0.10360884  1  0.062202  0  0.093103  0.096006  0  1.018133  0
H  H48  1  0.63254166  0.22613295  0.49063437  1  0.097204  0  0.098117  0.112084  0  1.006787  0
H  H49  1  0.86745605  0.27386639  0.99063438  1  0.097195  0  0.098105  0.112064  0  1.006826  0
H  H50  1  0.36745814  0.77386619  0.50936493  1  0.097193  0  0.098112  0.112088  0  1.006777  0
H  H51  1  0.13254252  0.72613275  0.00936492  1  0.097188  0  0.098107  0.112067  0  1.006803  0
H  H52  1  0.99311225  0.22236183  0.51757944  1  0.186545  0  0.121207  0.119804  0  1.043492  0
H  H53  1  0.50688227  0.27763815  0.01757952  1  0.186564  0  0.121199  0.119796  0  1.043517  0
H  H54  1  0.00688526  0.77763790  0.48242101  1  0.186552  0  0.121207  0.119819  0  1.043474  0
H  H55  1  0.49311787  0.72236216  0.98242035  1  0.186562  0  0.121205  0.119811  0  1.043507  0
H  H56  1  0.44844069  0.32289871  0.61221495  1  0.175008  0  0.144528  0.117545  0  0.982199  0
H  H57  1  0.05156007  0.17710085  0.11221557  1  0.175009  0  0.144542  0.117569  0  0.982221  0
H  H58  1  0.55155822  0.67710160  0.38778550  1  0.17501  0  0.144533  0.117548  0  0.982187  0
H  H59  1  0.94844131  0.82289946  0.88778488  1  0.174998  0  0.144523  0.117535  0  0.982204  0
H  H60  1  0.50596312  0.36034335  0.40227396  1  0.03768  0  0.112276  0.089552  0  0.97587  0
H  H61  1  0.99403611  0.13965600  0.90227444  1  0.037682  0  0.11227  0.089553  0  0.975868  0
H  H62  1  0.49403545  0.63965579  0.59772648  1  0.037652  0  0.112258  0.089522  0  0.975881  0
H  H63  1  0.00596492  0.86034314  0.09772601  1  0.03768  0  0.112267  0.089527  0  0.975883  0
H  H64  1  0.60984220  0.37015622  0.49234702  1  0.055469  0  0.116131  0.093673  0  0.9544  0
H  H65  1  0.89015673  0.12984312  0.99234756  1  0.055451  0  0.116138  0.093681  0  0.954381  0
H  H66  1  0.39015777  0.62984350  0.50765286  1  0.055463  0  0.116129  0.093663  0  0.9544  0
H  H67  1  0.10984307  0.87015602  0.00765174  1  0.055459  0  0.116114  0.093642  0  0.954367  0
H  H68  1  0.21863261  0.26695471  0.39743979  1  0.10097  0  0.12262  0.125144  0  1.030087  0
H  H69  1  0.28136632  0.23304599  0.89743928  1  0.100948  0  0.12263  0.125125  0  1.030139  0
H  H70  1  0.78136719  0.73304443  0.60256008  1  0.100927  0  0.122623  0.125136  0  1.030124  0
H  H71  1  0.71863348  0.76695315  0.10256060  1  0.100952  0  0.122593  0.125111  0  1.030158  0
H  H72  1  0.22165118  0.43438327  0.98731209  1  0.051751  0  0.096075  0.064322  0  0.98183  0
H  H73  1  0.27834957  0.06561625  0.48731139  1  0.051742  0  0.096088  0.064351  0  0.981827  0
H  H74  1  0.77834879  0.56561646  0.01268835  1  0.051741  0  0.09608  0.064339  0  0.981857  0
H  H75  1  0.72165163  0.93438347  0.51268848  1  0.051741  0  0.096074  0.064358  0  0.981833  0
H  H76  1  0.27131349  0.39084200  0.07617398  1  0.054302  0  0.093873  0.054571  0  1.024583  0
H  H77  1  0.22868633  0.10915814  0.57617349  1  0.054308  0  0.093854  0.054575  0  1.024585  0
H  H78  1  0.72868490  0.60915656  0.92382646  1  0.054111  0  0.093858  0.054548  0  1.024618  0
H  H79  1  0.77131381  0.89084216  0.42382638  1  0.054279  0  0.093857  0.054557  0  1.024593  0
H  H80  1  0.54345381  0.47242590  0.08040323  1  0.047269  0  0.090875  0.092949  0  1.017755  0
H  H81  1  0.95654789  0.02757406  0.58040315  1  0.047295  0  0.090882  0.092945  0  1.017758  0
H  H82  1  0.45654828  0.52757265  0.91959664  1  0.047296  0  0.090874  0.092927  0  1.017793  0
H  H83  1  0.04345366  0.97242683  0.41959672  1  0.047278  0  0.090874  0.092961  0  1.017752  0
H  H84  1  0.52226453  0.41344928  0.99742418  1  0.017139  0  0.092359  0.090737  0  0.999683  0
H  H85  1  0.97773438  0.08655006  0.49742334  1  0.017055  0  0.092359  0.090716  0  0.99968  0
H  H86  1  0.47773281  0.58654986  0.00257627  1  0.0171  0  0.092362  0.090755  0  0.999702  0
H  H87  1  0.02226699  0.91345025  0.50257653  1  0.017104  0  0.092361  0.090752  0  0.999705  0
C  C88  1  0.85289431  0.62873181  0.23734332  1  1.55974  0  0.191028  0.564311  0  4.222719  0
C  C89  1  0.64709905  0.87126752  0.73734292  1  1.558943  0  0.190935  0.564062  0  4.223015  0
C  C90  1  0.14710689  0.37126791  0.76265713  1  1.559735  0  0.191012  0.564258  0  4.222813  0
C  C91  1  0.35290021  0.12873395  0.26265925  1  1.559108  0  0.190941  0.564036  0  4.223055  0
C  C92  1  0.89691761  0.55986567  0.19348878  1  -0.019916  0  -0.028426  -0.027654  0  4.038863  0
C  C93  1  0.60308047  0.94013250  0.69348956  1  -0.019997  0  -0.028412  -0.027518  0  4.038731  0
C  C94  1  0.10308359  0.44013406  0.80651052  1  -0.019902  0  -0.028409  -0.02762  0  4.038832  0
C  C95  1  0.39692091  0.05986781  0.30651146  1  -0.020085  0  -0.028364  -0.027415  0  4.038637  0
C  C96  1  0.78191440  0.49214441  0.18877450  1  -0.070391  0  -0.099473  -0.156464  0  3.99437  0
C  C97  1  0.71808150  0.00785380  0.68877458  1  -0.070354  0  -0.099464  -0.156443  0  3.994152  0
C  C98  1  0.21808469  0.50785648  0.81122423  1  -0.07038  0  -0.099432  -0.156367  0  3.994317  0
C  C99  1  0.28191987  0.99214650  0.31122529  1  -0.07033  0  -0.099464  -0.15641  0  3.994312  0
C  C100  1  0.82066316  0.42793510  0.14742921  1  -0.055113  0  -0.023396  -0.017036  0  4.005505  0
C  C101  1  0.67933550  0.07206370  0.64742933  1  -0.055104  0  -0.02344  -0.017074  0  4.005473  0
C  C102  1  0.17933610  0.57206638  0.85256894  1  -0.055137  0  -0.023488  -0.017104  0  4.005521  0
C  C103  1  0.32066587  0.92793661  0.35257169  1  -0.055079  0  -0.023438  -0.017161  0  4.005667  0
C  C104  1  0.08924504  0.49878167  0.11482239  1  0.442729  0  0.081014  0.253318  0  4.097009  0
C  C105  1  0.41075307  0.00121731  0.61482234  1  0.442631  0  0.080988  0.253253  0  4.096983  0
C  C106  1  0.91075527  0.50121922  0.88517633  1  0.442668  0  0.080958  0.253209  0  4.097067  0
C  C107  1  0.58924813  0.99878241  0.38517811  1  0.44274  0  0.081009  0.253278  0  4.097093  0
C  C108  1  0.05079277  0.56266748  0.15741542  1  -0.048325  0  -0.097332  -0.211529  0  3.956201  0
C  C109  1  0.44920372  0.93733145  0.65741596  1  -0.04821  0  -0.097308  -0.211503  0  3.956149  0
C  C110  1  0.94920615  0.43733283  0.84258445  1  -0.048216  0  -0.097309  -0.211516  0  3.956209  0
C  C111  1  0.55079748  0.06266827  0.34258506  1  -0.048209  0  -0.097347  -0.211591  0  3.956222  0
C  C112  1  0.97360330  0.43125314  0.10936623  1  0.040003  0  -0.103085  -0.229301  0  3.953853  0
C  C113  1  0.52639672  0.06874566  0.60936646  1  0.040035  0  -0.103082  -0.229292  0  3.953842  0
C  C114  1  0.02639596  0.56874834  0.89063192  1  0.040015  0  -0.102972  -0.229198  0  3.953827  0
C  C115  1  0.47360342  0.93125465  0.39063456  1  0.039993  0  -0.103036  -0.229171  0  3.953885  0
C  C116  1  0.69786124  0.35457271  0.14356608  1  1.57433  0  0.198317  0.564294  0  4.229182  0
C  C117  1  0.80213656  0.14542725  0.64356669  1  1.574325  0  0.198351  0.564303  0  4.229288  0
C  C118  1  0.30213785  0.64542818  0.85643264  1  1.574323  0  0.198318  0.564252  0  4.229165  0
C  C119  1  0.19786499  0.85457364  0.35643433  1  1.574332  0  0.198355  0.564329  0  4.229119  0
C  C120  1  0.07739092  0.40563117  0.30507904  1  0.231677  0  0.005989  -0.105384  0  3.942717  0
C  C121  1  0.42260551  0.09436837  0.80508014  1  0.23164  0  0.006023  -0.105395  0  3.94285  0
C  C122  1  0.92260905  0.59436855  0.69492083  1  0.231708  0  0.006031  -0.105354  0  3.942785  0
C  C123  1  0.57739217  0.90563194  0.19492203  1  0.231626  0  0.00598  -0.105432  0  3.942846  0
C  C124  1  0.22651183  0.39363380  0.27315719  1  0.454663  0  -0.002368  -0.041887  0  4.007985  0
C  C125  1  0.27348734  0.10636633  0.77315839  1  0.454656  0  -0.002328  -0.041856  0  4.008096  0
C  C126  1  0.77348814  0.60636593  0.72684211  1  0.454659  0  -0.002397  -0.041941  0  4.008031  0
C  C127  1  0.72651281  0.89363397  0.22684320  1  0.454735  0  -0.002317  -0.041887  0  4.007945  0
C  C128  1  0.05885925  0.28445541  0.26262263  1  0.966823  0  0.145814  0.086636  0  3.908717  0
C  C129  1  0.44113978  0.21554414  0.76262315  1  0.96673  0  0.145788  0.086563  0  3.908748  0
C  C130  1  0.94114195  0.71554431  0.73737667  1  0.966723  0  0.145799  0.086609  0  3.908716  0
C  C131  1  0.55885808  0.78445675  0.23737901  1  0.967107  0  0.145758  0.086477  0  3.908795  0
C  C132  1  0.80217788  0.31920702  0.32577323  1  0.285396  0  -0.052248  -0.073497  0  3.862604  0
C  C133  1  0.69782037  0.18079233  0.82577392  1  0.285335  0  -0.052198  -0.073475  0  3.862656  0
C  C134  1  0.19782086  0.68079270  0.67422607  1  0.285365  0  -0.052182  -0.07343  0  3.862684  0
C  C135  1  0.30217961  0.81920739  0.17422653  1  0.285335  0  -0.052223  -0.07349  0  3.862594  0
C  C136  1  0.79660423  0.28031549  0.40456329  1  -0.00853  0  -0.160466  -0.160199  0  3.944422  0
C  C137  1  0.70339376  0.21968386  0.90456455  1  -0.008496  0  -0.160452  -0.160121  0  3.944387  0
C  C138  1  0.20339188  0.71968365  0.59543658  1  -0.008545  0  -0.160503  -0.160208  0  3.944401  0
C  C139  1  0.29660604  0.78031528  0.09543589  1  -0.008494  0  -0.160465  -0.160156  0  3.944332  0
C  C140  1  0.62201113  0.25842699  0.43683640  1  -0.038052  0  -0.16689  -0.179721  0  3.914246  0
C  C141  1  0.87798799  0.24157236  0.93683697  1  -0.038041  0  -0.16683  -0.179655  0  3.914301  0
C  C142  1  0.37798762  0.74157274  0.56316347  1  -0.037873  0  -0.166861  -0.179701  0  3.914145  0
C  C143  1  0.12201164  0.75842620  0.06316348  1  -0.037822  0  -0.166814  -0.179627  0  3.914164  0
C  C144  1  0.12165526  0.24891476  0.51804750  1  0.393534  0  0.001065  -0.037165  0  4.009655  0
C  C145  1  0.37834476  0.25108539  0.01804675  1  0.393083  0  0.001036  -0.037195  0  4.009588  0
C  C146  1  0.87834348  0.75108496  0.48195237  1  0.393546  0  0.001044  -0.037216  0  4.009695  0
C  C147  1  0.62165645  0.74891433  0.98195312  1  0.393535  0  0.00102  -0.037227  0  4.009653  0
C  C148  1  0.35420616  0.30078348  0.57080313  1  0.951223  0  0.149519  0.097058  0  3.89963  0
C  C149  1  0.14579350  0.19921608  0.07080254  1  0.951446  0  0.149497  0.097008  0  3.899727  0
C  C150  1  0.64579398  0.69921682  0.42919731  1  0.951326  0  0.149547  0.097114  0  3.899586  0
C  C151  1  0.85420630  0.80078306  0.92919676  1  0.951466  0  0.149519  0.097059  0  3.899662  0
C  C152  1  0.53367428  0.32887202  0.45449131  1  0.315518  0  -0.045784  -0.053785  0  3.890694  0
C  C153  1  0.96632495  0.17112790  0.95449123  1  0.315512  0  -0.045805  -0.053826  0  3.890746  0
C  C154  1  0.46632569  0.67112770  0.54550914  1  0.315399  0  -0.045775  -0.053738  0  3.890674  0
C  C155  1  0.03367485  0.82887124  0.04550864  1  0.315311  0  -0.0458  -0.053756  0  3.890689  0
C  C156  1  0.23024715  0.27144830  0.45930674  1  0.303785  0  -0.000975  -0.11202  0  3.913137  0
C  C157  1  0.26975017  0.22855181  0.95930566  1  0.304232  0  -0.001007  -0.112035  0  3.913232  0
C  C158  1  0.76975282  0.72855142  0.54069370  1  0.303813  0  -0.000983  -0.111999  0  3.913198  0
C  C159  1  0.73024962  0.77144733  0.04069421  1  0.303776  0  -0.000943  -0.111968  0  3.91322  0
C  C160  1  0.29470471  0.44384828  0.04078388  1  0.391562  0  -0.068643  0.040403  0  3.886608  0
C  C161  1  0.20529646  0.05615187  0.54078340  1  0.391565  0  -0.068622  0.040377  0  3.886588  0
C  C162  1  0.70529526  0.55615144  0.95921657  1  0.391774  0  -0.068647  0.040371  0  3.886605  0
C  C163  1  0.79470597  0.94384785  0.45921705  1  0.391582  0  -0.068627  0.040345  0  3.886563  0
C  C164  1  0.47873451  0.46401287  0.02508721  1  0.017071  0  -0.171426  -0.178341  0  3.952144  0
C  C165  1  0.02126548  0.03598728  0.52508686  1  0.017131  0  -0.171404  -0.178267  0  3.952149  0
C  C166  1  0.52126423  0.53598685  0.97491381  1  -0.010373  0  -0.171397  -0.178317  0  3.95212  0
C  C167  1  0.97873607  0.96401361  0.47491358  1  -0.010372  0  -0.171436  -0.178403  0  3.952177  0
N  N168  1  0.21328821  0.31764707  0.24711308  1  -1.244902  0  -0.357669  -0.293815  0  3.612162  0
N  N169  1  0.28671087  0.18235247  0.74711428  1  -1.244906  0  -0.357681  -0.293821  0  3.612257  0
N  N170  1  0.78671176  0.68235265  0.75288622  1  -1.244874  0  -0.357624  -0.293745  0  3.612098  0
N  N171  1  0.71328910  0.81764725  0.25288674  1  -1.244905  0  -0.357629  -0.293743  0  3.612212  0
N  N172  1  0.97284403  0.33624003  0.29751079  1  -1.228266  0  -0.239545  0.043783  0  3.792676  0
N  N173  1  0.52715431  0.16375933  0.79751102  1  -1.228128  0  -0.23957  0.04385  0  3.792741  0
N  N174  1  0.02715454  0.66375911  0.70248851  1  -1.228219  0  -0.239579  0.043825  0  3.792736  0
N  N175  1  0.47284583  0.83624097  0.20248885  1  -1.228593  0  -0.23955  0.04391  0  3.792764  0
N  N176  1  0.20055387  0.26749311  0.58706167  1  -1.240585  0  -0.359886  -0.285856  0  3.630688  0
N  N177  1  0.29944451  0.23250645  0.08706155  1  -1.24055  0  -0.359841  -0.285806  0  3.630622  0
N  N178  1  0.79944487  0.73250661  0.41293820  1  -1.240627  0  -0.359891  -0.285884  0  3.630756  0
N  N179  1  0.70055441  0.76749386  0.91293832  1  -1.240597  0  -0.359853  -0.285834  0  3.630694  0
N  N180  1  0.37642132  0.30444724  0.49378538  1  -1.229899  0  -0.24074  0.043026  0  3.785772  0
N  N181  1  0.12357712  0.19555286  0.99378555  1  -1.230141  0  -0.24072  0.043082  0  3.785912  0
N  N182  1  0.62357830  0.69555132  0.50621449  1  -1.229968  0  -0.240757  0.042987  0  3.785724  0
N  N183  1  0.87642303  0.80444744  0.00621432  1  -1.230121  0  -0.240727  0.043042  0  3.785839  0
O  O184  1  0.56240821  0.35756994  0.18280218  1  -1.186347  0  -0.343999  -0.571037  0  2.350633  0
O  O185  1  0.93758929  0.14242943  0.68280212  1  -1.186209  0  -0.343989  -0.571026  0  2.350615  0
O  O186  1  0.43759054  0.64242978  0.81719712  1  -1.186358  0  -0.343971  -0.571006  0  2.35057  0
O  O187  1  0.06241209  0.85757087  0.31719832  1  -1.186216  0  -0.343972  -0.57101  0  2.350549  0
O  O188  1  0.72909635  0.29700283  0.10557833  1  -1.18894  0  -0.337675  -0.56398  0  2.102586  0
O  O189  1  0.77090491  0.20299596  0.60557839  1  -1.188919  0  -0.337692  -0.563978  0  2.102699  0
O  O190  1  0.27090537  0.70299864  0.89442097  1  -1.18894  0  -0.337685  -0.563955  0  2.102605  0
O  O191  1  0.22909752  0.79700375  0.39442148  1  -1.18893  0  -0.337751  -0.564035  0  2.102563  0
O  O192  1  0.24287233  0.50831921  0.08222674  1  -1.081397  0  -0.185694  -0.20402  0  2.541945  0
O  O193  1  0.25712704  0.99168031  0.58222684  1  -1.081419  0  -0.185713  -0.204015  0  2.541953  0
O  O194  1  0.75712781  0.49168110  0.91777313  1  -1.081409  0  -0.185694  -0.20397  0  2.541905  0
O  O195  1  0.74287540  0.00831941  0.41777360  1  -1.081424  0  -0.185703  -0.203969  0  2.541944  0
O  O196  1  0.71033591  0.62815406  0.26505419  1  -1.186848  0  -0.343753  -0.578305  0  2.10923  0
O  O197  1  0.78965421  0.87184294  0.76505484  1  -1.186781  0  -0.34378  -0.57824  0  2.109401  0
O  O198  1  0.28966424  0.37184624  0.73494511  1  -1.186862  0  -0.343747  -0.578297  0  2.109287  0
O  O199  1  0.21034365  0.12815795  0.23494791  1  -1.186706  0  -0.343798  -0.578223  0  2.109352  0
O  O200  1  0.97122778  0.68731918  0.24370021  1  -1.182291  0  -0.345027  -0.568338  0  2.315027  0
O  O201  1  0.52876521  0.81267898  0.74369873  1  -1.181606  0  -0.344893  -0.568193  0  2.315049  0
O  O202  1  0.02877113  0.31268113  0.75629967  1  -1.182295  0  -0.345017  -0.568316  0  2.315061  0
O  O203  1  0.47123493  0.18732132  0.25630114  1  -1.181829  0  -0.344875  -0.568194  0  2.315171  0
