# generated using pymatgen
data_CdH16C16(IN4)2
_symmetry_space_group_name_H-M   'P 1'
_cell_length_a   8.15102792
_cell_length_b   8.79888934
_cell_length_c   16.53739018
_cell_angle_alpha   90.00006787
_cell_angle_beta   90.00000250
_cell_angle_gamma   116.06261401
_symmetry_Int_Tables_number   1
_chemical_formula_structural   CdH16C16(IN4)2
_chemical_formula_sum   'Cd2 H32 C32 I4 N16'
_cell_volume   1065.45618469
_cell_formula_units_Z   2
loop_
 _symmetry_equiv_pos_site_id
 _symmetry_equiv_pos_as_xyz
  1  'x, y, z'
loop_
 _atom_site_type_symbol
 _atom_site_label
 _atom_site_symmetry_multiplicity
 _atom_site_fract_x
 _atom_site_fract_y
 _atom_site_fract_z
 _atom_site_occupancy
 _atom_site_hle17_bader_spin_density
 _atom_site_hle17_ddec_charge
 _atom_site_hle17_ddec_spin_density
 _atom_site_hle17_ddec_sum_bond_order
 _atom_site_hle17_magmom
 _atom_site_hse06_10hf_bader_spin_density
 _atom_site_hse06_10hf_ddec_charge
 _atom_site_hse06_10hf_ddec_spin_density
 _atom_site_hse06_10hf_ddec_sum_bond_order
 _atom_site_hse06_10hf_magmom
 _atom_site_hse06_bader_spin_density
 _atom_site_hse06_ddec_charge
 _atom_site_hse06_ddec_spin_density
 _atom_site_hse06_ddec_sum_bond_order
 _atom_site_hse06_magmom
 _atom_site_pbe_bader_spin_density
 _atom_site_pbe_cm5_charge
 _atom_site_pbe_ddec_charge
 _atom_site_pbe_ddec_spin_density
 _atom_site_pbe_ddec_sum_bond_order
 _atom_site_pbe_magmom
Cd  Cd0  1  0.99999983  0.49999923  0.49999985  1  0  0.843077  0  1.983183  0  0  0.660526  0  2.418066  0  0  0.710492  0  2.382989  0  0  0.617641  0.62593  0  2.441264  0
Cd  Cd1  1  0.99999887  0.00000143  0.00000062  1  0  0.843113  0  1.983137  0  0  0.660572  0  2.417999  0  0  0.710536  0  2.382922  0  0  0.617674  0.625975  0  2.441203  0
H  H2  1  0.52370887  0.32829735  0.44644903  1  0  0.097567  0  0.980941  0  0  0.101185  0  1.057227  0  0  0.104802  0  1.052347  0  0  0.117231  0.098484  0  1.060698  0
H  H3  1  0.47629231  0.17170327  0.94644928  1  0  0.097553  0  0.980911  0  0  0.101169  0  1.057204  0  0  0.104786  0  1.052323  0  0  0.117221  0.098467  0  1.060672  0
H  H4  1  0.47629334  0.67170252  0.55355008  1  0  0.097549  0  0.980969  0  0  0.101167  0  1.05726  0  0  0.104784  0  1.052381  0  0  0.117234  0.09847  0  1.060727  0
H  H5  1  0.52370868  0.82829660  0.05355043  1  0  0.097557  0  0.980934  0  0  0.101177  0  1.05722  0  0  0.104794  0  1.052339  0  0  0.117236  0.098477  0  1.060686  0
H  H6  1  0.86428089  0.08499716  0.42148976  1  0  0.081524  0  0.970637  0  0  0.086829  0  1.043218  0  0  0.089571  0  1.039604  0  0  0.114719  0.084774  0  1.045876  0
H  H7  1  0.13571841  0.41500213  0.92148955  1  0  0.081517  0  0.97065  0  0  0.086814  0  1.043238  0  0  0.089554  0  1.039625  0  0  0.114725  0.084762  0  1.045889  0
H  H8  1  0.13571643  0.91500020  0.57850995  1  0  0.081517  0  0.970671  0  0  0.086806  0  1.043267  0  0  0.089542  0  1.039655  0  0  0.114734  0.084761  0  1.045912  0
H  H9  1  0.86428135  0.58499775  0.07851016  1  0  0.081509  0  0.970648  0  0  0.086798  0  1.043245  0  0  0.089533  0  1.039632  0  0  0.114726  0.084751  0  1.045891  0
H  H10  1  0.22148544  0.06334452  0.42014612  1  0  0.08973  0  0.962911  0  0  0.099556  0  1.037603  0  0  0.101282  0  1.03608  0  0  0.102201  0.098209  0  1.038822  0
H  H11  1  0.77851448  0.43665604  0.92014594  1  0  0.089748  0  0.962881  0  0  0.099576  0  1.037577  0  0  0.101303  0  1.036058  0  0  0.102205  0.098232  0  1.038787  0
H  H12  1  0.77851372  0.93665410  0.57985480  1  0  0.089744  0  0.962916  0  0  0.099559  0  1.037626  0  0  0.101283  0  1.036103  0  0  0.102194  0.098194  0  1.038858  0
H  H13  1  0.22148589  0.56334511  0.07985438  1  0  0.089737  0  0.962914  0  0  0.099554  0  1.037607  0  0  0.101279  0  1.036089  0  0  0.102197  0.098207  0  1.038824  0
H  H14  1  0.23214964  0.87263809  0.39481832  1  0  0.10759  0  0.931538  0  0  0.116763  0  1.003378  0  0  0.117864  0  1.003317  0  0  0.11652  0.115908  0  1.003565  0
H  H15  1  0.76785042  0.62736199  0.89481855  1  0  0.107616  0  0.931506  0  0  0.116776  0  1.00337  0  0  0.117888  0  1.003302  0  0  0.116524  0.115917  0  1.003563  0
H  H16  1  0.76784952  0.12736052  0.60518139  1  0  0.107589  0  0.931568  0  0  0.116749  0  1.00342  0  0  0.117864  0  1.003348  0  0  0.116522  0.115891  0  1.003611  0
H  H17  1  0.23215117  0.37263915  0.10518117  1  0  0.107619  0  0.931537  0  0  0.11675  0  1.003408  0  0  0.117878  0  1.003323  0  0  0.116521  0.115892  0  1.003603  0
H  H18  1  0.50418931  0.08273016  0.23782414  1  0  0.112577  0  0.94853  0  0  0.119521  0  1.011274  0  0  0.123275  0  1.009833  0  0  0.105864  0.116843  0  1.012454  0
H  H19  1  0.49581035  0.41726989  0.73782454  1  0  0.112582  0  0.948511  0  0  0.119524  0  1.011258  0  0  0.123278  0  1.009817  0  0  0.105853  0.116846  0  1.01244  0
H  H20  1  0.49580802  0.91726720  0.76217618  1  0  0.112553  0  0.948516  0  0  0.119517  0  1.011245  0  0  0.12327  0  1.009805  0  0  0.105861  0.116837  0  1.01243  0
H  H21  1  0.50419185  0.58273251  0.26217578  1  0  0.112557  0  0.948515  0  0  0.11952  0  1.011245  0  0  0.123274  0  1.009804  0  0  0.105859  0.116845  0  1.012429  0
H  H22  1  0.39487072  0.09090692  0.09876108  1  0  0.067262  0  0.974761  0  0  0.069665  0  1.053108  0  0  0.072262  0  1.050191  0  0  0.095358  0.067671  0  1.05535  0
H  H23  1  0.60512812  0.40909401  0.59876148  1  0  0.067271  0  0.974731  0  0  0.069671  0  1.053081  0  0  0.072268  0  1.050162  0  0  0.095371  0.067676  0  1.055321  0
H  H24  1  0.60512844  0.90909170  0.90123924  1  0  0.06726  0  0.974746  0  0  0.069675  0  1.053075  0  0  0.072273  0  1.050158  0  0  0.095375  0.067677  0  1.055321  0
H  H25  1  0.39487224  0.59090713  0.40123884  1  0  0.067256  0  0.974716  0  0  0.069668  0  1.053054  0  0  0.072265  0  1.050136  0  0  0.09538  0.067674  0  1.0553  0
H  H26  1  0.87863746  0.99957210  0.18047016  1  0  0.069489  0  0.956705  0  0  0.075648  0  1.024122  0  0  0.078335  0  1.021616  0  0  0.101979  0.073658  0  1.025967  0
H  H27  1  0.12136289  0.50043119  0.68046968  1  0  0.069521  0  0.956708  0  0  0.07565  0  1.024156  0  0  0.078337  0  1.02165  0  0  0.101973  0.073663  0  1.025998  0
H  H28  1  0.12136168  0.00042906  0.81953016  1  0  0.069533  0  0.956721  0  0  0.075662  0  1.024169  0  0  0.078349  0  1.021663  0  0  0.101969  0.073671  0  1.026015  0
H  H29  1  0.87863870  0.49956995  0.31953003  1  0  0.069491  0  0.956753  0  0  0.075624  0  1.024201  0  0  0.078311  0  1.021695  0  0  0.101942  0.073634  0  1.026045  0
H  H30  1  0.96221030  0.97238350  0.32352295  1  0  0.105008  0  0.980338  0  0  0.114885  0  1.042382  0  0  0.118126  0  1.041156  0  0  0.09584  0.112521  0  1.043471  0
H  H31  1  0.03778841  0.52761893  0.82352310  1  0  0.105045  0  0.980328  0  0  0.114926  0  1.04236  0  0  0.118166  0  1.041133  0  0  0.095866  0.112564  0  1.043444  0
H  H32  1  0.03778823  0.02761639  0.67647676  1  0  0.105018  0  0.980333  0  0  0.114895  0  1.042374  0  0  0.118136  0  1.041147  0  0  0.095838  0.112533  0  1.043459  0
H  H33  1  0.96221195  0.47238222  0.17647722  1  0  0.10501  0  0.980299  0  0  0.114888  0  1.04234  0  0  0.11813  0  1.041111  0  0  0.095837  0.112525  0  1.043425  0
C  C34  1  0.57834129  0.23908573  0.43164074  1  0  0.171748  0  3.639694  0  0  0.096263  0  3.897725  0  0  0.110856  0  3.908754  0  0  0.154691  0.086943  0  3.890098  0
C  C35  1  0.42165864  0.26091486  0.93164104  1  0  0.171763  0  3.639687  0  0  0.096276  0  3.897718  0  0  0.11087  0  3.908744  0  0  0.154704  0.086959  0  3.890088  0
C  C36  1  0.42165786  0.76091289  0.56835897  1  0  0.171791  0  3.639626  0  0  0.09631  0  3.897654  0  0  0.110902  0  3.908683  0  0  0.154722  0.086986  0  3.890029  0
C  C37  1  0.57834295  0.73908628  0.06835867  1  0  0.171803  0  3.639687  0  0  0.096294  0  3.897709  0  0  0.110887  0  3.908738  0  0  0.15471  0.086971  0  3.89008  0
C  C38  1  0.74656818  0.11160741  0.41747583  1  0  0.192416  0  3.727763  0  0  0.140272  0  4.017292  0  0  0.15163  0  4.030335  0  0  0.133922  0.132912  0  4.008345  0
C  C39  1  0.25343173  0.38839314  0.91747621  1  0  0.19243  0  3.72788  0  0  0.14029  0  4.017419  0  0  0.15165  0  4.030461  0  0  0.133945  0.132934  0  4.008465  0
C  C40  1  0.25343098  0.88839121  0.58252449  1  0  0.192475  0  3.727852  0  0  0.140339  0  4.017399  0  0  0.151705  0  4.030436  0  0  0.133973  0.132974  0  4.008451  0
C  C41  1  0.74656864  0.61160801  0.08252411  1  0  0.192497  0  3.72779  0  0  0.140364  0  4.017346  0  0  0.15173  0  4.030382  0  0  0.133971  0.132998  0  4.008402  0
C  C42  1  0.28683402  0.00746871  0.37929262  1  0  -0.071468  0  3.650305  0  0  -0.146108  0  3.888204  0  0  -0.143315  0  3.897519  0  0  -0.045653  -0.147864  0  3.88201  0
C  C43  1  0.71316461  0.49253174  0.87929308  1  0  -0.071475  0  3.650249  0  0  -0.146135  0  3.888198  0  0  -0.143362  0  3.897535  0  0  -0.045649  -0.147886  0  3.881996  0
C  C44  1  0.71316391  0.99252992  0.62070709  1  0  -0.071442  0  3.650331  0  0  -0.146092  0  3.888274  0  0  -0.143307  0  3.897579  0  0  -0.04564  -0.147829  0  3.882088  0
C  C45  1  0.28683576  0.50746941  0.12070663  1  0  -0.07145  0  3.650317  0  0  -0.146062  0  3.888154  0  0  -0.143289  0  3.897454  0  0  -0.045628  -0.147817  0  3.881959  0
C  C46  1  0.24087271  0.02595681  0.29274874  1  0  0.14102  0  3.709363  0  0  0.156801  0  3.947555  0  0  0.161358  0  3.969924  0  0  0.011996  0.154019  0  3.93223  0
C  C47  1  0.75912642  0.47404213  0.79274919  1  0  0.141034  0  3.709386  0  0  0.156827  0  3.947571  0  0  0.161385  0  3.969944  0  0  0.012021  0.154047  0  3.932243  0
C  C48  1  0.75912584  0.97404054  0.70725097  1  0  0.140987  0  3.709456  0  0  0.156807  0  3.947602  0  0  0.161362  0  3.969975  0  0  0.012006  0.154021  0  3.932276  0
C  C49  1  0.24087274  0.52595649  0.20725113  1  0  0.141046  0  3.709328  0  0  0.156864  0  3.947459  0  0  0.161419  0  3.969834  0  0  0.012014  0.154081  0  3.932136  0
C  C50  1  0.36335204  0.06132397  0.22845506  1  0  -0.168583  0  3.697953  0  0  -0.188583  0  3.945866  0  0  -0.196572  0  3.9662  0  0  -0.088368  -0.18347  0  3.932204  0
C  C51  1  0.63664821  0.43867732  0.72845547  1  0  -0.168598  0  3.697968  0  0  -0.188601  0  3.945872  0  0  -0.196589  0  3.966203  0  0  -0.088348  -0.183492  0  3.932213  0
C  C52  1  0.63664711  0.93867465  0.77154405  1  0  -0.168539  0  3.697873  0  0  -0.188578  0  3.945799  0  0  -0.196567  0  3.966134  0  0  -0.088351  -0.183467  0  3.93214  0
C  C53  1  0.36335339  0.56132382  0.27154424  1  0  -0.168616  0  3.697907  0  0  -0.188666  0  3.94584  0  0  -0.196654  0  3.966171  0  0  -0.088371  -0.183558  0  3.932186  0
C  C54  1  0.30282629  0.06722297  0.15017064  1  0  0.139971  0  3.725028  0  0  0.108638  0  3.981677  0  0  0.116833  0  3.999116  0  0  0.041893  0.103342  0  3.969855  0
C  C55  1  0.69717140  0.43277812  0.65017105  1  0  0.140099  0  3.724833  0  0  0.108775  0  3.981473  0  0  0.116974  0  3.998908  0  0  0.04195  0.103486  0  3.969649  0
C  C56  1  0.69717164  0.93277566  0.84982968  1  0  0.140052  0  3.724851  0  0  0.108712  0  3.981506  0  0  0.116906  0  3.998944  0  0  0.041899  0.103424  0  3.969682  0
C  C57  1  0.30282897  0.56722303  0.34982866  1  0  0.140166  0  3.724877  0  0  0.108832  0  3.981531  0  0  0.11703  0  3.998965  0  0  0.041957  0.103538  0  3.969715  0
C  C58  1  0.01487196  0.01375981  0.19603335  1  0  0.131828  0  3.733435  0  0  0.103798  0  3.980058  0  0  0.110914  0  3.999303  0  0  0.036968  0.099257  0  3.966965  0
C  C59  1  0.98512701  0.48624139  0.69603321  1  0  0.131803  0  3.733508  0  0  0.1038  0  3.980131  0  0  0.110915  0  3.999378  0  0  0.036948  0.099252  0  3.967042  0
C  C60  1  0.98512657  0.98624008  0.80396696  1  0  0.131722  0  3.733507  0  0  0.103715  0  3.980135  0  0  0.110829  0  3.999384  0  0  0.03693  0.099174  0  3.967044  0
C  C61  1  0.01487335  0.51375976  0.30396711  1  0  0.131812  0  3.733456  0  0  0.103807  0  3.980079  0  0  0.110921  0  3.999325  0  0  0.036957  0.099263  0  3.966984  0
C  C62  1  0.06312124  0.00256194  0.27545338  1  0  -0.169795  0  3.711715  0  0  -0.184309  0  3.948634  0  0  -0.19289  0  3.970658  0  0  -0.090228  -0.178828  0  3.933927  0
C  C63  1  0.93687968  0.49744074  0.77545263  1  0  -0.169858  0  3.711782  0  0  -0.184366  0  3.94868  0  0  -0.192946  0  3.970701  0  0  -0.090265  -0.178887  0  3.933967  0
C  C64  1  0.93687913  0.99743921  0.72454694  1  0  -0.16977  0  3.711753  0  0  -0.184285  0  3.948646  0  0  -0.192865  0  3.970672  0  0  -0.090223  -0.178805  0  3.933937  0
C  C65  1  0.06312191  0.50256040  0.22454708  1  0  -0.169791  0  3.711658  0  0  -0.184317  0  3.948562  0  0  -0.192897  0  3.970584  0  0  -0.090221  -0.178835  0  3.933848  0
I  I66  1  0.80272441  0.70381612  0.45839239  1  0  -0.558242  0  0.929248  0  0  -0.513133  0  1.234204  0  0  -0.530412  0  1.211604  0  0  -0.263835  -0.500384  0  1.249495  0
I  I67  1  0.19727695  0.79618667  0.95839271  1  0  -0.558255  0  0.929238  0  0  -0.513157  0  1.234196  0  0  -0.530432  0  1.211591  0  0  -0.26385  -0.500409  0  1.249489  0
I  I68  1  0.19727352  0.29618250  0.54160732  1  0  -0.558238  0  0.929241  0  0  -0.513139  0  1.234204  0  0  -0.530417  0  1.211604  0  0  -0.263842  -0.500392  0  1.2495  0
I  I69  1  0.80272463  0.20381701  0.04160761  1  0  -0.558242  0  0.929235  0  0  -0.51314  0  1.234186  0  0  -0.53042  0  1.211591  0  0  -0.263838  -0.500395  0  1.249481  0
N  N70  1  0.48015758  0.08582276  0.39852603  1  0  0.048089  0  3.56185  0  0  0.171504  0  3.742665  0  0  0.16043  0  3.767377  0  0  -0.135725  0.178581  0  3.72615  0
N  N71  1  0.51984230  0.41417774  0.89852644  1  0  0.048025  0  3.561938  0  0  0.171445  0  3.742761  0  0  0.160373  0  3.767479  0  0  -0.135794  0.178527  0  3.726227  0
N  N72  1  0.51984158  0.91417586  0.60147368  1  0  0.047992  0  3.561809  0  0  0.171406  0  3.742647  0  0  0.160331  0  3.767364  0  0  -0.135789  0.178496  0  3.726091  0
N  N73  1  0.48015806  0.58582341  0.10147388  1  0  0.047905  0  3.561965  0  0  0.171384  0  3.742709  0  0  0.160306  0  3.767429  0  0  -0.135784  0.17848  0  3.726152  0
N  N74  1  0.58560085  0.00196885  0.38875724  1  0  -0.27133  0  2.822299  0  0  -0.273117  0  3.087215  0  0  -0.280442  0  3.100545  0  0  -0.228326  -0.268213  0  3.078284  0
N  N75  1  0.41439903  0.49802908  0.88875769  1  0  -0.271325  0  2.822484  0  0  -0.273109  0  3.087396  0  0  -0.280433  0  3.100727  0  0  -0.22833  -0.268214  0  3.078472  0
N  N76  1  0.41439892  0.99802849  0.61124248  1  0  -0.271368  0  2.822372  0  0  -0.273151  0  3.087286  0  0  -0.280476  0  3.100617  0  0  -0.228368  -0.268249  0  3.078354  0
N  N77  1  0.58560195  0.50197080  0.11124202  1  0  -0.271307  0  2.82237  0  0  -0.27312  0  3.087273  0  0  -0.280445  0  3.100605  0  0  -0.228351  -0.268221  0  3.078346  0
N  N78  1  0.74833772  0.25903987  0.44457931  1  0  -0.402096  0  3.214387  0  0  -0.328324  0  3.497162  0  0  -0.350709  0  3.51361  0  0  -0.350954  -0.313134  0  3.485281  0
N  N79  1  0.25166284  0.24095949  0.94457959  1  0  -0.402103  0  3.214373  0  0  -0.328322  0  3.497136  0  0  -0.350707  0  3.513584  0  0  -0.350953  -0.313135  0  3.485258  0
N  N80  1  0.25166204  0.74096002  0.55541980  1  0  -0.402089  0  3.214424  0  0  -0.328315  0  3.497193  0  0  -0.350701  0  3.513639  0  0  -0.350968  -0.313126  0  3.48532  0
N  N81  1  0.74833814  0.75904039  0.05542012  1  0  -0.402113  0  3.214423  0  0  -0.328343  0  3.497203  0  0  -0.350729  0  3.513649  0  0  -0.350973  -0.313153  0  3.485325  0
N  N82  1  0.13165631  0.04344057  0.13389901  1  0  -0.335837  0  3.276342  0  0  -0.257995  0  3.531077  0  0  -0.278423  0  3.55205  0  0  -0.334914  -0.244175  0  3.516502  0
N  N83  1  0.86834441  0.45656172  0.63389885  1  0  -0.335955  0  3.276302  0  0  -0.258121  0  3.531034  0  0  -0.27855  0  3.552006  0  0  -0.33496  -0.244301  0  3.516462  0
N  N84  1  0.86834345  0.95655932  0.86610191  1  0  -0.335886  0  3.276293  0  0  -0.258044  0  3.531023  0  0  -0.278472  0  3.551994  0  0  -0.334912  -0.244229  0  3.516452  0
N  N85  1  0.13165779  0.54343814  0.36610147  1  0  -0.335991  0  3.276368  0  0  -0.258155  0  3.531098  0  0  -0.278585  0  3.552073  0  0  -0.334958  -0.244333  0  3.516522  0
