# generated using pymatgen
data_AgH5C6S(NO)2
_symmetry_space_group_name_H-M   'P 1'
_cell_length_a   5.02443567
_cell_length_b   7.30893828
_cell_length_c   19.89972296
_cell_angle_alpha   89.99927649
_cell_angle_beta   90.00000231
_cell_angle_gamma   90.00075161
_symmetry_Int_Tables_number   1
_chemical_formula_structural   AgH5C6S(NO)2
_chemical_formula_sum   'Ag4 H20 C24 S4 N8 O8'
_cell_volume   730.78330145
_cell_formula_units_Z   4
loop_
 _symmetry_equiv_pos_site_id
 _symmetry_equiv_pos_as_xyz
  1  'x, y, z'
loop_
 _atom_site_type_symbol
 _atom_site_label
 _atom_site_symmetry_multiplicity
 _atom_site_fract_x
 _atom_site_fract_y
 _atom_site_fract_z
 _atom_site_occupancy
 _atom_site_hle17_bader_spin_density
 _atom_site_hle17_ddec_charge
 _atom_site_hle17_ddec_spin_density
 _atom_site_hle17_ddec_sum_bond_order
 _atom_site_hle17_magmom
 _atom_site_hse06_10hf_bader_spin_density
 _atom_site_hse06_10hf_ddec_charge
 _atom_site_hse06_10hf_ddec_spin_density
 _atom_site_hse06_10hf_ddec_sum_bond_order
 _atom_site_hse06_10hf_magmom
 _atom_site_hse06_bader_spin_density
 _atom_site_hse06_ddec_charge
 _atom_site_hse06_ddec_spin_density
 _atom_site_hse06_ddec_sum_bond_order
 _atom_site_hse06_magmom
 _atom_site_pbe_bader_spin_density
 _atom_site_pbe_cm5_charge
 _atom_site_pbe_ddec_charge
 _atom_site_pbe_ddec_spin_density
 _atom_site_pbe_ddec_sum_bond_order
 _atom_site_pbe_magmom
Ag  Ag0  1  0.92404930  0.13050629  0.29513297  1  0  0.568175  0  1.428858  0  0  0.45292  0  1.865606  0  0  0.480165  0  1.818598  0  0  0.427055  0.434355  0  1.897965  0
Ag  Ag1  1  0.57597347  0.86951429  0.79513273  1  0  0.568111  0  1.42886  0  0  0.452898  0  1.865555  0  0  0.480145  0  1.818578  0  0  0.427037  0.434334  0  1.89791  0
Ag  Ag2  1  0.42400140  0.36951098  0.70486275  1  0  0.568013  0  1.429099  0  0  0.452775  0  1.865794  0  0  0.480024  0  1.818818  0  0  0.426981  0.434213  0  1.898153  0
Ag  Ag3  1  0.07601255  0.63049048  0.20487480  1  0  0.56799  0  1.428994  0  0  0.452744  0  1.865724  0  0  0.479985  0  1.818736  0  0  0.426982  0.43418  0  1.898081  0
H  H4  1  0.99141257  0.17966722  0.97582475  1  0  0.078289  0  0.960537  0  0  0.081182  0  1.033563  0  0  0.084457  0  1.029644  0  0  0.113502  0.078754  0  1.036387  0
H  H5  1  0.50855050  0.82030592  0.47583091  1  0  0.078259  0  0.960619  0  0  0.081086  0  1.033739  0  0  0.084353  0  1.029836  0  0  0.113503  0.078663  0  1.036549  0
H  H6  1  0.49142938  0.32029866  0.02416997  1  0  0.078268  0  0.960501  0  0  0.081084  0  1.033641  0  0  0.084357  0  1.029726  0  0  0.113474  0.07866  0  1.036454  0
H  H7  1  0.00856465  0.67969141  0.52417310  1  0  0.07831  0  0.960508  0  0  0.081129  0  1.033617  0  0  0.084408  0  1.029695  0  0  0.113503  0.078695  0  1.036462  0
H  H8  1  0.34407743  0.93738591  0.97172951  1  0  0.127261  0  0.941722  0  0  0.137157  0  0.998463  0  0  0.140684  0  0.998119  0  0  0.112401  0.134577  0  0.999033  0
H  H9  1  0.15588080  0.06258695  0.47172904  1  0  0.127282  0  0.941703  0  0  0.137191  0  0.998434  0  0  0.140718  0  0.998092  0  0  0.11241  0.13461  0  0.999005  0
H  H10  1  0.84408821  0.56258571  0.02826898  1  0  0.127245  0  0.941793  0  0  0.137094  0  0.998579  0  0  0.140618  0  0.99824  0  0  0.11239  0.134516  0  0.999148  0
H  H11  1  0.65590072  0.43740326  0.52826768  1  0  0.127291  0  0.941715  0  0  0.137105  0  0.998534  0  0  0.140631  0  0.998194  0  0  0.112378  0.134526  0  0.999105  0
H  H12  1  0.37034294  0.71743018  0.07241648  1  0  0.091713  0  0.963135  0  0  0.099607  0  1.030515  0  0  0.102274  0  1.027778  0  0  0.115988  0.097532  0  1.032678  0
H  H13  1  0.12963517  0.28256228  0.57240784  1  0  0.091607  0  0.963132  0  0  0.099562  0  1.030467  0  0  0.102226  0  1.027736  0  0  0.11597  0.097488  0  1.032629  0
H  H14  1  0.87035595  0.78256358  0.92758654  1  0  0.091676  0  0.963142  0  0  0.099601  0  1.0305  0  0  0.10227  0  1.02776  0  0  0.115968  0.097524  0  1.032665  0
H  H15  1  0.62965886  0.21743453  0.42758688  1  0  0.091745  0  0.963051  0  0  0.099655  0  1.030454  0  0  0.10232  0  1.027718  0  0  0.11601  0.09758  0  1.032616  0
H  H16  1  0.37023229  0.17431215  0.12009123  1  0  0.120117  0  0.96174  0  0  0.131251  0  1.026147  0  0  0.132054  0  1.027805  0  0  0.101953  0.130799  0  1.024948  0
H  H17  1  0.12975179  0.82569094  0.62008768  1  0  0.120195  0  0.961685  0  0  0.131278  0  1.026148  0  0  0.132084  0  1.027809  0  0  0.101962  0.130825  0  1.024945  0
H  H18  1  0.87021428  0.32567727  0.87991002  1  0  0.120207  0  0.961712  0  0  0.131332  0  1.026154  0  0  0.132142  0  1.027804  0  0  0.101967  0.130879  0  1.024952  0
H  H19  1  0.62979655  0.67431979  0.37991734  1  0  0.120107  0  0.962032  0  0  0.131268  0  1.026433  0  0  0.132076  0  1.028102  0  0  0.101909  0.130818  0  1.025234  0
H  H20  1  0.30799259  0.18666779  0.20772257  1  0  0.124746  0  0.95648  0  0  0.132585  0  1.035818  0  0  0.137133  0  1.030342  0  0  0.097656  0.129061  0  1.040165  0
H  H21  1  0.19199946  0.81333220  0.70772059  1  0  0.124708  0  0.956387  0  0  0.132523  0  1.035775  0  0  0.137081  0  1.030276  0  0  0.097621  0.128999  0  1.040117  0
H  H22  1  0.80797035  0.31333064  0.79227315  1  0  0.124673  0  0.956569  0  0  0.132526  0  1.035868  0  0  0.137091  0  1.030377  0  0  0.097588  0.129004  0  1.040215  0
H  H23  1  0.69206635  0.68667499  0.29228494  1  0  0.124719  0  0.956512  0  0  0.132553  0  1.035801  0  0  0.137146  0  1.030298  0  0  0.097593  0.129039  0  1.040143  0
C  C24  1  0.86790175  0.97334704  0.11781554  1  0  0.334478  0  3.778401  0  0  0.31791  0  4.055789  0  0  0.335191  0  4.069217  0  0  0.24005  0.306137  0  4.046739  0
C  C25  1  0.63207722  0.02664423  0.61781407  1  0  0.334477  0  3.778337  0  0  0.317995  0  4.055625  0  0  0.335278  0  4.069049  0  0  0.240039  0.306217  0  4.046593  0
C  C26  1  0.36790306  0.52664258  0.88218497  1  0  0.334573  0  3.778482  0  0  0.318013  0  4.055883  0  0  0.335299  0  4.069302  0  0  0.240016  0.306233  0  4.046844  0
C  C27  1  0.13211686  0.47336902  0.38218818  1  0  0.334507  0  3.778285  0  0  0.317843  0  4.055754  0  0  0.335119  0  4.069192  0  0  0.240029  0.306067  0  4.046719  0
C  C28  1  0.01116222  0.08042594  0.01646688  1  0  0.185767  0  3.6796  0  0  0.157593  0  3.937266  0  0  0.169353  0  3.948952  0  0  0.067056  0.149827  0  3.929601  0
C  C29  1  0.48880992  0.91955619  0.51646794  1  0  0.185898  0  3.679475  0  0  0.157745  0  3.937178  0  0  0.169503  0  3.948869  0  0  0.067073  0.149981  0  3.929508  0
C  C30  1  0.51116589  0.41955065  0.98352883  1  0  0.186026  0  3.679606  0  0  0.157894  0  3.937266  0  0  0.169654  0  3.948954  0  0  0.067179  0.150128  0  3.9296  0
C  C31  1  0.98882703  0.58044274  0.48352955  1  0  0.185909  0  3.679522  0  0  0.15779  0  3.937149  0  0  0.169547  0  3.948841  0  0  0.067117  0.150021  0  3.929479  0
C  C32  1  0.20921260  0.94663750  0.01430460  1  0  -0.181342  0  3.697812  0  0  -0.194912  0  3.954158  0  0  -0.205365  0  3.973516  0  0  -0.090693  -0.188518  0  3.941618  0
C  C33  1  0.29076153  0.05334197  0.51430252  1  0  -0.181407  0  3.697776  0  0  -0.194973  0  3.954113  0  0  -0.205426  0  3.973467  0  0  -0.090757  -0.18858  0  3.94157  0
C  C34  1  0.70921329  0.55334248  0.98569389  1  0  -0.181479  0  3.698038  0  0  -0.194994  0  3.954361  0  0  -0.205447  0  3.97372  0  0  -0.090792  -0.188604  0  3.941822  0
C  C35  1  0.79077764  0.44664946  0.48569370  1  0  -0.181436  0  3.697801  0  0  -0.194907  0  3.954118  0  0  -0.205358  0  3.973472  0  0  -0.090678  -0.188516  0  3.941579  0
C  C36  1  0.62205741  0.36493921  0.17339004  1  0  0.692375  0  3.910214  0  0  0.645541  0  4.204151  0  0  0.67923  0  4.199296  0  0  0.186547  0.622579  0  4.206325  0
C  C37  1  0.87792952  0.63506378  0.67338986  1  0  0.692285  0  3.910178  0  0  0.645462  0  4.204108  0  0  0.679146  0  4.199264  0  0  0.186519  0.622498  0  4.206279  0
C  C38  1  0.12203491  0.13505480  0.82660668  1  0  0.692301  0  3.910549  0  0  0.645484  0  4.204439  0  0  0.679172  0  4.199599  0  0  0.186493  0.622527  0  4.206605  0
C  C39  1  0.37801885  0.86497245  0.32661366  1  0  0.69227  0  3.910264  0  0  0.645532  0  4.203996  0  0  0.679241  0  4.19917  0  0  0.186579  0.622573  0  4.206162  0
C  C40  1  0.22243483  0.82627302  0.06841869  1  0  0.163827  0  3.689183  0  0  0.127847  0  3.946064  0  0  0.139093  0  3.960664  0  0  0.056585  0.120507  0  3.936281  0
C  C41  1  0.27754527  0.17371821  0.56841205  1  0  0.163924  0  3.688947  0  0  0.127913  0  3.945823  0  0  0.139161  0  3.960424  0  0  0.056669  0.120573  0  3.936037  0
C  C42  1  0.72243184  0.67372076  0.93158432  1  0  0.163939  0  3.689058  0  0  0.127945  0  3.94594  0  0  0.139193  0  3.960542  0  0  0.056709  0.120602  0  3.936153  0
C  C43  1  0.77757302  0.32628267  0.43158267  1  0  0.163951  0  3.689212  0  0  0.127909  0  3.946075  0  0  0.139154  0  3.960677  0  0  0.056625  0.12057  0  3.936289  0
C  C44  1  0.46627701  0.18514502  0.16926375  1  0  -0.296014  0  3.618351  0  0  -0.3263  0  3.863122  0  0  -0.331503  0  3.870336  0  0  -0.155681  -0.32268  0  3.858177  0
C  C45  1  0.03371304  0.81485633  0.66926125  1  0  -0.296044  0  3.618147  0  0  -0.326328  0  3.863038  0  0  -0.331508  0  3.870194  0  0  -0.155642  -0.322692  0  3.85806  0
C  C46  1  0.96624884  0.31484800  0.83073549  1  0  -0.296044  0  3.618292  0  0  -0.326346  0  3.86309  0  0  -0.331564  0  3.870298  0  0  -0.155645  -0.322729  0  3.858144  0
C  C47  1  0.53377990  0.68516722  0.33074226  1  0  -0.296101  0  3.618465  0  0  -0.326512  0  3.863413  0  0  -0.331752  0  3.870553  0  0  -0.155636  -0.322916  0  3.858502  0
S  S48  1  0.65241294  0.97999014  0.18668733  1  0  0.052681  0  2.630601  0  0  0.056541  0  3.024047  0  0  0.052721  0  3.013907  0  0  0.054004  0.058913  0  3.031522  0
S  S49  1  0.84757599  0.02001238  0.68668389  1  0  0.052785  0  2.630533  0  0  0.056603  0  3.023954  0  0  0.052797  0  3.013802  0  0  0.054031  0.058968  0  3.031424  0
S  S50  1  0.15239621  0.52000712  0.81331568  1  0  0.052667  0  2.630613  0  0  0.056524  0  3.024032  0  0  0.052719  0  3.013892  0  0  0.054008  0.058894  0  3.03151  0
S  S51  1  0.34761575  0.48001513  0.31331936  1  0  0.052816  0  2.630519  0  0  0.056752  0  3.023957  0  0  0.052936  0  3.013838  0  0  0.054088  0.059129  0  3.031442  0
N  N52  1  0.84054704  0.09511081  0.06793893  1  0  -0.372926  0  3.050392  0  0  -0.328654  0  3.309644  0  0  -0.345894  0  3.324265  0  0  -0.312517  -0.317234  0  3.299854  0
N  N53  1  0.65942596  0.90487402  0.56794055  1  0  -0.373001  0  3.050183  0  0  -0.328741  0  3.309412  0  0  -0.345982  0  3.32403  0  0  -0.312554  -0.317321  0  3.299622  0
N  N54  1  0.34055356  0.40487013  0.93205729  1  0  -0.37308  0  3.050439  0  0  -0.328823  0  3.309731  0  0  -0.346063  0  3.324348  0  0  -0.312533  -0.317404  0  3.29994  0
N  N55  1  0.15945044  0.59513424  0.43206096  1  0  -0.372915  0  3.05023  0  0  -0.328617  0  3.309517  0  0  -0.345864  0  3.324146  0  0  -0.312479  -0.317197  0  3.299724  0
N  N56  1  0.05154610  0.83829086  0.12026361  1  0  -0.380116  0  3.255853  0  0  -0.309293  0  3.541972  0  0  -0.328977  0  3.551761  0  0  -0.337093  -0.296407  0  3.535551  0
N  N57  1  0.44843798  0.16170265  0.62025702  1  0  -0.38014  0  3.255782  0  0  -0.309362  0  3.541894  0  0  -0.329056  0  3.551694  0  0  -0.337077  -0.296476  0  3.535472  0
N  N58  1  0.55154089  0.66169864  0.87973991  1  0  -0.380149  0  3.255853  0  0  -0.309389  0  3.542066  0  0  -0.329085  0  3.551864  0  0  -0.337104  -0.296492  0  3.535625  0
N  N59  1  0.94846994  0.33830800  0.37974272  1  0  -0.380406  0  3.256077  0  0  -0.309506  0  3.542213  0  0  -0.32919  0  3.552  0  0  -0.337224  -0.296622  0  3.535794  0
O  O60  1  0.84024112  0.36452504  0.20679905  1  0  -0.667618  0  2.179498  0  0  -0.585239  0  2.465974  0  0  -0.61879  0  2.455174  0  0  -0.342653  -0.561482  0  2.472254  0
O  O61  1  0.65973985  0.63547813  0.70679836  1  0  -0.667578  0  2.179398  0  0  -0.58519  0  2.46585  0  0  -0.618739  0  2.45505  0  0  -0.342648  -0.561435  0  2.472137  0
O  O62  1  0.34021464  0.13547367  0.79319617  1  0  -0.667569  0  2.179673  0  0  -0.585241  0  2.466233  0  0  -0.618769  0  2.455385  0  0  -0.342608  -0.561485  0  2.472508  0
O  O63  1  0.15985106  0.86456160  0.29319661  1  0  -0.667576  0  2.179548  0  0  -0.585364  0  2.4663  0  0  -0.618822  0  2.455256  0  0  -0.342822  -0.561602  0  2.472567  0
O  O64  1  0.51978255  0.50200429  0.14534612  1  0  -0.641318  0  1.95784  0  0  -0.595568  0  2.220864  0  0  -0.6217  0  2.209781  0  0  -0.334114  -0.576551  0  2.227637  0
O  O65  1  0.98020040  0.49799969  0.64534757  1  0  -0.641316  0  1.957866  0  0  -0.595578  0  2.220909  0  0  -0.621709  0  2.209823  0  0  -0.334116  -0.576557  0  2.227681  0
O  O66  1  0.01976894  0.99799176  0.85465287  1  0  -0.641339  0  1.958084  0  0  -0.595606  0  2.221134  0  0  -0.621739  0  2.210052  0  0  -0.334136  -0.57659  0  2.227901  0
O  O67  1  0.48028481  0.00202766  0.35466172  1  0  -0.641249  0  1.957875  0  0  -0.595499  0  2.220872  0  0  -0.621647  0  2.209786  0  0  -0.334012  -0.576482  0  2.227637  0
