# generated using pymatgen
data_NiH46C44(N2O5)2
_symmetry_space_group_name_H-M   'P 1'
_cell_length_a   7.65336200
_cell_length_b   10.08746726
_cell_length_c   12.86000000
_cell_angle_alpha   92.71156706
_cell_angle_beta   100.02840656
_cell_angle_gamma   93.81998100
_symmetry_Int_Tables_number   1
_chemical_formula_structural   NiH46C44(N2O5)2
_chemical_formula_sum   'Ni1 H46 C44 N4 O10'
_cell_volume   973.73514775
_cell_formula_units_Z   1
loop_
 _symmetry_equiv_pos_site_id
 _symmetry_equiv_pos_as_xyz
  1  'x, y, z'
loop_
 _atom_site_type_symbol
 _atom_site_label
 _atom_site_symmetry_multiplicity
 _atom_site_fract_x
 _atom_site_fract_y
 _atom_site_fract_z
 _atom_site_occupancy
 _atom_site_hle17_ddec_charge
 _atom_site_hle17_ddec_spin_density
 _atom_site_hle17_ddec_sum_bond_order
 _atom_site_hle17_magmom
 _atom_site_hse06_ddec_charge
 _atom_site_hse06_ddec_spin_density
 _atom_site_hse06_ddec_sum_bond_order
 _atom_site_hse06_magmom
 _atom_site_pbe_bader_charge
 _atom_site_pbe_bader_spin_density
 _atom_site_pbe_cm5_charge
 _atom_site_pbe_ddec_charge
 _atom_site_pbe_ddec_spin_density
 _atom_site_pbe_ddec_sum_bond_order
 _atom_site_pbe_magmom
Ni  Ni0  1  0.99999625  0.99999814  0.00000250  1  0.661343  0.004904  2.165176  0.004  0.776133  -0.006586  2.491025  -0.01  1.011553  -0.005235  0.600149  0.579986  -0.006463  2.65263  -0.008
H  H1  1  0.28202422  0.75027157  0.41415752  1  0.296121  0.0  0.97176  0.0  0.279004  -1e-06  1.037674  0.0  0.574757  0.0  0.288736  0.257953  -1e-06  1.053375  0.0
H  H2  1  0.71797866  0.24972657  0.58584178  1  0.296121  1e-06  0.971775  0.0  0.278905  -1e-06  1.037861  0.0  0.574746  0.0  0.288721  0.257854  -1e-06  1.053557  0.0
H  H3  1  0.10578122  0.11366137  0.80586618  1  0.403037  -3.1e-05  0.910676  0.0  0.385986  5e-06  0.95711  0.0  0.6282  -3.1e-05  0.273291  0.366507  1.4e-05  0.985608  0.0
H  H4  1  0.89422024  0.88633577  0.19413527  1  0.403103  -3.1e-05  0.910604  0.0  0.386076  5e-06  0.957005  0.0  0.628067  -3.1e-05  0.273304  0.366596  1.4e-05  0.985503  0.0
H  H5  1  0.11315405  0.96177161  0.82388253  1  0.394104  -3.4e-05  0.924926  0.0  0.373305  -1e-05  0.9775  0.0  0.637641  -6.2e-05  0.27199  0.354833  -3.1e-05  1.004812  0.0
H  H6  1  0.88684067  0.03822454  0.17611973  1  0.394122  -3.5e-05  0.924891  0.0  0.373305  -1e-05  0.977492  0.0  0.63776  -6.2e-05  0.271987  0.354832  -3.1e-05  1.004807  0.0
H  H7  1  0.17768090  0.40931631  0.29834479  1  0.100868  1.5e-05  0.948734  0.0  0.114268  1e-06  1.008066  0.0  0.101173  -6e-06  0.104271  0.108659  1e-06  1.011672  0.0
H  H8  1  0.82231901  0.59069178  0.70165690  1  0.100922  1.9e-05  0.948665  0.0  0.114294  1e-06  1.008042  0.0  0.101224  -6e-06  0.104272  0.108684  1e-06  1.011648  0.0
H  H9  1  0.44368932  0.55302363  0.38285778  1  0.095027  -2.7e-05  0.971668  0.0  0.105845  -1.6e-05  1.037011  0.0  0.065059  -4.1e-05  0.097888  0.101753  -2.3e-05  1.036275  0.0
H  H10  1  0.55631427  0.44698148  0.61713874  1  0.095048  -2.8e-05  0.971719  0.0  0.105856  -1.6e-05  1.037066  0.0  0.065147  -4.1e-05  0.097899  0.101742  -2.3e-05  1.036348  0.0
H  H11  1  0.78124585  0.28518111  0.25602899  1  0.114829  -1.5e-05  0.958543  0.0  0.128691  -1.3e-05  1.017018  0.0  0.119222  -2.6e-05  0.102181  0.122662  -1.9e-05  1.019668  0.0
H  H12  1  0.21874346  0.71481404  0.74396956  1  0.114846  -1.5e-05  0.95859  0.0  0.128663  -1.2e-05  1.017095  0.0  0.119199  -2.6e-05  0.102172  0.122637  -1.9e-05  1.019742  0.0
H  H13  1  0.51376528  0.14575769  0.16683190  1  0.095424  -4.3e-05  0.960619  0.0  0.108834  -5.2e-05  1.021494  0.0  0.078149  -6.4e-05  0.102458  0.104549  -6.1e-05  1.023834  0.0
H  H14  1  0.48622036  0.85424045  0.83317028  1  0.095448  -4.4e-05  0.960603  0.0  0.108942  -5.2e-05  1.021375  0.0  0.078139  -6.4e-05  0.102466  0.104647  -6.1e-05  1.023735  0.0
H  H15  1  0.76763059  0.58003083  0.44121425  1  0.078214  -1e-06  0.927198  0.0  0.096798  -0.0  0.987756  0.0  0.036856  -1e-06  0.091298  0.094945  -0.0  0.987538  0.0
H  H16  1  0.23236934  0.41996432  0.55878307  1  0.078239  -3e-06  0.927058  0.0  0.096796  0.0  0.987626  0.0  0.036624  -2e-06  0.091301  0.094944  -0.0  0.987408  0.0
H  H17  1  0.90541459  0.46148240  0.40163612  1  0.092704  -8e-06  0.928179  0.0  0.109777  -5e-06  0.98938  0.0  0.055032  -1.7e-05  0.098404  0.106019  -9e-06  0.992865  0.0
H  H18  1  0.09458391  0.53851176  0.59836180  1  0.092745  -8e-06  0.928207  0.0  0.10978  -4e-06  0.989412  0.0  0.054633  -1.7e-05  0.098429  0.106022  -9e-06  0.992897  0.0
H  H19  1  0.86404565  0.55275787  0.21919636  1  0.090303  4e-06  0.929978  0.0  0.110127  4e-06  0.989081  0.0  0.060796  1e-05  0.097274  0.107529  6e-06  0.989192  0.0
H  H20  1  0.13595591  0.44724027  0.78080357  1  0.090317  5e-06  0.929951  0.0  0.110125  4e-06  0.989057  0.0  0.060834  1e-05  0.097285  0.107527  6e-06  0.989168  0.0
H  H21  1  0.73777033  0.67688014  0.26229611  1  0.092951  -6e-06  0.939309  0.0  0.111718  -6e-06  0.999509  0.0  0.042951  -7e-06  0.095208  0.109723  -7e-06  0.997389  0.0
H  H22  1  0.26223399  0.32311900  0.73770570  1  0.092952  -3e-06  0.939271  0.0  0.111709  -6e-06  0.999476  0.0  0.042874  -6e-06  0.095184  0.109713  -7e-06  0.997356  0.0
H  H23  1  0.37385798  0.98568335  0.02902397  1  0.090645  0.000511  0.968594  0.001  0.098917  0.000517  1.03381  0.001  0.147244  0.000797  0.122757  0.095863  0.000512  1.038262  0.001
H  H24  1  0.62613622  0.01432077  0.97097776  1  0.090609  0.000509  0.968541  0.001  0.098856  0.000517  1.033791  0.001  0.147342  0.000797  0.12275  0.095806  0.000512  1.038237  0.001
H  H25  1  0.59074785  0.81134385  0.04835501  1  0.131756  0.000114  0.95675  0.0  0.14344  0.00011  1.017085  0.0  0.153156  0.000223  0.110621  0.138075  0.000129  1.019231  0.0
H  H26  1  0.40925207  0.18866425  0.95164512  1  0.131821  0.000114  0.956713  0.0  0.143492  0.000109  1.017059  0.0  0.153084  0.000223  0.110639  0.138123  0.000129  1.019206  0.0
H  H27  1  0.14743959  0.52511067  0.05557230  1  0.102652  0.000165  0.955072  0.0  0.115877  0.000176  1.016003  0.0  0.079345  0.000298  0.105516  0.112306  0.000186  1.014948  0.0
H  H28  1  0.85257145  0.47488946  0.94442636  1  0.102619  0.000165  0.955  0.0  0.115843  0.000176  1.015937  0.0  0.079472  0.000298  0.105496  0.112272  0.000186  1.01488  0.0
H  H29  1  0.94997365  0.71325635  0.03583569  1  0.083083  0.000521  0.93705  0.001  0.093166  0.000548  0.998697  0.001  0.125615  0.000827  0.120679  0.089521  0.000534  1.004281  0.001
H  H30  1  0.05002760  0.28673880  0.96416566  1  0.083161  0.000522  0.936983  0.001  0.093195  0.000547  0.998677  0.001  0.125575  0.000827  0.12068  0.08955  0.000534  1.00426  0.001
H  H31  1  0.64831590  0.58362098  0.07553300  1  0.076106  1.9e-05  0.94366  0.0  0.095146  3.3e-05  1.004274  0.0  0.019158  3.7e-05  0.094585  0.092927  2.9e-05  1.005558  0.0
H  H32  1  0.35169055  0.41638612  0.92446155  1  0.076155  1.9e-05  0.943583  0.0  0.095169  3.3e-05  1.004193  0.0  0.019196  3.7e-05  0.094583  0.092956  2.9e-05  1.005464  0.0
H  H33  1  0.48632656  0.47307796  0.11499948  1  0.083347  -4.6e-05  0.971469  0.0  0.097968  -1.2e-05  1.040138  0.0  0.06638  -2e-06  0.092743  0.097801  1e-06  1.03468  0.0
H  H34  1  0.51368326  0.52692316  0.88499676  1  0.083293  -4.4e-05  0.971445  0.0  0.097877  -1.2e-05  1.040153  0.0  0.066285  -2e-06  0.092684  0.097711  1e-06  1.034691  0.0
H  H35  1  0.36251651  0.86389612  0.26878024  1  0.101167  -7e-06  0.939083  0.0  0.110001  -6e-06  1.001276  0.0  0.15569  1e-06  0.125033  0.10425  -3e-06  1.005666  0.0
H  H36  1  0.63748055  0.13610998  0.73122108  1  0.101131  -9e-06  0.939132  0.0  0.109958  -6e-06  1.001331  0.0  0.155681  1e-06  0.124999  0.104209  -3e-06  1.005712  0.0
H  H37  1  0.66860773  0.98191603  0.27955147  1  0.127494  6e-06  0.986125  0.0  0.140065  -1e-06  1.041897  0.0  0.154508  1.9e-05  0.109069  0.133179  1.8e-05  1.045565  0.0
H  H38  1  0.33138963  0.01809306  0.72044999  1  0.127531  5e-06  0.986102  0.0  0.140064  -1e-06  1.041923  0.0  0.154517  1.9e-05  0.109056  0.133179  1.8e-05  1.045599  0.0
H  H39  1  0.78868024  0.87042049  0.60405896  1  0.12297  2e-06  0.96572  0.0  0.132066  3e-06  1.030204  0.0  0.109343  -3e-06  0.111867  0.12606  1e-06  1.031712  0.0
H  H40  1  0.21132264  0.12957765  0.39594034  1  0.123018  4e-06  0.965745  0.0  0.132106  2e-06  1.030219  0.0  0.109633  -4e-06  0.111874  0.126103  1e-06  1.031725  0.0
H  H41  1  0.48263314  0.75700695  0.57723774  1  0.075207  -5e-06  1.006892  0.0  0.083055  -3e-06  1.076051  0.0  0.160536  -1.2e-05  0.116917  0.08187  -8e-06  1.072981  0.0
H  H42  1  0.51736944  0.24298820  0.42276142  1  0.075172  -3e-06  1.006884  0.0  0.083023  -3e-06  1.076034  0.0  0.160584  -1.2e-05  0.116926  0.081838  -8e-06  1.072964  0.0
H  H43  1  0.97624783  0.00154375  0.37814390  1  0.099758  -1.1e-05  0.948263  0.0  0.116622  -1.3e-05  1.009599  0.0  0.091661  -1.2e-05  0.103766  0.113974  -1.3e-05  1.010696  0.0
H  H44  1  0.02375403  0.99845737  0.62185774  1  0.099815  -1e-05  0.948239  0.0  0.116679  -1.3e-05  1.00956  0.0  0.091646  -1.2e-05  0.103785  0.114027  -1.3e-05  1.010663  0.0
H  H45  1  0.90850501  0.12426559  0.46108887  1  0.100964  -0.0  0.912451  0.0  0.12131  1e-06  0.968056  0.0  0.064488  2e-06  0.105639  0.119787  1e-06  0.967557  0.0
H  H46  1  0.09149696  0.87573653  0.53891281  1  0.100972  2e-06  0.912427  0.0  0.121303  0.0  0.968046  0.0  0.064476  2e-06  0.105641  0.119783  1e-06  0.967543  0.0
C  C47  1  0.16473570  0.18335617  0.17437162  1  0.625032  0.000823  3.895383  0.002  0.620235  -0.00018  4.189298  0.001  1.545938  -8.4e-05  0.208512  0.554565  -0.000345  4.198394  0.001
C  C48  1  0.83525258  0.81664197  0.82563316  1  0.625023  0.000818  3.895374  0.002  0.620248  -0.000179  4.189269  0.001  1.546039  -8.4e-05  0.208548  0.554577  -0.000345  4.198362  0.001
C  C49  1  0.32758610  0.26944798  0.22495561  1  -0.087935  -0.001605  3.789403  -0.001  -0.073745  -0.000794  4.043228  -0.001  -0.043732  -0.001124  -0.02813  -0.060131  -0.000942  4.008119  -0.001
C  C50  1  0.67240535  0.73055514  0.77504657  1  -0.087935  -0.00159  3.789586  -0.001  -0.07374  -0.000795  4.043436  -0.001  -0.043394  -0.001125  -0.028119  -0.060127  -0.000942  4.008331  -0.001
C  C51  1  0.30968273  0.38404795  0.28708772  1  -0.076828  -0.000437  3.766194  0.0  -0.099928  -0.000385  4.036141  0.0  -0.016275  -0.000712  -0.087564  -0.101282  -0.000536  4.004008  0.0
C  C52  1  0.69031851  0.61596015  0.71291410  1  -0.076861  -0.000463  3.766179  0.0  -0.099957  -0.000384  4.036114  0.0  -0.016649  -0.000712  -0.087579  -0.101313  -0.000536  4.003976  0.0
C  C53  1  0.46016667  0.46418173  0.33512938  1  -0.135389  -4e-05  3.741463  0.0  -0.158303  4e-06  4.012876  0.0  -0.113056  -5.9e-05  -0.096495  -0.150933  -4.3e-05  3.976995  0.0
C  C54  1  0.53983264  0.53582039  0.66487203  1  -0.135457  -1.8e-05  3.741543  0.0  -0.158355  4e-06  4.01294  0.0  -0.112971  -5.9e-05  -0.096517  -0.150966  -4.3e-05  3.977063  0.0
C  C55  1  0.63176497  0.43082334  0.32473239  1  0.105032  -0.000294  3.734392  0.0  0.128265  -0.000185  3.99389  0.0  -0.03397  -0.000406  -0.006422  0.124959  -0.000304  3.955928  0.0
C  C56  1  0.36823546  0.56917679  0.67526284  1  0.105051  -0.000305  3.734456  0.0  0.128252  -0.000187  3.99393  0.0  -0.034028  -0.000406  -0.006455  0.124946  -0.000304  3.955967  0.0
C  C57  1  0.64901133  0.31427850  0.26415831  1  -0.137942  0.000169  3.713038  0.0  -0.16051  0.000101  3.980115  0.0  -0.119339  7.2e-05  -0.094105  -0.152411  6.8e-05  3.945851  0.0
C  C58  1  0.35097563  0.68571964  0.73583700  1  -0.137794  0.000178  3.712616  0.0  -0.160318  0.000103  3.979722  0.0  -0.119485  7.2e-05  -0.093986  -0.152226  6.8e-05  3.945466  0.0
C  C59  1  0.49863065  0.23548543  0.21390650  1  -0.073471  -0.000198  3.757902  0.0  -0.094347  -0.0002  4.026525  0.0  -0.035388  -0.000295  -0.088335  -0.097235  -0.000254  3.993863  0.0
C  C60  1  0.50135927  0.76451570  0.78609311  1  -0.07364  -0.000206  3.757593  0.0  -0.094591  -0.000201  4.02624  0.0  -0.035385  -0.000294  -0.088428  -0.09748  -0.000253  3.993579  0.0
C  C61  1  0.79356549  0.52051127  0.37242423  1  -0.131966  1.3e-05  3.716303  0.0  -0.181067  1e-06  3.985073  0.0  0.003933  -2e-06  -0.162315  -0.181698  -4e-06  3.968133  0.0
C  C62  1  0.20643749  0.47948787  0.62757434  1  -0.132101  1.7e-05  3.716369  0.0  -0.181092  1e-06  3.985007  0.0  0.004581  -1e-06  -0.162355  -0.181725  -4e-06  3.96807  0.0
C  C63  1  0.84556007  0.61307469  0.28984085  1  -0.258926  -1.5e-05  3.691881  0.0  -0.303988  -1e-05  3.954464  0.0  -0.061592  -2.8e-05  -0.16533  -0.293906  -2.3e-05  3.938373  0.0
C  C64  1  0.15444567  0.38692544  0.71015804  1  -0.258928  -2.3e-05  3.691869  0.0  -0.303947  -1e-05  3.954363  0.0  -0.061291  -2.8e-05  -0.16531  -0.29387  -2.3e-05  3.938279  0.0
C  C65  1  0.01695721  0.70122882  0.32424954  1  0.682437  -3e-06  3.858105  0.0  0.671702  -2e-06  4.154586  0.0  1.56976  2e-06  0.203893  0.617048  3e-06  4.16518  0.0
C  C66  1  0.98304812  0.29876733  0.67575149  1  0.682409  -2e-06  3.858094  0.0  0.671617  -2e-06  4.15462  0.0  1.569542  1e-06  0.203855  0.616962  2e-06  4.165213  0.0
C  C67  1  0.33083225  0.88179210  0.03406980  1  0.135048  -0.002275  3.655879  -0.002  0.117088  -0.000453  3.925811  -0.001  0.41814  0.000203  0.050686  0.097584  0.000377  3.894984  0.0
C  C68  1  0.66916450  0.11821101  0.96592982  1  0.135123  -0.002263  3.655895  -0.002  0.117219  -0.000453  3.92583  -0.001  0.418086  0.000203  0.050698  0.097711  0.000377  3.895001  0.0
C  C69  1  0.44952858  0.78303475  0.04418342  1  -0.175462  0.003074  3.687814  0.003  -0.202804  0.001538  3.952858  0.001  0.015299  0.001465  -0.083522  -0.187258  0.001227  3.920427  0.001
C  C70  1  0.55047083  0.21696836  0.95581570  1  -0.175573  0.003064  3.687891  0.003  -0.202888  0.001539  3.952921  0.001  0.015364  0.001464  -0.083518  -0.187338  0.001226  3.920489  0.001
C  C71  1  0.38673068  0.65045321  0.04903000  1  0.164997  -0.002737  3.710623  -0.002  0.189843  -0.000948  3.965173  -0.001  -0.050136  -0.000583  0.016254  0.1761  -0.000465  3.932369  0.0
C  C72  1  0.61327383  0.34954792  0.95096957  1  0.165108  -0.002726  3.710491  -0.002  0.189871  -0.000948  3.965076  -0.001  -0.050038  -0.000583  0.016313  0.176127  -0.000465  3.932274  0.0
C  C73  1  0.20380412  0.62552922  0.04765008  1  -0.182792  0.003005  3.710974  0.003  -0.208688  0.00147  3.977777  0.001  -0.077163  0.001424  -0.089264  -0.193548  0.001173  3.944473  0.001
C  C74  1  0.79620530  0.37446792  0.95235063  1  -0.182794  0.002993  3.710984  0.003  -0.208664  0.00147  3.977778  0.001  -0.077376  0.001424  -0.089279  -0.193524  0.001173  3.944477  0.001
C  C75  1  0.09248453  0.72923434  0.03745111  1  0.135888  -0.002213  3.69355  -0.002  0.113678  -0.000269  3.974777  -0.001  0.480694  7.6e-05  0.047751  0.092557  0.000325  3.945632  0.0
C  C76  1  0.90751825  0.27076280  0.96255047  1  0.135778  -0.002206  3.693727  -0.002  0.113635  -0.000269  3.974957  -0.001  0.480754  7.7e-05  0.047731  0.092509  0.000325  3.945815  0.0
C  C77  1  0.51048528  0.54053526  0.05354683  1  -0.154323  1.7e-05  3.679207  0.0  -0.198515  -9e-06  3.935442  0.0  0.018707  2.9e-05  -0.155221  -0.19546  2.9e-05  3.917994  0.0
C  C78  1  0.48952342  0.45946786  0.94645014  1  -0.154435  9e-06  3.679219  0.0  -0.198454  -8e-06  3.935301  0.0  -0.004301  2.8e-05  -0.155221  -0.195397  3e-05  3.917853  0.0
C  C79  1  0.46455195  0.87009402  0.33981394  1  0.135572  -1e-05  3.659404  0.0  0.103545  -4e-06  3.934153  0.0  0.445681  -1.7e-05  0.056064  0.089884  -1.5e-05  3.907432  0.0
C  C80  1  0.53544706  0.12990511  0.66018733  1  0.135582  0.0  3.659441  0.0  0.10357  -4e-06  3.934172  0.0  0.445693  -1.7e-05  0.056071  0.089914  -1.5e-05  3.907446  0.0
C  C81  1  0.63045234  0.93702479  0.34856440  1  -0.175289  2.4e-05  3.687185  0.0  -0.203759  1.6e-05  3.961325  0.0  -0.027832  4.2e-05  -0.080457  -0.187311  3.3e-05  3.925124  0.0
C  C82  1  0.36954544  0.06297534  0.65143444  1  -0.175352  2.5e-05  3.687141  0.0  -0.203785  1.7e-05  3.961299  0.0  -0.027859  4.2e-05  -0.080466  -0.187344  3.3e-05  3.925099  0.0
C  C83  1  0.70033214  0.87352491  0.52819095  1  -0.175143  1.1e-05  3.67771  0.0  -0.201246  5e-06  3.948679  0.0  -0.035585  4e-06  -0.081586  -0.185843  4e-06  3.91427  0.0
C  C84  1  0.29967452  0.12647123  0.47180711  1  -0.175364  5e-06  3.677872  0.0  -0.201437  6e-06  3.948825  0.0  -0.035965  4e-06  -0.081651  -0.186035  4e-06  3.914418  0.0
C  C85  1  0.53156431  0.80920190  0.51480386  1  0.136426  -1.1e-05  3.679942  0.0  0.106534  -1.2e-05  3.950701  0.0  0.393573  -2.7e-05  0.057577  0.091496  -2.2e-05  3.921517  0.0
C  C86  1  0.46844132  0.19079723  0.48519653  1  0.136511  -1.4e-05  3.679896  0.0  0.106627  -1.1e-05  3.950617  0.0  0.393164  -2.8e-05  0.057562  0.091587  -2.2e-05  3.921435  0.0
C  C87  1  0.75248227  0.94061095  0.44434000  1  0.186627  1e-06  3.65936  0.0  0.205005  5e-06  3.920272  0.0  0.011149  3e-05  0.030197  0.192841  2.5e-05  3.886048  0.0
C  C88  1  0.24751826  0.05939017  0.55565761  1  0.18671  -1e-06  3.659305  0.0  0.205055  5e-06  3.920234  0.0  0.011054  3e-05  0.03022  0.192889  2.5e-05  3.886011  0.0
C  C89  1  0.93006787  0.01720224  0.45374088  1  -0.165617  -9e-06  3.685876  0.0  -0.20899  -1.3e-05  3.943278  0.0  -0.040046  -2.7e-05  -0.15667  -0.206135  -2.4e-05  3.924979  0.0
C  C90  1  0.06993124  0.98279789  0.54625966  1  -0.16569  -1.4e-05  3.685875  0.0  -0.209055  -1.5e-05  3.943305  0.0  -0.016822  -2.6e-05  -0.156657  -0.206197  -2.4e-05  3.925002  0.0
N  N91  1  0.15416788  0.85597431  0.02856619  1  -0.246214  0.021308  3.342702  0.02  -0.236877  0.016664  3.650566  0.014  -1.208264  0.019  -0.332239  -0.172544  0.015444  3.613475  0.013
N  N92  1  0.84582837  0.14402383  0.97143553  1  -0.246162  0.021303  3.342699  0.02  -0.236918  0.016664  3.650627  0.014  -1.208332  0.019  -0.332228  -0.172583  0.015445  3.613539  0.013
N  N93  1  0.41817606  0.80836384  0.42257558  1  -0.24097  1e-06  3.449674  0.0  -0.18479  -3e-06  3.694069  0.0  -1.307415  -8e-06  -0.334524  -0.156869  -4e-06  3.666998  0.0
N  N94  1  0.58182580  0.19163729  0.57742683  1  -0.240905  -3e-06  3.449633  0.0  -0.184703  -2e-06  3.694107  0.0  -1.306983  -8e-06  -0.334462  -0.156783  -4e-06  3.667031  0.0
O  O95  1  0.18092060  0.11963732  0.08691923  1  -0.56965  -0.025537  2.160075  -0.027  -0.598589  -0.017156  2.448283  -0.018  -1.10054  -0.022119  -0.299324  -0.505406  -0.017037  2.454269  -0.018
O  O96  1  0.81907300  0.88036082  0.91308299  1  -0.569537  -0.025531  2.160176  -0.027  -0.598474  -0.017153  2.448386  -0.018  -1.100527  -0.022116  -0.299308  -0.505295  -0.017034  2.454364  -0.018
O  O97  1  0.02920059  0.17875178  0.21737949  1  -0.602031  0.000489  1.964629  0.0  -0.581219  0.000347  2.176987  0.0  -1.185179  8.8e-05  -0.308587  -0.537418  0.00021  2.192159  0.0
O  O98  1  0.97079453  0.82124835  0.78261986  1  -0.602102  0.000492  1.964424  0.0  -0.581312  0.000345  2.176781  0.0  -1.185299  8.7e-05  -0.308613  -0.537499  0.000209  2.19194  0.0
O  O99  1  0.04765668  0.79840957  0.26983512  1  -0.651453  -5.8e-05  1.950878  0.0  -0.625589  -2.2e-05  2.165826  0.0  -1.204764  -4.4e-05  -0.330704  -0.582681  -3.9e-05  2.178934  0.0
O  O100  1  0.95234529  0.20159255  0.73016578  1  -0.651332  -5.7e-05  1.951011  0.0  -0.625429  -2.1e-05  2.165941  0.0  -1.204856  -4.5e-05  -0.330618  -0.582517  -4e-05  2.179051  0.0
O  O101  1  0.12479467  0.66914943  0.40582957  1  -0.60167  -5e-06  1.965538  0.0  -0.57294  -7e-06  2.177414  0.0  -1.182696  -4e-06  -0.328609  -0.530961  -3e-06  2.190524  0.0
O  O102  1  0.87520669  0.33084672  0.59416949  1  -0.601742  -6e-06  1.965503  0.0  -0.57293  -7e-06  2.177421  0.0  -1.182675  -3e-06  -0.328635  -0.530949  -2e-06  2.190529  0.0
O  O103  1  0.18304710  0.04886359  0.84378311  1  -0.843373  0.002936  1.827143  0.003  -0.820044  0.002532  1.963636  0.003  -1.292595  0.003786  -0.603791  -0.788724  0.003107  2.024443  0.003
O  O104  1  0.81695273  0.95113057  0.15621728  1  -0.84344  0.002937  1.827086  0.003  -0.820139  0.002531  1.963596  0.003  -1.292599  0.003785  -0.603809  -0.788819  0.003106  2.024399  0.003
