# generated using pymatgen
data_CdH7C8NO6
_symmetry_space_group_name_H-M   'P 1'
_cell_length_a   6.13181975
_cell_length_b   7.97732574
_cell_length_c   18.95830385
_cell_angle_alpha   90.00038571
_cell_angle_beta   98.94645058
_cell_angle_gamma   89.99993444
_symmetry_Int_Tables_number   1
_chemical_formula_structural   CdH7C8NO6
_chemical_formula_sum   'Cd4 H28 C32 N4 O24'
_cell_volume   916.07325880
_cell_formula_units_Z   4
loop_
 _symmetry_equiv_pos_site_id
 _symmetry_equiv_pos_as_xyz
  1  'x, y, z'
loop_
 _atom_site_type_symbol
 _atom_site_label
 _atom_site_symmetry_multiplicity
 _atom_site_fract_x
 _atom_site_fract_y
 _atom_site_fract_z
 _atom_site_occupancy
 _atom_site_hle17_bader_spin_density
 _atom_site_hle17_ddec_charge
 _atom_site_hle17_ddec_spin_density
 _atom_site_hle17_ddec_sum_bond_order
 _atom_site_hle17_magmom
 _atom_site_hse06_10hf_bader_spin_density
 _atom_site_hse06_10hf_ddec_charge
 _atom_site_hse06_10hf_ddec_spin_density
 _atom_site_hse06_10hf_ddec_sum_bond_order
 _atom_site_hse06_10hf_magmom
 _atom_site_hse06_bader_spin_density
 _atom_site_hse06_ddec_charge
 _atom_site_hse06_ddec_spin_density
 _atom_site_hse06_ddec_sum_bond_order
 _atom_site_hse06_magmom
 _atom_site_pbe_bader_spin_density
 _atom_site_pbe_cm5_charge
 _atom_site_pbe_ddec_charge
 _atom_site_pbe_ddec_spin_density
 _atom_site_pbe_ddec_sum_bond_order
 _atom_site_pbe_magmom
Cd  Cd0  1  0.18532206  0.15894474  0.70316049  1  0  1.287164  0  1.50831  0  0  1.117558  0  1.942545  0  0  1.178623  0  1.881692  0  0  0.790734  1.073459  0  1.984628  0
Cd  Cd1  1  0.31466634  0.65894883  0.79683799  1  0  1.287163  0  1.50832  0  0  1.11754  0  1.942589  0  0  1.178604  0  1.881731  0  0  0.790728  1.073441  0  1.984673  0
Cd  Cd2  1  0.81468021  0.84106205  0.29683881  1  0  1.2872  0  1.508322  0  0  1.117566  0  1.942575  0  0  1.178628  0  1.881724  0  0  0.790764  1.07347  0  1.984667  0
Cd  Cd3  1  0.68533098  0.34105545  0.20316317  1  0  1.287181  0  1.508286  0  0  1.117528  0  1.942556  0  0  1.178589  0  1.8817  0  0  0.790744  1.073433  0  1.984646  0
H  H4  1  0.75126199  0.03440098  0.63782468  1  0  0.441573  0  0.853127  0  0  0.409483  0  0.918294  0  0  0.420789  0  0.901953  0  0  0.290232  0.401396  0  0.92997  0
H  H5  1  0.74873155  0.53440240  0.86217324  1  0  0.441592  0  0.853094  0  0  0.409476  0  0.918306  0  0  0.420785  0  0.90196  0  0  0.290236  0.401387  0  0.929986  0
H  H6  1  0.24873863  0.96561082  0.36217507  1  0  0.441652  0  0.852995  0  0  0.409558  0  0.918176  0  0  0.420868  0  0.901829  0  0  0.29027  0.401476  0  0.929842  0
H  H7  1  0.25127402  0.46560564  0.13782623  1  0  0.441528  0  0.853203  0  0  0.409456  0  0.918328  0  0  0.420764  0  0.901988  0  0  0.290227  0.401372  0  0.929999  0
H  H8  1  0.89593086  0.87922066  0.67441729  1  0  0.437837  0  0.855633  0  0  0.405021  0  0.921351  0  0  0.416398  0  0.904881  0  0  0.292549  0.39694  0  0.933036  0
H  H9  1  0.60406264  0.37922360  0.82558108  1  0  0.437757  0  0.855772  0  0  0.404978  0  0.921437  0  0  0.416357  0  0.904964  0  0  0.292535  0.396899  0  0.933117  0
H  H10  1  0.10406480  0.12079114  0.32558379  1  0  0.438031  0  0.8554  0  0  0.405169  0  0.921192  0  0  0.416545  0  0.904723  0  0  0.292651  0.39709  0  0.932875  0
H  H11  1  0.39594292  0.62078318  0.17441944  1  0  0.437821  0  0.855678  0  0  0.404982  0  0.921438  0  0  0.416361  0  0.904965  0  0  0.29252  0.396904  0  0.933116  0
H  H12  1  0.14436188  0.41803981  0.47729055  1  0  0.099981  0  0.935351  0  0  0.108174  0  1.00367  0  0  0.11138  0  1.000079  0  0  0.126777  0.105707  0  1.006524  0
H  H13  1  0.35564086  0.91803073  0.02270958  1  0  0.100033  0  0.935301  0  0  0.10822  0  1.003629  0  0  0.111419  0  1.000058  0  0  0.126813  0.105746  0  1.006487  0
H  H14  1  0.85562883  0.58195193  0.52270711  1  0  0.099917  0  0.935417  0  0  0.108126  0  1.003715  0  0  0.111324  0  1.000141  0  0  0.126753  0.105617  0  1.006618  0
H  H15  1  0.64437791  0.08194848  0.97729635  1  0  0.099889  0  0.935453  0  0  0.10811  0  1.003748  0  0  0.111314  0  1.000167  0  0  0.126748  0.1056  0  1.006649  0
H  H16  1  0.73356529  0.11657667  0.51522089  1  0  0.109798  0  0.926917  0  0  0.123848  0  0.981902  0  0  0.127028  0  0.978813  0  0  0.114496  0.121491  0  0.98415  0
H  H17  1  0.76642329  0.61659131  0.98477754  1  0  0.109778  0  0.926883  0  0  0.123876  0  0.981808  0  0  0.127054  0  0.978721  0  0  0.114535  0.121525  0  0.984052  0
H  H18  1  0.26643202  0.88340504  0.48478027  1  0  0.109793  0  0.927157  0  0  0.123898  0  0.982052  0  0  0.127076  0  0.978961  0  0  0.11455  0.121543  0  0.984298  0
H  H19  1  0.23357072  0.38340294  0.01521818  1  0  0.109829  0  0.927028  0  0  0.123923  0  0.981948  0  0  0.127099  0  0.978859  0  0  0.11457  0.12157  0  0.984196  0
H  H20  1  0.81820338  0.20167062  0.39630213  1  0  0.133856  0  0.953496  0  0  0.142752  0  1.013298  0  0  0.14666  0  1.012344  0  0  0.109862  0.139899  0  1.014402  0
H  H21  1  0.68180121  0.70168304  0.10369859  1  0  0.133936  0  0.953522  0  0  0.142776  0  1.013365  0  0  0.146684  0  1.012411  0  0  0.109879  0.139929  0  1.014462  0
H  H22  1  0.18178402  0.79833491  0.60370012  1  0  0.133845  0  0.953457  0  0  0.142739  0  1.01328  0  0  0.146649  0  1.012326  0  0  0.109836  0.139885  0  1.014391  0
H  H23  1  0.31820601  0.29832375  0.89629779  1  0  0.133891  0  0.953437  0  0  0.142766  0  1.013285  0  0  0.146677  0  1.012328  0  0  0.109869  0.139912  0  1.014391  0
H  H24  1  0.31209049  0.63130054  0.33351123  1  0  0.138484  0  0.928864  0  0  0.147359  0  0.992294  0  0  0.150709  0  0.989699  0  0  0.126972  0.144939  0  0.994214  0
H  H25  1  0.18791889  0.13129461  0.16649053  1  0  0.138512  0  0.928908  0  0  0.147436  0  0.992271  0  0  0.150787  0  0.989677  0  0  0.126991  0.145016  0  0.994188  0
H  H26  1  0.68790353  0.36870750  0.66648818  1  0  0.138572  0  0.928862  0  0  0.147488  0  0.992213  0  0  0.15084  0  0.989617  0  0  0.127044  0.145068  0  0.994134  0
H  H27  1  0.81208008  0.86870340  0.83350913  1  0  0.138474  0  0.928934  0  0  0.147404  0  0.992298  0  0  0.150757  0  0.989698  0  0  0.127007  0.144988  0  0.994215  0
H  H28  1  0.11279988  0.60927993  0.39215099  1  0  0.125088  0  0.956451  0  0  0.137721  0  1.019865  0  0  0.140401  0  1.017782  0  0  0.122719  0.135789  0  1.02138  0
H  H29  1  0.38720619  0.10927415  0.10784896  1  0  0.125108  0  0.956433  0  0  0.137731  0  1.019859  0  0  0.140412  0  1.017779  0  0  0.122702  0.1358  0  1.02137  0
H  H30  1  0.88718752  0.39072435  0.60785073  1  0  0.125098  0  0.956617  0  0  0.137768  0  1.019951  0  0  0.140451  0  1.017866  0  0  0.122754  0.135837  0  1.02147  0
H  H31  1  0.61279773  0.89072763  0.89214937  1  0  0.125059  0  0.956546  0  0  0.137749  0  1.019898  0  0  0.140432  0  1.017809  0  0  0.122732  0.135815  0  1.021415  0
C  C32  1  0.29432831  0.36684703  0.46172831  1  0  0.103411  0  3.649132  0  0  0.048841  0  3.906842  0  0  0.062156  0  3.921773  0  0  0.060121  0.039896  0  3.89772  0
C  C33  1  0.20567279  0.86684585  0.03827054  1  0  0.103386  0  3.648977  0  0  0.048776  0  3.906673  0  0  0.06209  0  3.9216  0  0  0.060096  0.039838  0  3.89757  0
C  C34  1  0.70565911  0.63315725  0.53826497  1  0  0.10364  0  3.649073  0  0  0.0491  0  3.906777  0  0  0.062427  0  3.921693  0  0  0.06028  0.040236  0  3.89758  0
C  C35  1  0.79434433  0.13314840  0.96173531  1  0  0.103654  0  3.649205  0  0  0.049082  0  3.906923  0  0  0.062401  0  3.921842  0  0  0.060216  0.040208  0  3.897736  0
C  C36  1  0.42789604  0.25781328  0.50516741  1  0  -0.159589  0  3.803526  0  0  -0.141455  0  4.06132  0  0  -0.157693  0  4.084936  0  0  -0.037299  -0.131038  0  4.045307  0
C  C37  1  0.07209235  0.75781447  0.99483188  1  0  -0.159409  0  3.803268  0  0  -0.141422  0  4.061255  0  0  -0.157661  0  4.084872  0  0  -0.037277  -0.131018  0  4.045271  0
C  C38  1  0.57208642  0.74218724  0.49482351  1  0  -0.159294  0  3.803757  0  0  -0.141427  0  4.061862  0  0  -0.157667  0  4.085472  0  0  -0.037359  -0.131031  0  4.045888  0
C  C39  1  0.92792313  0.24217602  0.00517547  1  0  -0.159591  0  3.803928  0  0  -0.141644  0  4.061982  0  0  -0.157889  0  4.085595  0  0  -0.03736  -0.131213  0  4.045954  0
C  C40  1  0.62298090  0.20059709  0.48116964  1  0  0.024169  0  3.701089  0  0  -0.011531  0  3.962673  0  0  -0.001009  0  3.976447  0  0  -0.062657  -0.017968  0  3.952991  0
C  C41  1  0.87700884  0.70061049  0.01883244  1  0  0.024179  0  3.701036  0  0  -0.011514  0  3.962625  0  0  -0.000986  0  3.976392  0  0  -0.062698  -0.017953  0  3.952952  0
C  C42  1  0.37702302  0.79940092  0.51882130  1  0  0.023958  0  3.701499  0  0  -0.011723  0  3.963157  0  0  -0.001193  0  3.97693  0  0  -0.062812  -0.018171  0  3.953508  0
C  C43  1  0.12298352  0.29939254  0.98117480  1  0  0.024097  0  3.701365  0  0  -0.011604  0  3.963008  0  0  -0.001076  0  3.976784  0  0  -0.062766  -0.018055  0  3.953336  0
C  C44  1  0.67210318  0.24863144  0.41585209  1  0  -0.227117  0  3.662027  0  0  -0.245241  0  3.923897  0  0  -0.258503  0  3.94066  0  0  -0.096531  -0.236878  0  3.912907  0
C  C45  1  0.82789315  0.74864091  0.08414941  1  0  -0.227264  0  3.66226  0  0  -0.245315  0  3.924131  0  0  -0.258576  0  3.94089  0  0  -0.096564  -0.236947  0  3.913141  0
C  C46  1  0.32789084  0.75137409  0.58414047  1  0  -0.227035  0  3.661915  0  0  -0.245161  0  3.923762  0  0  -0.258432  0  3.940535  0  0  -0.096486  -0.236787  0  3.912756  0
C  C47  1  0.17210581  0.25136462  0.91585658  1  0  -0.227047  0  3.661952  0  0  -0.245164  0  3.92375  0  0  -0.25843  0  3.940512  0  0  -0.096491  -0.236801  0  3.912764  0
C  C48  1  0.53016455  0.35888613  0.37012796  1  0  0.522427  0  3.805425  0  0  0.481867  0  4.079304  0  0  0.511358  0  4.081565  0  0  0.225335  0.462339  0  4.076957  0
C  C49  1  0.96983508  0.85888492  0.12987243  1  0  0.522599  0  3.805515  0  0  0.481941  0  4.079403  0  0  0.511431  0  4.081665  0  0  0.225364  0.462412  0  4.077062  0
C  C50  1  0.46983277  0.64112316  0.62987267  1  0  0.522378  0  3.804989  0  0  0.481884  0  4.078726  0  0  0.511379  0  4.080989  0  0  0.225372  0.462354  0  4.076383  0
C  C51  1  0.03016224  0.14111560  0.87012556  1  0  0.522294  0  3.805407  0  0  0.481847  0  4.079082  0  0  0.511342  0  4.081339  0  0  0.225325  0.462318  0  4.076735  0
C  C52  1  0.36544143  0.21135218  0.57540702  1  0  0.644843  0  3.953  0  0  0.594656  0  4.244593  0  0  0.62957  0  4.240039  0  0  0.196866  0.571122  0  4.246578  0
C  C53  1  0.13455192  0.71135972  0.92459397  1  0  0.644771  0  3.953098  0  0  0.594627  0  4.24467  0  0  0.629542  0  4.240119  0  0  0.196946  0.571095  0  4.246651  0
C  C54  1  0.63454928  0.78863956  0.42459697  1  0  0.64463  0  3.953357  0  0  0.594522  0  4.244933  0  0  0.629434  0  4.240381  0  0  0.196955  0.570985  0  4.246929  0
C  C55  1  0.86546356  0.28863579  0.07540230  1  0  0.644807  0  3.953424  0  0  0.594659  0  4.24501  0  0  0.629574  0  4.240457  0  0  0.196928  0.571109  0  4.247015  0
C  C56  1  0.20670307  0.54169179  0.35634724  1  0  -0.188275  0  3.642457  0  0  -0.250806  0  3.892229  0  0  -0.251486  0  3.896934  0  0  -0.063773  -0.250171  0  3.88906  0
C  C57  1  0.29330632  0.04168415  0.14365426  1  0  -0.188486  0  3.642552  0  0  -0.251082  0  3.892235  0  0  -0.251765  0  3.896945  0  0  -0.063831  -0.250438  0  3.889057  0
C  C58  1  0.79332561  0.45830246  0.64366183  1  0  -0.188185  0  3.642703  0  0  -0.250778  0  3.892404  0  0  -0.251462  0  3.897099  0  0  -0.063797  -0.250152  0  3.889257  0
C  C59  1  0.70668274  0.95830634  0.85634279  1  0  -0.18816  0  3.642503  0  0  -0.250774  0  3.892218  0  0  -0.25145  0  3.896918  0  0  -0.063769  -0.250143  0  3.889065  0
C  C60  1  0.04252655  0.46947546  0.29618977  1  0  0.708112  0  3.832874  0  0  0.65516  0  4.131028  0  0  0.690144  0  4.123591  0  0  0.2142  0.631279  0  4.135325  0
C  C61  1  0.45747619  0.96946916  0.20380840  1  0  0.708404  0  3.832677  0  0  0.655442  0  4.130842  0  0  0.69042  0  4.123409  0  0  0.214321  0.631553  0  4.135156  0
C  C62  1  0.95745591  0.53052882  0.70380748  1  0  0.708387  0  3.832941  0  0  0.655413  0  4.131051  0  0  0.6904  0  4.123601  0  0  0.214322  0.631518  0  4.135379  0
C  C63  1  0.54252608  0.03053136  0.79619301  1  0  0.708397  0  3.83266  0  0  0.655419  0  4.130833  0  0  0.690399  0  4.12339  0  0  0.214313  0.631523  0  4.13516  0
N  N64  1  0.34498669  0.41802656  0.39830736  1  0  -0.118158  0  3.502755  0  0  -0.026233  0  3.717006  0  0  -0.046004  0  3.740729  0  0  -0.233151  -0.013255  0  3.700682  0
N  N65  1  0.15501275  0.91802017  0.10169208  1  0  -0.118236  0  3.502769  0  0  -0.02605  0  3.716751  0  0  -0.04582  0  3.740475  0  0  -0.233046  -0.013072  0  3.700425  0
N  N66  1  0.65502218  0.58196268  0.60169122  1  0  -0.118708  0  3.502804  0  0  -0.026658  0  3.716958  0  0  -0.046432  0  3.740676  0  0  -0.23326  -0.01368  0  3.700634  0
N  N67  1  0.84498126  0.08196782  0.89830944  1  0  -0.118476  0  3.502894  0  0  -0.026494  0  3.717077  0  0  -0.046268  0  3.740798  0  0  -0.233177  -0.013516  0  3.700748  0
O  O68  1  0.49412209  0.12277016  0.61928211  1  0  -0.656207  0  2.019749  0  0  -0.593949  0  2.25127  0  0  -0.622328  0  2.243843  0  0  -0.315038  -0.57398  0  2.255631  0
O  O69  1  0.00587621  0.62277335  0.88071729  1  0  -0.65621  0  2.019739  0  0  -0.593915  0  2.251232  0  0  -0.622299  0  2.243804  0  0  -0.315043  -0.573946  0  2.255603  0
O  O70  1  0.50588513  0.87722284  0.38071797  1  0  -0.65611  0  2.019748  0  0  -0.593843  0  2.251236  0  0  -0.622224  0  2.243807  0  0  -0.31504  -0.573876  0  2.255604  0
O  O71  1  0.99411285  0.37722467  0.11928081  1  0  -0.656134  0  2.01974  0  0  -0.593851  0  2.2512  0  0  -0.622228  0  2.243764  0  0  -0.315044  -0.573895  0  2.2556  0
O  O72  1  0.90335807  0.98704105  0.64884550  1  0  -0.85796  0  1.821811  0  0  -0.794421  0  2.018756  0  0  -0.818155  0  1.982728  0  0  -0.588579  -0.777541  0  2.043957  0
O  O73  1  0.59663377  0.48704691  0.85115151  1  0  -0.857911  0  1.821851  0  0  -0.794396  0  2.018758  0  0  -0.81813  0  1.982735  0  0  -0.588585  -0.777519  0  2.043959  0
O  O74  1  0.09664089  0.01296825  0.35115416  1  0  -0.858193  0  1.821492  0  0  -0.794655  0  2.018504  0  0  -0.818389  0  1.982476  0  0  -0.588724  -0.777773  0  2.043703  0
O  O75  1  0.40337180  0.51296113  0.14884796  1  0  -0.857914  0  1.821863  0  0  -0.794399  0  2.01885  0  0  -0.818137  0  1.98282  0  0  -0.588546  -0.777515  0  2.04404  0
O  O76  1  0.18021769  0.26639839  0.58962399  1  0  -0.6642  0  1.984777  0  0  -0.600792  0  2.231168  0  0  -0.632618  0  2.223382  0  0  -0.336619  -0.578327  0  2.235525  0
O  O77  1  0.31976739  0.76640052  0.91037199  1  0  -0.664223  0  1.985001  0  0  -0.60081  0  2.231389  0  0  -0.632637  0  2.223605  0  0  -0.336703  -0.578337  0  2.235727  0
O  O78  1  0.81975816  0.73360839  0.41037293  1  0  -0.664205  0  1.985041  0  0  -0.600749  0  2.231368  0  0  -0.63259  0  2.223625  0  0  -0.336717  -0.578276  0  2.235704  0
O  O79  1  0.68026954  0.23359498  0.08963538  1  0  -0.66424  0  1.985157  0  0  -0.60082  0  2.231565  0  0  -0.632645  0  2.223775  0  0  -0.336725  -0.578349  0  2.235923  0
O  O80  1  0.55369623  0.41163515  0.30945814  1  0  -0.6  0  2.072142  0  0  -0.546676  0  2.329358  0  0  -0.573018  0  2.320325  0  0  -0.31217  -0.528121  0  2.334818  0
O  O81  1  0.94631164  0.91163492  0.19054229  1  0  -0.600057  0  2.072071  0  0  -0.546756  0  2.329366  0  0  -0.573097  0  2.320333  0  0  -0.312204  -0.528197  0  2.334831  0
O  O82  1  0.44629778  0.58835910  0.69054918  1  0  -0.599946  0  2.071703  0  0  -0.54676  0  2.329072  0  0  -0.573106  0  2.320037  0  0  -0.312211  -0.528203  0  2.334533  0
O  O83  1  0.05368237  0.08836434  0.80945132  1  0  -0.599894  0  2.071917  0  0  -0.546739  0  2.329291  0  0  -0.57308  0  2.320252  0  0  -0.3122  -0.52818  0  2.334753  0
O  O84  1  0.91568172  0.57499259  0.25937512  1  0  -0.671149  0  2.047994  0  0  -0.595665  0  2.308187  0  0  -0.629644  0  2.297264  0  0  -0.320681  -0.571714  0  2.314834  0
O  O85  1  0.58432289  0.07497665  0.24062524  1  0  -0.671229  0  2.047942  0  0  -0.59572  0  2.308113  0  0  -0.629694  0  2.297191  0  0  -0.320749  -0.571766  0  2.314767  0
O  O86  1  0.08430899  0.42502297  0.74062202  1  0  -0.671367  0  2.047901  0  0  -0.595851  0  2.308134  0  0  -0.629829  0  2.297206  0  0  -0.320838  -0.571888  0  2.314781  0
O  O87  1  0.41568103  0.92502512  0.75937625  1  0  -0.671246  0  2.047948  0  0  -0.595711  0  2.308138  0  0  -0.629688  0  2.297217  0  0  -0.320729  -0.571752  0  2.314788  0
O  O88  1  0.02781061  0.31319618  0.28474565  1  0  -0.634116  0  1.998085  0  0  -0.565646  0  2.232953  0  0  -0.59472  0  2.221823  0  0  -0.304337  -0.545266  0  2.240032  0
O  O89  1  0.47220369  0.81319256  0.21525529  1  0  -0.63422  0  1.997984  0  0  -0.565802  0  2.232934  0  0  -0.594881  0  2.221817  0  0  -0.304426  -0.545405  0  2.239979  0
O  O90  1  0.97218835  0.68679682  0.71525559  1  0  -0.634032  0  1.998104  0  0  -0.56564  0  2.233082  0  0  -0.594719  0  2.221959  0  0  -0.304318  -0.545242  0  2.240132  0
O  O91  1  0.52779527  0.18680545  0.78474385  1  0  -0.634189  0  1.997954  0  0  -0.565773  0  2.232896  0  0  -0.594875  0  2.221827  0  0  -0.304423  -0.545375  0  2.239946  0
