# generated using pymatgen
data_Zn4H39C39N9O16
_symmetry_space_group_name_H-M   'P 1'
_cell_length_a   18.55106574
_cell_length_b   19.18044861
_cell_length_c   19.94465719
_cell_angle_alpha   62.79355405
_cell_angle_beta   64.66824272
_cell_angle_gamma   61.29966679
_symmetry_Int_Tables_number   1
_chemical_formula_structural   Zn4H39C39N9O16
_chemical_formula_sum   'Zn8 H78 C78 N18 O32'
_cell_volume   5335.10641493
_cell_formula_units_Z   2
loop_
 _symmetry_equiv_pos_site_id
 _symmetry_equiv_pos_as_xyz
  1  'x, y, z'
loop_
 _atom_site_type_symbol
 _atom_site_label
 _atom_site_symmetry_multiplicity
 _atom_site_fract_x
 _atom_site_fract_y
 _atom_site_fract_z
 _atom_site_occupancy
 _atom_site_pbe_bader_charge
 _atom_site_pbe_bader_spin_density
 _atom_site_pbe_cm5_charge
 _atom_site_pbe_ddec_charge
 _atom_site_pbe_ddec_spin_density
 _atom_site_pbe_ddec_sum_bond_order
 _atom_site_pbe_magmom
Zn  Zn0  1  0.08837147  0.90288804  0.00391008  1  1.302276  0  0.663738  0.952124  0  2.373252  0
Zn  Zn1  1  0.12228661  0.06103690  0.85576229  1  1.317059  0  0.67061  0.961564  0  2.35774  0
Zn  Zn2  1  0.06613122  0.06753095  0.03000960  1  1.323727  0  0.676552  0.96996  0  2.350066  0
Zn  Zn3  1  0.93289096  0.07322198  0.96706707  1  1.305754  0  0.6669  0.945458  0  2.39499  0
Zn  Zn4  1  0.50971324  0.63692512  0.41730057  1  1.311546  0  0.668209  0.955456  0  2.398362  0
Zn  Zn5  1  0.54261144  0.49693226  0.58263352  1  1.315712  0  0.672982  0.966244  0  2.357844  0
Zn  Zn6  1  0.67094677  0.47065970  0.41889829  1  1.312332  0  0.670146  0.953655  0  2.401299  0
Zn  Zn7  1  0.48464857  0.46335422  0.47294286  1  1.313104  0  0.669976  0.95452  0  2.371911  0
H  H8  1  0.31374119  0.76372191  0.84971393  1  0.061681  0  0.105217  0.121877  0  0.96726  0
H  H9  1  0.33979659  0.85219695  0.77420501  1  0.056684  0  0.107958  0.127316  0  0.965017  0
H  H10  1  0.18790340  0.88116548  0.75213205  1  0.066854  0  0.104945  0.109391  0  0.979501  0
H  H11  1  0.23161700  0.76962282  0.78284922  1  0.040508  0  0.099441  0.101697  0  0.969783  0
H  H12  1  0.40093649  0.87839924  0.53876929  1  0.447853  0  0.321929  0.250448  0  0.941295  0
H  H13  1  0.24050050  0.10480979  0.39050591  1  0.158304  0  0.111896  0.137639  0  1.013823  0
H  H14  1  0.10453939  0.22780166  0.40572072  1  0.082191  0  0.103041  0.073842  0  1.038232  0
H  H15  1  0.09966668  0.18037515  0.63186710  1  0.081531  0  0.100309  0.067821  0  1.021203  0
H  H16  1  0.22929968  0.05312103  0.62876274  1  0.144257  0  0.105312  0.119594  0  1.028898  0
H  H17  1  0.43746459  0.77100882  0.62158630  1  0.013643  0  0.1033  0.098837  0  0.979247  0
H  H18  1  0.39288240  0.70667868  0.71101850  1  0.073788  0  0.106772  0.118076  0  0.961484  0
H  H19  1  0.32000668  0.78340083  0.57002384  1  0.097363  0  0.105187  0.122179  0  0.983301  0
H  H20  1  0.30695322  0.69653347  0.65500940  1  0.086837  0  0.109652  0.127585  0  0.952145  0
H  H21  1  0.14528198  0.78775402  0.23528478  1  0.076793  0  0.103608  0.120021  0  0.96762  0
H  H22  1  0.13075506  0.88291554  0.24396539  1  0.071382  0  0.108821  0.126423  0  0.967588  0
H  H23  1  0.28357172  0.86409818  0.13206339  1  0.075539  0  0.107962  0.115652  0  0.97619  0
H  H24  1  0.29410103  0.75671489  0.17893142  1  0.021645  0  0.096182  0.096459  0  0.986486  0
H  H25  1  0.29129437  0.87952870  0.34191810  1  0.431592  0  0.32045  0.245603  0  0.945444  0
H  H26  1  0.38750355  0.09449160  0.18896602  1  0.141549  0  0.108951  0.128534  0  1.016312  0
H  H27  1  0.39872424  0.19270537  0.05086240  1  0.068094  0  0.101175  0.070525  0  1.024787  0
H  H28  1  0.23303878  0.12657553  0.02325989  1  0.05816  0  0.097241  0.06541  0  1.039762  0
H  H29  1  0.21858666  0.02544010  0.15527719  1  0.144097  0  0.107702  0.1232  0  1.029932  0
H  H30  1  0.28228231  0.77065016  0.37192978  1  0.040857  0  0.101596  0.097219  0  1.003396  0
H  H31  1  0.19768423  0.77053564  0.35323123  1  0.036603  0  0.103067  0.104721  0  0.969311  0
H  H32  1  0.34668949  0.66356093  0.27328966  1  0.066073  0  0.112619  0.128068  0  0.969914  0
H  H33  1  0.27387025  0.63121101  0.36186099  1  0.058804  0  0.109536  0.128572  0  0.961339  0
H  H34  1  0.88213267  0.80975271  0.05107241  1  0.044243  0  0.103387  0.118994  0  0.968952  0
H  H35  1  0.79567984  0.90577312  0.06099246  1  0.089379  0  0.107711  0.131562  0  0.969566  0
H  H36  1  0.84865341  0.86886339  0.18363882  1  0.080665  0  0.106064  0.111432  0  0.973646  0
H  H37  1  0.89044141  0.76436724  0.18188664  1  0.06796  0  0.100576  0.105481  0  0.968671  0
H  H38  1  0.59090636  0.85874030  0.26177745  1  0.4389  0  0.320361  0.249734  0  0.952857  0
H  H39  1  0.47071742  0.08547959  0.33883107  1  0.168063  0  0.111313  0.135645  0  1.025718  0
H  H40  1  0.50939443  0.20429426  0.31772000  1  0.060486  0  0.104171  0.073485  0  1.025697  0
H  H41  1  0.71032529  0.15714889  0.12518132  1  0.06551  0  0.1045  0.07355  0  1.005388  0
H  H42  1  0.68265368  0.03749502  0.13875569  1  0.160524  0  0.108294  0.126493  0  1.031901  0
H  H43  1  0.67040412  0.76878057  0.21662737  1  0.051578  0  0.103757  0.10136  0  0.993158  0
H  H44  1  0.78004586  0.71666644  0.17987165  1  0.049053  0  0.10557  0.113267  0  0.958118  0
H  H45  1  0.71474660  0.72785314  0.34471715  1  0.076078  0  0.110771  0.127335  0  0.960034  0
H  H46  1  0.80542022  0.64941589  0.30724536  1  0.059102  0  0.10936  0.128243  0  0.960293  0
H  H47  1  0.37755055  0.35801501  0.76850173  1  0.067941  0  0.106255  0.122288  0  0.976122  0
H  H48  1  0.43646029  0.27719184  0.72674855  1  0.074471  0  0.11042  0.123082  0  0.963916  0
H  H49  1  0.29626796  0.38509967  0.65492654  1  0.096027  0  0.105771  0.116473  0  0.99023  0
H  H50  1  0.25204529  0.37035837  0.75690560  1  0.009972  0  0.096989  0.097729  0  0.977113  0
H  H51  1  0.31850504  0.12529904  0.71596824  1  0.443206  0  0.31827  0.249266  0  0.95623  0
H  H52  1  0.30668934  0.17012345  0.47902221  1  0.114067  0  0.102978  0.109325  0  1.06341  0
H  H53  1  0.31917422  0.27625538  0.34653046  1  0.060741  0  0.113633  0.082523  0  0.966927  0
H  H54  1  0.43312444  0.37825567  0.39910395  1  0.075605  0  0.101544  0.074596  0  1.013585  0
H  H55  1  0.41992374  0.28098257  0.53493305  1  0.087153  0  0.102362  0.110701  0  1.031995  0
H  H56  1  0.33239757  0.13150382  0.80526057  1  0.04399  0  0.102111  0.099454  0  0.995538  0
H  H57  1  0.35640063  0.19667242  0.82578527  1  0.066904  0  0.106151  0.113948  0  0.97106  0
H  H58  1  0.17957506  0.27970474  0.84075553  1  0.067032  0  0.111908  0.128456  0  0.960638  0
H  H59  1  0.22920338  0.21731313  0.91722922  1  0.090828  0  0.10905  0.130445  0  1.000462  0
H  H60  1  0.84762107  0.30090198  0.56917092  1  0.074793  0  0.110132  0.129062  0  0.965653  0
H  H61  1  0.76508840  0.26048263  0.62346499  1  0.052567  0  0.109659  0.120334  0  0.966637  0
H  H62  1  0.72133626  0.36680396  0.70461080  1  0.105447  0  0.105712  0.118841  0  0.989191  0
H  H63  1  0.83354992  0.33820883  0.67338324  1  0.033331  0  0.100332  0.103775  0  0.964756  0
H  H64  1  0.78927665  0.12292261  0.88307290  1  0.475258  0  0.31526  0.25766  0  0.974371  0
H  H65  1  0.56306761  0.21456861  0.07240031  1  0.10693  0  0.105184  0.113216  0  1.033856  0
H  H66  1  0.41929575  0.32808901  0.08278427  1  0.095956  0  0.114763  0.083298  0  0.966908  0
H  H67  1  0.43124308  0.37868303  0.85385620  1  0.08588  0  0.105637  0.070742  0  0.992708  0
H  H68  1  0.57660522  0.27185988  0.83215035  1  0.097012  0  0.10449  0.111094  0  1.013585  0
H  H69  1  0.84567146  0.10191645  0.78157687  1  0.03239  0  0.102835  0.100847  0  0.992143  0
H  H70  1  0.85574983  0.15781980  0.68152974  1  0.044139  0  0.10499  0.10963  0  0.976816  0
H  H71  1  0.95845172  0.21084003  0.68211147  1  0.068858  0  0.114111  0.134972  0  0.972576  0
H  H72  1  0.99509200  0.10503826  0.69327734  1  0.068756  0  0.114401  0.136375  0  0.95435  0
H  H73  1  0.61825631  0.29363564  0.33047230  1  0.061658  0  0.108829  0.129504  0  0.966185  0
H  H74  1  0.71159444  0.25374578  0.36032996  1  0.089598  0  0.111615  0.127109  0  0.953913  0
H  H75  1  0.74408279  0.38590979  0.23789183  1  0.087957  0  0.103421  0.11333  0  0.997614  0
H  H76  1  0.68058742  0.37146017  0.20204292  1  0.008914  0  0.100362  0.106818  0  0.962146  0
H  H77  1  0.94122185  0.15534678  0.18612189  1  0.462711  0  0.309536  0.247836  0  0.991325  0
H  H78  1  0.15404511  0.20948871  0.17161953  1  0.098731  0  0.105882  0.114634  0  1.028512  0
H  H79  1  0.17778747  0.30561527  0.20603550  1  0.102937  0  0.11288  0.08006  0  0.970959  0
H  H80  1  0.93909169  0.35233425  0.36331701  1  0.061285  0  0.10938  0.078879  0  0.976105  0
H  H81  1  0.90299013  0.26331668  0.33196099  1  0.089498  0  0.104285  0.10968  0  1.024161  0
H  H82  1  0.82804670  0.15071666  0.20825850  1  0.010992  0  0.101607  0.102367  0  0.983083  0
H  H83  1  0.72349495  0.22141529  0.20493439  1  0.113518  0  0.098411  0.107419  0  1.046965  0
H  H84  1  0.84890805  0.29315697  0.07249372  1  0.053462  0  0.112171  0.130845  0  0.95484  0
H  H85  1  0.76395263  0.27677512  0.07003013  1  0.058561  0  0.109425  0.129818  0  0.964036  0
C  C86  1  0.22229497  0.88425023  0.85864961  1  1.549839  0  0.228868  0.665714  0  4.115471  0
C  C87  1  0.28828282  0.82697038  0.81077412  1  0.005247  0  -0.155298  -0.282237  0  3.867622  0
C  C88  1  0.24723938  0.82673378  0.75690469  1  -0.032644  0  -0.147182  -0.197427  0  3.928002  0
C  C89  1  0.30548468  0.83367299  0.67578816  1  0.645397  0  0.121657  0.200899  0  3.944002  0
C  C90  1  0.32920004  0.99998050  0.49649944  1  1.387344  0  0.253158  0.465442  0  4.092965  0
C  C91  1  0.24461911  0.06845925  0.50917936  1  -0.099456  0  0.001594  0.016511  0  3.969536  0
C  C92  1  0.20941534  0.11923519  0.44538186  1  -0.038167  0  -0.078782  -0.150764  0  3.904131  0
C  C93  1  0.13379922  0.18757810  0.45423043  1  0.525638  0  0.031508  0.086197  0  3.997348  0
C  C94  1  0.13028728  0.16113270  0.57954174  1  0.461515  0  0.024583  0.071365  0  4.042275  0
C  C95  1  0.20344872  0.08951009  0.57831666  1  -0.048474  0  -0.08879  -0.162759  0  3.978827  0
C  C96  1  0.37834284  0.75730861  0.65745028  1  -0.013545  0  -0.150616  -0.204907  0  3.940537  0
C  C97  1  0.35212842  0.72880156  0.61291105  1  -0.088132  0  -0.15703  -0.288653  0  3.904925  0
C  C98  1  0.42601948  0.66984165  0.56980597  1  1.564688  0  0.225374  0.660861  0  4.119468  0
C  C99  1  0.13231720  0.89546804  0.13278680  1  1.576066  0  0.230369  0.667704  0  4.105615  0
C  C100  1  0.16328655  0.84352383  0.20585138  1  -0.071886  0  -0.157473  -0.285865  0  3.875203  0
C  C101  1  0.26153952  0.81887683  0.18678067  1  -0.010169  0  -0.149473  -0.20163  0  3.917421  0
C  C102  1  0.28111011  0.82325148  0.25053208  1  0.634312  0  0.119113  0.194171  0  3.92964  0
C  C103  1  0.29526934  0.99411223  0.26613461  1  1.369421  0  0.252619  0.467386  0  4.080935  0
C  C104  1  0.30401731  0.05005632  0.18272470  1  0.005972  0  0.004971  0.0231  0  3.947717  0
C  C105  1  0.35344960  0.09991298  0.15275846  1  -0.053652  0  -0.082451  -0.151774  0  3.919699  0
C  C106  1  0.35917506  0.15447254  0.07599908  1  0.468118  0  0.028156  0.079266  0  4.011511  0
C  C107  1  0.26883001  0.11748425  0.05990543  1  0.513084  0  0.022696  0.070249  0  4.031754  0
C  C108  1  0.26042215  0.05966714  0.13483782  1  -0.05713  0  -0.08433  -0.14939  0  3.977179  0
C  C109  1  0.26642581  0.76027791  0.33093120  1  -0.016536  0  -0.151818  -0.191978  0  3.92213  0
C  C110  1  0.31592704  0.66764335  0.33307978  1  -0.007567  0  -0.15303  -0.279132  0  3.871671  0
C  C111  1  0.38701952  0.62286243  0.37300918  1  1.55868  0  0.230088  0.662427  0  4.112539  0
C  C112  1  0.91718836  0.90764757  0.03863751  1  1.5413  0  0.227674  0.663617  0  4.117249  0
C  C113  1  0.85638145  0.86101815  0.07490876  1  -0.030323  0  -0.157961  -0.288463  0  3.88025  0
C  C114  1  0.84196099  0.82673235  0.16535512  1  -0.043948  0  -0.147907  -0.20178  0  3.932119  0
C  C115  1  0.75303237  0.82526784  0.20577084  1  0.632939  0  0.122935  0.204343  0  3.938198  0
C  C116  1  0.55035535  0.98009739  0.25555145  1  1.368455  0  0.249331  0.456157  0  4.092853  0
C  C117  1  0.57552373  0.04988730  0.24210959  1  -0.075952  0  0.003903  0.024931  0  3.954581  0
C  C118  1  0.52509198  0.09933929  0.29162362  1  -0.065104  0  -0.078122  -0.148528  0  3.909941  0
C  C119  1  0.54683113  0.16531855  0.27952599  1  0.53677  0  0.032019  0.079694  0  4.007449  0
C  C120  1  0.65825554  0.13929513  0.17329110  1  0.467619  0  0.028556  0.073557  0  4.021182  0
C  C121  1  0.64329022  0.07108621  0.18095776  1  -0.046902  0  -0.083502  -0.158089  0  3.971435  0
C  C122  1  0.73421148  0.75009518  0.22230926  1  -0.029489  0  -0.150358  -0.202132  0  3.929284  0
C  C123  1  0.73935733  0.69020090  0.30619035  1  -0.019649  0  -0.154208  -0.282535  0  3.88817  0
C  C124  1  0.68444453  0.63749929  0.34063191  1  1.541003  0  0.231455  0.667947  0  4.107481  0
C  C125  1  0.43459014  0.39521538  0.64571497  1  1.550355  0  0.230154  0.660725  0  4.111502  0
C  C126  1  0.38872478  0.34132578  0.71823230  1  -0.055705  0  -0.154097  -0.276852  0  3.873926  0
C  C127  1  0.30673692  0.34391405  0.71271504  1  0.000561  0  -0.156886  -0.205448  0  3.936441  0
C  C128  1  0.31152003  0.25861811  0.72424176  1  0.615532  0  0.123484  0.205277  0  3.931623  0
C  C129  1  0.35012833  0.15216220  0.59804985  1  1.371241  0  0.24177  0.448713  0  4.108081  0
C  C130  1  0.36038974  0.21751072  0.51909969  1  -0.038119  0  0.001073  0.022218  0  3.955014  0
C  C131  1  0.33353273  0.21644547  0.46386626  1  -0.015664  0  -0.08078  -0.139976  0  3.923496  0
C  C132  1  0.34132204  0.27563621  0.38960772  1  0.495423  0  0.037983  0.08221  0  4.014708  0
C  C133  1  0.40376566  0.33220919  0.41890384  1  0.550427  0  0.030369  0.082507  0  4.01395  0
C  C134  1  0.39711863  0.27689951  0.49538704  1  -0.072258  0  -0.088731  -0.163038  0  3.969087  0
C  C135  1  0.31047872  0.19584833  0.80518546  1  -0.042423  0  -0.153314  -0.198236  0  3.913169  0
C  C136  1  0.22275224  0.21641250  0.86556684  1  -0.037088  0  -0.153166  -0.285446  0  3.862345  0
C  C137  1  0.17545175  0.15815511  0.89227334  1  1.560256  0  0.232974  0.665569  0  4.100705  0
C  C138  1  0.72162247  0.38705191  0.56460156  1  1.565993  0  0.231571  0.668118  0  4.097929  0
C  C139  1  0.78359606  0.31327345  0.60983715  1  -0.035475  0  -0.154853  -0.281038  0  3.899228  0
C  C140  1  0.78098089  0.31868255  0.68540875  1  -0.019969  0  -0.155579  -0.204937  0  3.944529  0
C  C141  1  0.78722108  0.23728148  0.75177564  1  0.62691  0  0.125629  0.212307  0  3.906426  0
C  C142  1  0.66725704  0.16485828  0.94740942  1  1.388618  0  0.242617  0.45381  0  4.115433  0
C  C143  1  0.58249037  0.23486791  0.95081386  1  -0.05098  0  0.002209  0.023105  0  3.964537  0
C  C144  1  0.53631101  0.25092559  0.02226436  1  -0.025471  0  -0.079736  -0.146752  0  3.934146  0
C  C145  1  0.45585897  0.31374731  0.02789453  1  0.501379  0  0.039019  0.081411  0  4.019903  0
C  C146  1  0.46248527  0.34188111  0.90133640  1  0.514317  0  0.036781  0.086644  0  4.024506  0
C  C147  1  0.54416604  0.28172326  0.88890454  1  -0.057658  0  -0.084605  -0.158798  0  3.97089  0
C  C148  1  0.85744082  0.15834244  0.73581867  1  -0.012599  0  -0.157476  -0.20336  0  3.951552  0
C  C149  1  0.94763483  0.15211031  0.72265828  1  0.001029  0  -0.153894  -0.290554  0  3.905221  0
C  C150  1  0.97251094  0.12761712  0.79562490  1  1.548366  0  0.23065  0.660888  0  4.101894  0
C  C151  1  0.63168228  0.37269066  0.37013669  1  1.532417  0  0.233508  0.666847  0  4.094978  0
C  C152  1  0.66899893  0.31036645  0.32667376  1  -0.025023  0  -0.151257  -0.275534  0  3.866776  0
C  C153  1  0.72170993  0.34036788  0.24168239  1  0.013631  0  -0.155495  -0.206295  0  3.939534  0
C  C154  1  0.79854492  0.26942955  0.21767616  1  0.613381  0  0.124893  0.214468  0  3.925014  0
C  C155  1  0.01540382  0.17207881  0.22417955  1  1.392115  0  0.242805  0.452943  0  4.111313  0
C  C156  1  0.02590268  0.22954050  0.24813847  1  0.022706  0  0.002105  0.023298  0  3.95728  0
C  C157  1  0.10443695  0.24133497  0.21349665  1  -0.084674  0  -0.078221  -0.141531  0  3.925529  0
C  C158  1  0.11747117  0.29454163  0.23330791  1  0.505176  0  0.039608  0.085691  0  4.010635  0
C  C159  1  0.98522870  0.32072333  0.31994693  1  0.513288  0  0.036579  0.082868  0  4.022078  0
C  C160  1  0.96499892  0.27013760  0.30315253  1  -0.050056  0  -0.087269  -0.162776  0  3.980105  0
C  C161  1  0.79016957  0.21731770  0.18535898  1  0.008762  0  -0.158617  -0.21493  0  3.893608  0
C  C162  1  0.81873263  0.24672581  0.09415894  1  -0.035264  0  -0.153207  -0.284231  0  3.863086  0
C  C163  1  0.88457990  0.17692670  0.06026257  1  1.541831  0  0.231325  0.660908  0  4.104892  0
N  N164  1  0.28777848  0.90782891  0.62536002  1  -0.748491  0  -0.209009  -0.183447  0  3.375237  0
N  N165  1  0.34152107  0.92162834  0.55262943  1  -0.802882  0  -0.293202  -0.227493  0  3.670689  0
N  N166  1  0.09408441  0.20942535  0.51984254  1  -1.181527  0  -0.347254  -0.30652  0  3.319334  0
N  N167  1  0.29659181  0.88974704  0.23110113  1  -0.728851  0  -0.207051  -0.178155  0  3.429436  0
N  N168  1  0.29995613  0.91334828  0.28357799  1  -0.776224  0  -0.290616  -0.222806  0  3.663466  0
N  N169  1  0.31781666  0.16411807  0.02919235  1  -1.213367  0  -0.346208  -0.306755  0  3.32953  0
N  N170  1  0.69724279  0.89290142  0.22195841  1  -0.757177  0  -0.210253  -0.185404  0  3.396416  0
N  N171  1  0.61350621  0.90315753  0.25146090  1  -0.786273  0  -0.294157  -0.230588  0  3.66986  0
N  N172  1  0.61253202  0.18567416  0.22171442  1  -1.184857  0  -0.333135  -0.290231  0  3.354694  0
N  N173  1  0.31989283  0.24724522  0.66191008  1  -0.72618  0  -0.211454  -0.188942  0  3.389522  0
N  N174  1  0.32907718  0.17174406  0.66420598  1  -0.801358  0  -0.292895  -0.220877  0  3.678295  0
N  N175  1  0.37587272  0.33328990  0.36631702  1  -1.188361  0  -0.340717  -0.294717  0  3.315386  0
N  N176  1  0.72818661  0.24220769  0.81639270  1  -0.748441  0  -0.216726  -0.197989  0  3.348204  0
N  N177  1  0.73188021  0.17103619  0.87942708  1  -0.835761  0  -0.303322  -0.241887  0  3.681978  0
N  N178  1  0.41840173  0.35912425  0.96890860  1  -1.203888  0  -0.338222  -0.287886  0  3.301723  0
N  N179  1  0.86800179  0.25786656  0.22836120  1  -0.740448  0  -0.218493  -0.203247  0  3.366763  0
N  N180  1  0.93913879  0.19211391  0.21213416  1  -0.821862  0  -0.298287  -0.22768  0  3.682965  0
N  N181  1  0.05940169  0.33420917  0.28562735  1  -1.195447  0  -0.335765  -0.288267  0  3.319873  0
O  O182  1  0.05388437  0.02608683  0.96324997  1  -1.231298  0  -0.574091  -1.03531  0  2.553911  0
O  O183  1  0.20614178  0.96272971  0.82282662  1  -1.176107  0  -0.322221  -0.561838  0  2.311449  0
O  O184  1  0.18673278  0.85008934  0.92924790  1  -1.181266  0  -0.319093  -0.550576  0  2.296626  0
O  O185  1  0.38735515  0.01048574  0.43659664  1  -1.116535  0  -0.27574  -0.451944  0  2.118401  0
O  O186  1  0.47074312  0.60080702  0.61016521  1  -1.181373  0  -0.322228  -0.556674  0  2.288823  0
O  O187  1  0.43689176  0.69500925  0.49615740  1  -1.175236  0  -0.321203  -0.556534  0  2.311844  0
O  O188  1  0.12491475  0.97250530  0.10633262  1  -1.180563  0  -0.316919  -0.553207  0  2.320827  0
O  O189  1  0.11723348  0.85877920  0.10336220  1  -1.165658  0  -0.319622  -0.553517  0  2.290531  0
O  O190  1  0.28421429  0.01696411  0.31939645  1  -1.105144  0  -0.280135  -0.457291  0  2.112053  0
O  O191  1  0.39807498  0.54658448  0.41516893  1  -1.183766  0  -0.318396  -0.557371  0  2.310212  0
O  O192  1  0.43036160  0.66503650  0.36042494  1  -1.174298  0  -0.320421  -0.553052  0  2.31173  0
O  O193  1  0.88272706  0.98610814  0.02927704  1  -1.167082  0  -0.321141  -0.556246  0  2.332577  0
O  O194  1  0.99702480  0.86536390  0.02366133  1  -1.176338  0  -0.322173  -0.55513  0  2.281557  0
O  O195  1  0.47543121  0.98810097  0.27179815  1  -1.088888  0  -0.274432  -0.446169  0  2.139586  0
O  O196  1  0.72152355  0.55840276  0.35768264  1  -1.153161  0  -0.314782  -0.546318  0  2.300632  0
O  O197  1  0.60419059  0.67808507  0.35018509  1  -1.18304  0  -0.323624  -0.567477  0  2.309884  0
O  O198  1  0.42561372  0.41032495  0.57992212  1  -1.171944  0  -0.312244  -0.542806  0  2.322973  0
O  O199  1  0.48065414  0.41898745  0.65718163  1  -1.167339  0  -0.323354  -0.566354  0  2.308985  0
O  O200  1  0.35822233  0.08114469  0.60587058  1  -1.119184  0  -0.303182  -0.480295  0  2.085811  0
O  O201  1  0.12787702  0.14636275  0.96219704  1  -1.185838  0  -0.316189  -0.556727  0  2.323172  0
O  O202  1  0.18544020  0.12696824  0.84293163  1  -1.174446  0  -0.315208  -0.554286  0  2.304324  0
O  O203  1  0.65750946  0.43735720  0.59930818  1  -1.180544  0  -0.318244  -0.553729  0  2.30612  0
O  O204  1  0.73778537  0.38956782  0.49475523  1  -1.178902  0  -0.323567  -0.562052  0  2.309509  0
O  O205  1  0.68022612  0.10058680  0.00431033  1  -1.130803  0  -0.30055  -0.482504  0  2.095444  0
O  O206  1  0.04589770  0.12601278  0.78531198  1  -1.179312  0  -0.316466  -0.55622  0  2.310985  0
O  O207  1  0.91929095  0.10882841  0.86172454  1  -1.18841  0  -0.307746  -0.547229  0  2.34485  0
O  O208  1  0.67773305  0.41281434  0.35605729  1  -1.177314  0  -0.317895  -0.552914  0  2.330151  0
O  O209  1  0.55852661  0.37828897  0.41918620  1  -1.175298  0  -0.314565  -0.560257  0  2.330018  0
O  O210  1  0.07524637  0.10826619  0.21149377  1  -1.134775  0  -0.298456  -0.478889  0  2.105096  0
O  O211  1  0.86878223  0.16750227  0.00932019  1  -1.163669  0  -0.313521  -0.54276  0  2.300441  0
O  O212  1  0.95199715  0.13317165  0.08463675  1  -1.192206  0  -0.314417  -0.568257  0  2.32676  0
O  O213  1  0.55098891  0.51702516  0.47434598  1  -1.233638  0  -0.575196  -1.036157  0  2.557924  0
