# generated using pymatgen
data_CuH6C7N3
_symmetry_space_group_name_H-M   'P 1'
_cell_length_a   9.16667485
_cell_length_b   11.58999006
_cell_length_c   12.58395979
_cell_angle_alpha   89.99988502
_cell_angle_beta   90.00001117
_cell_angle_gamma   89.99971921
_symmetry_Int_Tables_number   1
_chemical_formula_structural   CuH6C7N3
_chemical_formula_sum   'Cu8 H48 C56 N24'
_cell_volume   1336.94090799
_cell_formula_units_Z   8
loop_
 _symmetry_equiv_pos_site_id
 _symmetry_equiv_pos_as_xyz
  1  'x, y, z'
loop_
 _atom_site_type_symbol
 _atom_site_label
 _atom_site_symmetry_multiplicity
 _atom_site_fract_x
 _atom_site_fract_y
 _atom_site_fract_z
 _atom_site_occupancy
 _atom_site_pbe_bader_spin_density
 _atom_site_pbe_cm5_charge
 _atom_site_pbe_ddec_charge
 _atom_site_pbe_ddec_spin_density
 _atom_site_pbe_ddec_sum_bond_order
 _atom_site_pbe_magmom
Cu  Cu0  1  0.75974615  0.16269179  0.50259211  1  0  0.499926  0.343085  0  2.077686  0
Cu  Cu1  1  0.25974273  0.83730793  0.99741190  1  0  0.499963  0.343121  0  2.077603  0
Cu  Cu2  1  0.24025182  0.33730871  0.00258795  1  0  0.499966  0.343125  0  2.077724  0
Cu  Cu3  1  0.74025660  0.66269140  0.49741446  1  0  0.499955  0.343069  0  2.077699  0
Cu  Cu4  1  0.24026232  0.83731287  0.49740792  1  0  0.499921  0.343156  0  2.077484  0
Cu  Cu5  1  0.74025810  0.16268810  0.00258813  1  0  0.499931  0.34313  0  2.077599  0
Cu  Cu6  1  0.75974029  0.66268819  0.99741129  1  0  0.49992  0.343099  0  2.07758  0
Cu  Cu7  1  0.25974205  0.33731240  0.50258796  1  0  0.499926  0.343076  0  2.07764  0
H  H8  1  0.98817863  0.63445382  0.33041063  1  0  0.091961  0.095144  0  1.045369  0
H  H9  1  0.48817917  0.36554620  0.16958863  1  0  0.091956  0.095137  0  1.045406  0
H  H10  1  0.01182394  0.86554332  0.83041276  1  0  0.091938  0.095134  0  1.045383  0
H  H11  1  0.51182430  0.13445391  0.66959281  1  0  0.091944  0.095121  0  1.045374  0
H  H12  1  0.01181348  0.36555516  0.66959337  1  0  0.091929  0.09514  0  1.045337  0
H  H13  1  0.51180530  0.63444897  0.83040743  1  0  0.091908  0.095108  0  1.045432  0
H  H14  1  0.98818672  0.13444582  0.16959443  1  0  0.091945  0.095158  0  1.045338  0
H  H15  1  0.48819399  0.86555334  0.33040484  1  0  0.09193  0.095124  0  1.045399  0
H  H16  1  0.17364259  0.52747009  0.22272596  1  0  0.090959  0.097033  0  1.046837  0
H  H17  1  0.67364414  0.47252683  0.27727247  1  0  0.090948  0.097051  0  1.046831  0
H  H18  1  0.82635668  0.97252471  0.72272643  1  0  0.090973  0.097071  0  1.046757  0
H  H19  1  0.32635718  0.02747389  0.77727601  1  0  0.090982  0.097053  0  1.046755  0
H  H20  1  0.82635061  0.47254579  0.77727487  1  0  0.090969  0.097031  0  1.046985  0
H  H21  1  0.32634470  0.52746231  0.72272121  1  0  0.090997  0.09704  0  1.046863  0
H  H22  1  0.17364961  0.02745752  0.27727837  1  0  0.090983  0.097055  0  1.046809  0
H  H23  1  0.67365348  0.97254113  0.22272005  1  0  0.090977  0.097016  0  1.046889  0
H  H24  1  0.18857997  0.31502121  0.22895153  1  0  0.084116  0.078429  0  1.05238  0
H  H25  1  0.68858019  0.68497651  0.27104769  1  0  0.084088  0.078328  0  1.05246  0
H  H26  1  0.81141370  0.18497531  0.72894851  1  0  0.084059  0.078275  0  1.052463  0
H  H27  1  0.31141473  0.81502508  0.77105154  1  0  0.084073  0.078319  0  1.052425  0
H  H28  1  0.81141214  0.68499554  0.77104533  1  0  0.084128  0.078422  0  1.052387  0
H  H29  1  0.31141301  0.31501090  0.72894439  1  0  0.08413  0.078423  0  1.052316  0
H  H30  1  0.18858932  0.81500778  0.27105152  1  0  0.084135  0.078447  0  1.052315  0
H  H31  1  0.68858938  0.18499167  0.22894690  1  0  0.084156  0.07851  0  1.052277  0
H  H32  1  0.01905649  0.20089360  0.34517735  1  0  0.09512  0.108836  0  1.030775  0
H  H33  1  0.51905051  0.79910477  0.15482503  1  0  0.095123  0.108816  0  1.030772  0
H  H34  1  0.98093721  0.29910437  0.84517337  1  0  0.095114  0.108875  0  1.030773  0
H  H35  1  0.48094001  0.70089623  0.65482750  1  0  0.095117  0.108874  0  1.030751  0
H  H36  1  0.98094107  0.79911451  0.65481792  1  0  0.095149  0.10889  0  1.030749  0
H  H37  1  0.48094487  0.20088782  0.84517183  1  0  0.095126  0.108871  0  1.030713  0
H  H38  1  0.01906254  0.70088563  0.15482349  1  0  0.095112  0.108863  0  1.030735  0
H  H39  1  0.51906192  0.29911188  0.34517571  1  0  0.095113  0.108865  0  1.03075  0
H  H40  1  0.59561959  0.33662224  0.61220530  1  0  0.300842  0.296254  0  0.976151  0
H  H41  1  0.09561396  0.66337725  0.88779869  1  0  0.30082  0.296262  0  0.976213  0
H  H42  1  0.40438060  0.16337801  0.11220066  1  0  0.300848  0.29628  0  0.97617  0
H  H43  1  0.90438426  0.83662234  0.38780415  1  0  0.300858  0.296309  0  0.976142  0
H  H44  1  0.40437689  0.66337897  0.38779870  1  0  0.300845  0.29624  0  0.976185  0
H  H45  1  0.90437270  0.33661878  0.11219737  1  0  0.30082  0.296187  0  0.976212  0
H  H46  1  0.59562460  0.83662062  0.88780096  1  0  0.300848  0.296178  0  0.976205  0
H  H47  1  0.09562748  0.16337801  0.61219747  1  0  0.300861  0.296266  0  0.976111  0
H  H48  1  0.58379041  0.48276907  0.60664016  1  0  0.30246  0.305111  0  0.964767  0
H  H49  1  0.08378461  0.51723133  0.89336463  1  0  0.302497  0.305186  0  0.964719  0
H  H50  1  0.41620977  0.01723550  0.10663497  1  0  0.302455  0.305104  0  0.964906  0
H  H51  1  0.91621580  0.98276480  0.39337223  1  0  0.302464  0.305107  0  0.96498  0
H  H52  1  0.41621479  0.51723646  0.39337100  1  0  0.302405  0.305032  0  0.964916  0
H  H53  1  0.91620641  0.48276212  0.10662905  1  0  0.302455  0.305065  0  0.964871  0
H  H54  1  0.58378889  0.98276485  0.89337221  1  0  0.302456  0.305064  0  0.964841  0
H  H55  1  0.08379377  0.01723469  0.60662621  1  0  0.302432  0.305043  0  0.964909  0
C  C56  1  0.73135012  0.41211139  0.50439419  1  0  0.314508  0.539784  0  4.100173  0
C  C57  1  0.23134718  0.58788931  0.99560982  1  0  0.314544  0.539814  0  4.100262  0
C  C58  1  0.26864567  0.08789084  0.00438887  1  0  0.314525  0.539722  0  4.100217  0
C  C59  1  0.76864780  0.91211003  0.49561513  1  0  0.314484  0.539605  0  4.100208  0
C  C60  1  0.26864199  0.58789069  0.49560981  1  0  0.314598  0.539779  0  4.100128  0
C  C61  1  0.76864057  0.41211018  0.00438942  1  0  0.314506  0.539614  0  4.099961  0
C  C62  1  0.73135735  0.91210865  0.99561117  1  0  0.314507  0.539539  0  4.100215  0
C  C63  1  0.23136068  0.08789032  0.50438808  1  0  0.314503  0.539555  0  4.100004  0
C  C64  1  0.89866249  0.47676526  0.39601014  1  0  0.075327  0.149687  0  4.065509  0
C  C65  1  0.39865875  0.52323338  0.10399229  1  0  0.075326  0.14968  0  4.065508  0
C  C66  1  0.10133886  0.02323432  0.89600968  1  0  0.075371  0.149717  0  4.065482  0
C  C67  1  0.60133940  0.97676515  0.60399351  1  0  0.075375  0.149628  0  4.06551  0
C  C68  1  0.10133072  0.52324372  0.60398830  1  0  0.075377  0.149632  0  4.065544  0
C  C69  1  0.60132791  0.47675834  0.89600775  1  0  0.075404  0.149617  0  4.065441  0
C  C70  1  0.89867070  0.97675395  0.10399035  1  0  0.075395  0.149619  0  4.065429  0
C  C71  1  0.39867562  0.02324124  0.39600731  1  0  0.075399  0.149625  0  4.065453  0
C  C72  1  0.99341856  0.54049170  0.33232346  1  0  -0.110011  -0.173688  0  4.009582  0
C  C73  1  0.49341633  0.45950486  0.16767501  1  0  -0.109954  -0.173584  0  4.009543  0
C  C74  1  0.00658292  0.95950630  0.83232384  1  0  -0.109935  -0.173599  0  4.009543  0
C  C75  1  0.50658060  0.04049440  0.66767776  1  0  -0.109977  -0.173569  0  4.009469  0
C  C76  1  0.00657464  0.45951642  0.66767657  1  0  -0.109984  -0.173674  0  4.009497  0
C  C77  1  0.50656706  0.54048859  0.83232264  1  0  -0.109907  -0.173538  0  4.009525  0
C  C78  1  0.99342774  0.04048370  0.16767858  1  0  -0.109989  -0.173689  0  4.009587  0
C  C79  1  0.49343224  0.95951458  0.33232069  1  0  -0.109952  -0.173607  0  4.009537  0
C  C80  1  0.09711336  0.48026738  0.27257199  1  0  -0.119716  -0.112826  0  4.052267  0
C  C81  1  0.59711351  0.51972984  0.22742881  1  0  -0.119759  -0.112968  0  4.052344  0
C  C82  1  0.90288578  0.01972904  0.77257086  1  0  -0.119801  -0.113063  0  4.052343  0
C  C83  1  0.40288576  0.98027014  0.72743079  1  0  -0.119753  -0.112969  0  4.052299  0
C  C84  1  0.90287875  0.51974333  0.72742725  1  0  -0.119701  -0.1128  0  4.052321  0
C  C85  1  0.40287642  0.48026103  0.77256884  1  0  -0.119709  -0.11282  0  4.052216  0
C  C86  1  0.09712051  0.98025923  0.22742917  1  0  -0.119697  -0.112736  0  4.052205  0
C  C87  1  0.59712599  0.01974230  0.27256844  1  0  -0.119666  -0.112682  0  4.052134  0
C  C88  1  0.10604282  0.35921721  0.27646673  1  0  -0.121005  -0.124573  0  4.097297  0
C  C89  1  0.60604112  0.64077911  0.22353645  1  0  -0.12095  -0.124356  0  4.097237  0
C  C90  1  0.89395741  0.14077748  0.77646381  1  0  -0.120809  -0.124042  0  4.09716  0
C  C91  1  0.39395487  0.85922260  0.72353705  1  0  -0.120862  -0.124162  0  4.097134  0
C  C92  1  0.89395366  0.64079350  0.72353171  1  0  -0.120912  -0.124462  0  4.097384  0
C  C93  1  0.39395208  0.35921262  0.77646199  1  0  -0.120966  -0.124427  0  4.097149  0
C  C94  1  0.10604888  0.85920993  0.22353543  1  0  -0.120943  -0.124524  0  4.097282  0
C  C95  1  0.60605033  0.14079156  0.27646457  1  0  -0.120976  -0.124607  0  4.097341  0
C  C96  1  0.01143402  0.29459603  0.34061511  1  0  -0.116143  -0.195521  0  4.048959  0
C  C97  1  0.51142972  0.70540237  0.15938885  1  0  -0.11615  -0.195567  0  4.048717  0
C  C98  1  0.98856295  0.20540109  0.84061129  1  0  -0.116221  -0.195866  0  4.048981  0
C  C99  1  0.48856407  0.79459776  0.65938878  1  0  -0.116247  -0.195876  0  4.048876  0
C  C100  1  0.98856463  0.70541381  0.65938254  1  0  -0.116272  -0.195676  0  4.048987  0
C  C101  1  0.48856239  0.29459022  0.84061039  1  0  -0.11623  -0.195701  0  4.048899  0
C  C102  1  0.01144007  0.79458805  0.15938715  1  0  -0.116241  -0.195669  0  4.049056  0
C  C103  1  0.51143895  0.20541036  0.34061363  1  0  -0.116247  -0.195698  0  4.049149  0
C  C104  1  0.90770213  0.35439499  0.40022196  1  0  0.070601  0.142049  0  4.077309  0
C  C105  1  0.40769436  0.64560190  0.09978047  1  0  0.070577  0.14207  0  4.077095  0
C  C106  1  0.09230140  0.14560545  0.90021732  1  0  0.070571  0.142189  0  4.077031  0
C  C107  1  0.59229833  0.85439665  0.59978111  1  0  0.07063  0.142245  0  4.0771  0
C  C108  1  0.09229434  0.64561486  0.59977331  1  0  0.070548  0.142066  0  4.077274  0
C  C109  1  0.59229230  0.35438896  0.90022115  1  0  0.070553  0.142117  0  4.077202  0
C  C110  1  0.90770926  0.85438541  0.09977795  1  0  0.070543  0.1421  0  4.077348  0
C  C111  1  0.40771123  0.14561233  0.40022131  1  0  0.070546  0.142133  0  4.07732  0
N  N112  1  0.80117072  0.31548826  0.47028340  1  0  -0.437673  -0.447439  0  3.669277  0
N  N113  1  0.30116705  0.68451162  0.02972140  1  0  -0.437644  -0.447441  0  3.669353  0
N  N114  1  0.19882628  0.18451460  0.97028109  1  0  -0.437653  -0.447463  0  3.669194  0
N  N115  1  0.69882780  0.81548536  0.52972292  1  0  -0.437679  -0.447404  0  3.669251  0
N  N116  1  0.19882466  0.68451727  0.52971266  1  0  -0.437651  -0.447402  0  3.669325  0
N  N117  1  0.69882397  0.31548183  0.97028101  1  0  -0.437653  -0.447412  0  3.669303  0
N  N118  1  0.80117892  0.81548058  0.02971656  1  0  -0.43765  -0.447338  0  3.669286  0
N  N119  1  0.30118067  0.18451844  0.47028188  1  0  -0.437665  -0.447343  0  3.669268  0
N  N120  1  0.78593558  0.51130296  0.46274824  1  0  -0.434928  -0.438521  0  3.655466  0
N  N121  1  0.28592986  0.48869525  0.03725497  1  0  -0.434947  -0.438561  0  3.655551  0
N  N122  1  0.21406811  0.98869905  0.96274462  1  0  -0.434974  -0.438577  0  3.655724  0
N  N123  1  0.71406594  0.01130258  0.53725780  1  0  -0.434912  -0.438493  0  3.655743  0
N  N124  1  0.21405762  0.48870257  0.53725338  1  0  -0.434963  -0.438556  0  3.655891  0
N  N125  1  0.71405243  0.51130078  0.96274506  1  0  -0.434967  -0.438586  0  3.655596  0
N  N126  1  0.78594581  0.01129785  0.03725462  1  0  -0.43491  -0.438512  0  3.655669  0
N  N127  1  0.28594908  0.98870208  0.46274382  1  0  -0.434962  -0.438624  0  3.655673  0
N  N128  1  0.61177679  0.40895019  0.56829220  1  0  -0.58637  -0.662834  0  3.376535  0
N  N129  1  0.11177054  0.59105010  0.93171021  1  0  -0.586429  -0.662954  0  3.376596  0
N  N130  1  0.38822665  0.09105102  0.06829403  1  0  -0.586422  -0.662891  0  3.376449  0
N  N131  1  0.88823097  0.90895025  0.43171475  1  0  -0.586455  -0.662903  0  3.376541  0
N  N132  1  0.38822732  0.59105361  0.43170783  1  0  -0.586392  -0.662781  0  3.37625  0
N  N133  1  0.88822266  0.40894593  0.06828983  1  0  -0.586379  -0.662675  0  3.376164  0
N  N134  1  0.61177637  0.90894588  0.93171077  1  0  -0.586415  -0.662634  0  3.376291  0
N  N135  1  0.11177969  0.09105183  0.56828766  1  0  -0.586376  -0.662709  0  3.376074  0
