# generated using pymatgen
data_CuH12C20(N3O4)2
_symmetry_space_group_name_H-M   'P 1'
_cell_length_a   9.95364213
_cell_length_b   12.12510319
_cell_length_c   18.11061193
_cell_angle_alpha   90.00101201
_cell_angle_beta   90.00036009
_cell_angle_gamma   90.00040120
_symmetry_Int_Tables_number   1
_chemical_formula_structural   CuH12C20(N3O4)2
_chemical_formula_sum   'Cu4 H48 C80 N24 O32'
_cell_volume   2185.75051867
_cell_formula_units_Z   4
loop_
 _symmetry_equiv_pos_site_id
 _symmetry_equiv_pos_as_xyz
  1  'x, y, z'
loop_
 _atom_site_type_symbol
 _atom_site_label
 _atom_site_symmetry_multiplicity
 _atom_site_fract_x
 _atom_site_fract_y
 _atom_site_fract_z
 _atom_site_occupancy
 _atom_site_pbe_bader_charge
 _atom_site_pbe_bader_spin_density
 _atom_site_pbe_cm5_charge
 _atom_site_pbe_ddec_charge
 _atom_site_pbe_ddec_spin_density
 _atom_site_pbe_ddec_sum_bond_order
 _atom_site_pbe_magmom
Cu  Cu0  1  0.50000405  0.74999386  0.16243939  1  1.054627  0.57399  0.736659  0.762794  0.732206  2.250674  0.572
Cu  Cu1  1  0.99999913  0.74999637  0.33756182  1  1.054435  0.573978  0.73665  0.76284  0.732196  2.250638  0.572
Cu  Cu2  1  0.50002082  0.24999703  0.83756268  1  1.054175  0.573979  0.7366  0.762818  0.7322  2.250763  0.572
Cu  Cu3  1  0.00001189  0.24999332  0.66243632  1  1.054792  0.573997  0.7366  0.762775  0.732216  2.250663  0.572
H  H4  1  0.59899451  0.48683603  0.98883911  1  0.127351  0.000524  0.106599  0.113939  0.000527  1.039592  0.0
H  H5  1  0.40099861  0.01318095  0.98887349  1  0.126455  0.000524  0.106632  0.11398  0.000527  1.039632  0.0
H  H6  1  0.09900693  0.01317468  0.51114698  1  0.127013  0.000524  0.106619  0.113973  0.000527  1.039661  0.0
H  H7  1  0.90101792  0.48684055  0.51114733  1  0.126727  0.000524  0.106576  0.113918  0.000527  1.039448  0.0
H  H8  1  0.40104141  0.51313424  0.01117235  1  0.126508  0.000523  0.106606  0.114001  0.000527  1.039464  0.0
H  H9  1  0.59901520  0.98679675  0.01112914  1  0.127101  0.000523  0.106734  0.114151  0.000526  1.039464  0.0
H  H10  1  0.90104004  0.98686652  0.48882749  1  0.126529  0.000523  0.10663  0.114081  0.000527  1.039405  0.0
H  H11  1  0.09901800  0.51320147  0.48887683  1  0.127105  0.000524  0.106648  0.113967  0.000527  1.039448  0.0
H  H12  1  0.71830467  0.40887194  0.88262875  1  0.11702  -7.9e-05  0.10549  0.113852  -0.000192  1.046805  0.0
H  H13  1  0.28171638  0.09113072  0.88264708  1  0.117117  -7.8e-05  0.105563  0.11392  -0.000192  1.046642  0.0
H  H14  1  0.21831697  0.09113450  0.61735996  1  0.117087  -7.8e-05  0.105463  0.113809  -0.000192  1.046792  0.0
H  H15  1  0.78171613  0.40888268  0.61736560  1  0.117136  -7.8e-05  0.105498  0.113761  -0.000192  1.046851  0.0
H  H16  1  0.28172522  0.59110576  0.11737830  1  0.117593  -7.8e-05  0.105502  0.113805  -0.000191  1.046905  0.0
H  H17  1  0.71830849  0.90884697  0.11735169  1  0.117434  -7.8e-05  0.105507  0.113876  -0.000192  1.046739  0.0
H  H18  1  0.78172900  0.90889268  0.38261837  1  0.117562  -7.8e-05  0.105507  0.113768  -0.000192  1.046858  0.0
H  H19  1  0.21831477  0.59114615  0.38265139  1  0.11732  -7.8e-05  0.105486  0.113908  -0.000192  1.046724  0.0
H  H20  1  0.05041966  0.63174533  0.91957080  1  0.108278  0.000266  0.11122  0.123185  0.000158  1.003082  0.0
H  H21  1  0.94961415  0.86823742  0.91955942  1  0.108012  0.000266  0.111191  0.123139  0.000158  1.003149  0.0
H  H22  1  0.55041462  0.86824423  0.58042606  1  0.108269  0.000266  0.111211  0.123143  0.000158  1.003213  0.0
H  H23  1  0.44960026  0.63175441  0.58043000  1  0.108211  0.000267  0.111218  0.123089  0.000158  1.00313  0.0
H  H24  1  0.94960320  0.36824886  0.08042575  1  0.108568  0.000266  0.111258  0.12317  0.000158  1.003131  0.0
H  H25  1  0.05040067  0.13175100  0.08043659  1  0.108366  0.000266  0.111187  0.123251  0.000158  1.003156  0.0
H  H26  1  0.44959718  0.13174089  0.41957049  1  0.108536  0.000266  0.111232  0.123198  0.000158  1.003056  0.0
H  H27  1  0.55040352  0.36824143  0.41956711  1  0.108046  0.000266  0.111214  0.123196  0.000158  1.003205  0.0
H  H28  1  0.92593766  0.70834091  0.02968402  1  0.048565  2.2e-05  0.101146  0.099792  -1.3e-05  1.046192  0.0
H  H29  1  0.07407597  0.79164170  0.02967641  1  0.048113  2.2e-05  0.101148  0.099789  -1.3e-05  1.046055  0.0
H  H30  1  0.42593059  0.79164432  0.47031647  1  0.047701  2.2e-05  0.101089  0.099719  -1.3e-05  1.046227  0.0
H  H31  1  0.57407500  0.70834236  0.47031457  1  0.048683  2.2e-05  0.101171  0.099833  -1.3e-05  1.046229  0.0
H  H32  1  0.07408219  0.29165410  0.97031309  1  0.048825  2.2e-05  0.10116  0.099788  -1.3e-05  1.046224  0.0
H  H33  1  0.92593283  0.20834342  0.97032070  1  0.04773  2.2e-05  0.101128  0.099809  -1.3e-05  1.045944  0.0
H  H34  1  0.57407519  0.20833914  0.52968561  1  0.048786  2.2e-05  0.10115  0.099779  -1.3e-05  1.046115  0.0
H  H35  1  0.42592777  0.29164111  0.52967647  1  0.047609  2.2e-05  0.101111  0.099815  -1.3e-05  1.046199  0.0
H  H36  1  0.14877171  0.49107910  0.69299192  1  0.134445  0.000132  0.142804  0.115168  -3.6e-05  0.975384  0.0
H  H37  1  0.85127329  0.00890376  0.69298639  1  0.134727  0.000132  0.142722  0.115061  -3.6e-05  0.975401  0.0
H  H38  1  0.64877621  0.00891292  0.80700593  1  0.134278  0.000132  0.142758  0.115051  -3.6e-05  0.975356  0.0
H  H39  1  0.35127713  0.49108777  0.80701824  1  0.134691  0.000132  0.142705  0.115079  -3.6e-05  0.975412  0.0
H  H40  1  0.85126220  0.50890272  0.30701402  1  0.134692  0.000132  0.142684  0.114987  -3.6e-05  0.975499  0.0
H  H41  1  0.14877167  0.99107723  0.30700243  1  0.13462  0.000132  0.142742  0.115144  -3.6e-05  0.975372  0.0
H  H42  1  0.35124967  0.99107137  0.19298952  1  0.134474  0.000132  0.142688  0.11514  -3.6e-05  0.975246  0.0
H  H43  1  0.64877687  0.50891220  0.19300096  1  0.134452  0.000132  0.142774  0.11512  -3.6e-05  0.975363  0.0
H  H44  1  0.86602469  0.31183070  0.81890888  1  0.26468  0.000298  0.143864  0.137829  6.3e-05  1.057727  0.0
H  H45  1  0.13400568  0.18816370  0.81891184  1  0.264021  0.000298  0.143898  0.137836  6.2e-05  1.057748  0.0
H  H46  1  0.36602348  0.18816008  0.68109305  1  0.264472  0.000298  0.143831  0.137792  6.3e-05  1.057711  0.0
H  H47  1  0.63400230  0.31183979  0.68108541  1  0.264082  0.000297  0.143853  0.137841  6.2e-05  1.057774  0.0
H  H48  1  0.13399214  0.68815854  0.18109210  1  0.264251  0.000298  0.143826  0.13768  6.2e-05  1.057919  0.0
H  H49  1  0.86600111  0.81183049  0.18109576  1  0.264294  0.000298  0.143857  0.137764  6.3e-05  1.057802  0.0
H  H50  1  0.63399838  0.81183493  0.31890903  1  0.264093  0.000298  0.143859  0.137832  6.3e-05  1.057769  0.0
H  H51  1  0.36600950  0.68816182  0.31890673  1  0.26427  0.000298  0.143811  0.137712  6.3e-05  1.05778  0.0
C  C52  1  0.68527205  0.65805841  0.07913442  1  1.544659  -0.001316  0.197253  0.556473  -0.001872  4.209911  -0.003
C  C53  1  0.31471501  0.84193868  0.07915254  1  1.545211  -0.001316  0.19715  0.556212  -0.001872  4.210288  -0.003
C  C54  1  0.18526384  0.84193040  0.42086523  1  1.544355  -0.001316  0.197368  0.556752  -0.001874  4.20962  -0.003
C  C55  1  0.81471807  0.65805994  0.42084811  1  1.545267  -0.001317  0.197328  0.556684  -0.001874  4.210315  -0.003
C  C56  1  0.31475483  0.34192671  0.92086435  1  1.545517  -0.001316  0.197168  0.556312  -0.001873  4.209938  -0.003
C  C57  1  0.68528876  0.15805056  0.92085174  1  1.544835  -0.001316  0.197205  0.556535  -0.001874  4.210253  -0.003
C  C58  1  0.81474294  0.15806461  0.57913464  1  1.544398  -0.001316  0.197251  0.556629  -0.001874  4.20994  -0.003
C  C59  1  0.18528269  0.34193590  0.57914514  1  1.54487  -0.001316  0.197362  0.556681  -0.001874  4.209737  -0.003
C  C60  1  0.75591695  0.60402113  0.01586137  1  -0.082383  0.007526  -0.019137  -0.038554  0.005295  3.974736  0.006
C  C61  1  0.24407341  0.89598173  0.01588045  1  -0.083242  0.007531  -0.019242  -0.03891  0.005297  3.975231  0.006
C  C62  1  0.25591797  0.89597385  0.48413301  1  -0.08276  0.007524  -0.019229  -0.038883  0.005293  3.975086  0.006
C  C63  1  0.74408677  0.60401731  0.48412658  1  -0.08258  0.00753  -0.019189  -0.038963  0.005297  3.975242  0.006
C  C64  1  0.24411294  0.39596893  0.98413961  1  -0.082709  0.007527  -0.019275  -0.038871  0.005295  3.975071  0.006
C  C65  1  0.75593438  0.10400339  0.98412163  1  -0.082026  0.007528  -0.019204  -0.03899  0.005296  3.975024  0.006
C  C66  1  0.74410087  0.10402941  0.51586190  1  -0.08241  0.007524  -0.019237  -0.038892  0.005294  3.97497  0.006
C  C67  1  0.25592605  0.39598760  0.51587715  1  -0.082279  0.007524  -0.019163  -0.038984  0.005294  3.975241  0.006
C  C68  1  0.69738469  0.51912781  0.97458651  1  0.001804  0.000387  -0.076323  -0.060637  0.000232  3.938377  0.0
C  C69  1  0.30261560  0.98088771  0.97461233  1  0.002741  0.000385  -0.076264  -0.060443  0.000231  3.938128  0.0
C  C70  1  0.19739125  0.98087660  0.52540259  1  0.002275  0.000386  -0.07634  -0.060672  0.000233  3.938302  0.0
C  C71  1  0.80262199  0.51913049  0.52540198  1  0.002298  0.000386  -0.076256  -0.060341  0.000232  3.938518  0.0
C  C72  1  0.30264320  0.48084576  0.02542054  1  0.0021  0.000388  -0.076257  -0.060483  0.000232  3.938697  0.0
C  C73  1  0.69739822  0.01908916  0.02539141  1  0.002189  0.000386  -0.07647  -0.06068  0.000232  3.938241  0.0
C  C74  1  0.80264165  0.01915388  0.47457851  1  0.002211  0.000387  -0.076299  -0.060628  0.000232  3.938545  0.0
C  C75  1  0.19740991  0.48089586  0.47461390  1  0.002274  0.000387  -0.07632  -0.060447  0.000233  3.938426  0.0
C  C76  1  0.76488608  0.47492471  0.91425267  1  0.017005  -0.000131  -0.089131  -0.157358  -0.00026  3.951705  0.0
C  C77  1  0.23512328  0.02507961  0.91427392  1  0.017339  -0.000131  -0.089192  -0.15738  -0.00026  3.951848  0.0
C  C78  1  0.26489342  0.02507705  0.58573786  1  0.01713  -0.000131  -0.089013  -0.157104  -0.00026  3.951384  0.0
C  C79  1  0.73513027  0.47492858  0.58573639  1  0.016996  -0.000131  -0.089251  -0.157438  -0.00026  3.951674  0.0
C  C80  1  0.23515085  0.52506206  0.08574885  1  0.016383  -0.000131  -0.089219  -0.15742  -0.00026  3.951981  0.0
C  C81  1  0.76489556  0.97490716  0.08572651  1  0.016701  -0.000131  -0.089044  -0.157184  -0.00026  3.9518  0.0
C  C82  1  0.73514853  0.97493611  0.41425097  1  0.016316  -0.000131  -0.089226  -0.157329  -0.00026  3.951891  0.0
C  C83  1  0.26489460  0.52508953  0.41427563  1  0.017048  -0.000131  -0.089091  -0.1572  -0.00026  3.951609  0.0
C  C84  1  0.89111029  0.51650466  0.89477727  1  0.232311  0.000424  0.097546  0.137892  0.000288  4.015945  0.0
C  C85  1  0.10891922  0.98349558  0.89478257  1  0.23262  0.000423  0.097529  0.138043  0.000287  4.015654  0.0
C  C86  1  0.39111378  0.98349095  0.60521802  1  0.232201  0.000423  0.09744  0.137801  0.000287  4.015936  0.0
C  C87  1  0.60890440  0.51651245  0.60521782  1  0.23274  0.000422  0.097595  0.138159  0.000287  4.015621  0.0
C  C88  1  0.10891558  0.48348128  0.10522481  1  0.233101  0.000423  0.097528  0.137992  0.000287  4.015818  0.0
C  C89  1  0.89110062  0.01649036  0.10521785  1  0.232004  0.000423  0.097566  0.138062  0.000287  4.015542  0.0
C  C90  1  0.60891411  0.01651066  0.39477357  1  0.233478  0.000422  0.0974  0.137854  0.000286  4.015815  0.0
C  C91  1  0.39111042  0.48349741  0.39478592  1  0.231822  0.000424  0.097444  0.13777  0.000288  4.015823  0.0
C  C92  1  0.95177411  0.60089722  0.93541041  1  -0.018833  0.001037  -0.08634  -0.157367  0.00071  3.977675  0.001
C  C93  1  0.04824281  0.89909253  0.93541062  1  -0.018496  0.001037  -0.086323  -0.157423  0.00071  3.97736  0.001
C  C94  1  0.45177439  0.89909708  0.56458619  1  -0.019162  0.001037  -0.086249  -0.157294  0.00071  3.977567  0.001
C  C95  1  0.54824332  0.60090113  0.56458624  1  -0.018736  0.001036  -0.086328  -0.157287  0.00071  3.977803  0.001
C  C96  1  0.04824875  0.39909779  0.06458781  1  -0.019035  0.001036  -0.086298  -0.157306  0.00071  3.977614  0.001
C  C97  1  0.95177201  0.10089424  0.06458538  1  -0.018721  0.001036  -0.086279  -0.15757  0.00071  3.977671  0.001
C  C98  1  0.54824646  0.10089793  0.43541036  1  -0.019446  0.001036  -0.086247  -0.157363  0.000709  3.977594  0.001
C  C99  1  0.45177251  0.39909718  0.43541308  1  -0.018559  0.001036  -0.086229  -0.157238  0.00071  3.9776  0.001
C  C100  1  0.88316759  0.64305169  0.99602473  1  0.066778  0.00127  -0.083102  -0.080241  0.00075  3.980793  0.001
C  C101  1  0.11684801  0.85694625  0.99602523  1  0.066469  0.001269  -0.083147  -0.080213  0.000749  3.981149  0.001
C  C102  1  0.38316380  0.85693811  0.50397274  1  0.067389  0.001269  -0.083057  -0.080062  0.000749  3.980787  0.001
C  C103  1  0.61683715  0.64305111  0.50397132  1  0.066239  0.00127  -0.083172  -0.080352  0.00075  3.981159  0.001
C  C104  1  0.11685326  0.35694085  0.00397459  1  0.066099  0.00127  -0.083175  -0.080249  0.00075  3.980777  0.001
C  C105  1  0.88316380  0.14303970  0.00397630  1  0.066607  0.00127  -0.083153  -0.0802  0.000749  3.981162  0.001
C  C106  1  0.61684399  0.14305031  0.49602216  1  0.066615  0.001269  -0.083163  -0.08026  0.000749  3.980841  0.001
C  C107  1  0.38316663  0.35694308  0.49602745  1  0.066764  0.00127  -0.083162  -0.080305  0.00075  3.98098  0.001
C  C108  1  0.07870806  0.46793905  0.73610009  1  1.016563  -0.000667  0.155833  0.161243  -0.000866  3.961734  0.0
C  C109  1  0.92133342  0.03204989  0.73610171  1  1.016257  -0.000663  0.156089  0.161367  -0.000865  3.961721  0.0
C  C110  1  0.57870824  0.03205423  0.76389587  1  1.016997  -0.000665  0.155814  0.161382  -0.000865  3.961789  0.0
C  C111  1  0.42133155  0.46794616  0.76390096  1  1.016443  -0.000663  0.156041  0.161245  -0.000864  3.96202  0.0
C  C112  1  0.92132183  0.53204607  0.26390033  1  1.015931  -0.000663  0.156162  0.161497  -0.000864  3.961888  0.0
C  C113  1  0.07869948  0.96793605  0.26389374  1  1.016853  -0.000666  0.155905  0.161136  -0.000864  3.961764  0.0
C  C114  1  0.42131562  0.96793419  0.23610069  1  1.016644  -0.000663  0.155883  0.160909  -0.000865  3.961907  0.0
C  C115  1  0.57870839  0.53205463  0.23610830  1  1.016756  -0.000666  0.155831  0.161344  -0.000865  3.961599  0.0
C  C116  1  0.93318519  0.37543750  0.79781566  1  0.923945  -0.000947  0.163915  0.085117  -0.001225  3.838657  0.0
C  C117  1  0.06684595  0.12455800  0.79781984  1  0.923937  -0.000948  0.163948  0.085416  -0.001225  3.838518  0.0
C  C118  1  0.43318568  0.12455614  0.70218318  1  0.923817  -0.000947  0.163856  0.085142  -0.001225  3.838671  0.0
C  C119  1  0.56684537  0.37544016  0.70217884  1  0.923934  -0.000947  0.16396  0.085393  -0.001225  3.838202  0.0
C  C120  1  0.06683466  0.62455421  0.20218421  1  0.923808  -0.000947  0.163936  0.085433  -0.001225  3.838535  0.0
C  C121  1  0.93316787  0.87543619  0.20218500  1  0.923951  -0.000948  0.16389  0.085213  -0.001225  3.838615  0.0
C  C122  1  0.56683618  0.87543722  0.29781724  1  0.924159  -0.000948  0.163829  0.085148  -0.001225  3.838598  0.0
C  C123  1  0.43317648  0.62455403  0.29781717  1  0.923996  -0.000946  0.163871  0.085148  -0.001224  3.838662  0.0
C  C124  1  0.50026361  0.25005058  0.07489326  1  2.136264  -4.3e-05  0.358384  0.73219  -3.9e-05  4.129645  0.0
C  C125  1  0.99996532  0.25007270  0.42509481  1  2.137715  -4.3e-05  0.358061  0.731659  -3.9e-05  4.129763  0.0
C  C126  1  0.49958443  0.74980258  0.92508397  1  2.136311  -4.3e-05  0.358433  0.732328  -3.9e-05  4.130318  0.0
C  C127  1  0.99948890  0.75022334  0.57492991  1  2.134971  -4.3e-05  0.35862  0.732483  -3.9e-05  4.129891  0.0
C  C128  1  0.75005031  0.19136789  0.25001222  1  2.109775  5e-06  0.362893  0.715295  1.1e-05  4.122302  0.0
C  C129  1  0.25007403  0.30862980  0.24998223  1  2.109669  5e-06  0.362719  0.715105  1.1e-05  4.122108  0.0
C  C130  1  0.25000168  0.80863867  0.74998655  1  2.109286  5e-06  0.362881  0.715059  1.1e-05  4.122065  0.0
C  C131  1  0.74998098  0.69138006  0.75002426  1  2.110151  5e-06  0.362824  0.715087  1.1e-05  4.122034  0.0
N  N132  1  0.95700623  0.47274522  0.83154679  1  -0.860602  0.002227  -0.112793  0.143224  0.001321  3.7419  0.002
N  N133  1  0.04302831  0.02724621  0.83154641  1  -0.859368  0.002227  -0.112873  0.142788  0.001321  3.741996  0.002
N  N134  1  0.45700851  0.02724856  0.66845048  1  -0.860215  0.002226  -0.112768  0.143136  0.001321  3.742003  0.002
N  N135  1  0.54301914  0.47275181  0.66845329  1  -0.859183  0.002226  -0.11286  0.142817  0.00132  3.741837  0.002
N  N136  1  0.04302065  0.52724155  0.16845529  1  -0.859375  0.002227  -0.112724  0.143014  0.001321  3.741931  0.002
N  N137  1  0.95699455  0.97273973  0.16845125  1  -0.858938  0.002226  -0.112906  0.142974  0.001321  3.741881  0.002
N  N138  1  0.54302038  0.97274728  0.33154442  1  -0.859255  0.002227  -0.112698  0.143136  0.001321  3.741826  0.002
N  N139  1  0.45700171  0.52725227  0.33155265  1  -0.858924  0.002226  -0.112729  0.14315  0.001321  3.741941  0.002
N  N140  1  0.05083243  0.53222205  0.79308304  1  -0.669945  0.006992  -0.217245  -0.256812  0.004563  3.071134  0.005
N  N141  1  0.94919994  0.96777141  0.79308223  1  -0.671034  0.00699  -0.217418  -0.256746  0.004562  3.071369  0.005
N  N142  1  0.55083874  0.96777410  0.70691272  1  -0.670009  0.006992  -0.217151  -0.256736  0.004563  3.07127  0.005
N  N143  1  0.44919366  0.53222371  0.70691933  1  -0.671243  0.006991  -0.21736  -0.256682  0.004562  3.071545  0.005
N  N144  1  0.94919445  0.46776389  0.20692069  1  -0.670577  0.006993  -0.217499  -0.256919  0.004564  3.071502  0.005
N  N145  1  0.05083196  0.03221206  0.20690991  1  -0.671743  0.006989  -0.217226  -0.256694  0.004561  3.07124  0.005
N  N146  1  0.44918814  0.03221761  0.29308052  1  -0.67139  0.006994  -0.217281  -0.256578  0.004564  3.071184  0.005
N  N147  1  0.55083723  0.46777626  0.29309379  1  -0.671269  0.006991  -0.217177  -0.256779  0.004563  3.071161  0.005
N  N148  1  0.00883975  0.37047082  0.73690058  1  -1.197523  0.071274  -0.367822  -0.32947  0.04749  3.61877  0.062
N  N149  1  0.99119672  0.12951814  0.73689973  1  -1.196641  0.071272  -0.367856  -0.329621  0.047489  3.618763  0.062
N  N150  1  0.50884177  0.12952041  0.76309901  1  -1.19742  0.071279  -0.367821  -0.329562  0.047491  3.618932  0.062
N  N151  1  0.49119600  0.37047831  0.76310262  1  -1.196669  0.071267  -0.367877  -0.329673  0.047486  3.618765  0.062
N  N152  1  0.99118009  0.62951760  0.26310261  1  -1.196701  0.071292  -0.367865  -0.329535  0.047501  3.6187  0.062
N  N153  1  0.00882313  0.87047275  0.26309958  1  -1.197544  0.071252  -0.367755  -0.329381  0.047474  3.618569  0.062
N  N154  1  0.49118310  0.87046718  0.23689976  1  -1.197111  0.071291  -0.367661  -0.329225  0.047503  3.618702  0.062
N  N155  1  0.50883088  0.62951836  0.23690332  1  -1.197204  0.071268  -0.367835  -0.329532  0.047483  3.618807  0.062
O  O156  1  0.55630716  0.64556335  0.08266575  1  -1.088305  0.121995  -0.318502  -0.514979  0.076951  2.283594  0.109
O  O157  1  0.44368095  0.85444538  0.08269055  1  -1.087877  0.122056  -0.318533  -0.514989  0.076995  2.28361  0.109
O  O158  1  0.05629601  0.85443462  0.41733621  1  -1.087937  0.122006  -0.318572  -0.515056  0.076957  2.283192  0.109
O  O159  1  0.94369189  0.64554490  0.41731442  1  -1.087894  0.122093  -0.3185  -0.515114  0.077015  2.283405  0.109
O  O160  1  0.44372876  0.35443496  0.91733412  1  -1.088418  0.122051  -0.318413  -0.514827  0.076985  2.282939  0.109
O  O161  1  0.55631981  0.14554634  0.91731761  1  -1.087651  0.122041  -0.318453  -0.515072  0.076983  2.28361  0.109
O  O162  1  0.94370876  0.14555462  0.58267746  1  -1.088118  0.122029  -0.318472  -0.514984  0.076975  2.283423  0.109
O  O163  1  0.05630786  0.35444104  0.58267386  1  -1.088173  0.122048  -0.318583  -0.515091  0.076986  2.283209  0.109
O  O164  1  0.75049793  0.71476634  0.12518577  1  -1.196392  0.001611  -0.331245  -0.582862  -5.9e-05  2.212817  0.002
O  O165  1  0.24949267  0.78520886  0.12518367  1  -1.197225  0.001609  -0.331069  -0.58254  -6.1e-05  2.212977  0.002
O  O166  1  0.25047464  0.78521542  0.37481576  1  -1.196592  0.001606  -0.331237  -0.582883  -6.2e-05  2.212685  0.002
O  O167  1  0.74950574  0.71477867  0.37481841  1  -1.197147  0.001603  -0.331239  -0.582797  -6.5e-05  2.213419  0.002
O  O168  1  0.24954302  0.28522125  0.87481741  1  -1.196794  0.001604  -0.331168  -0.582681  -6.4e-05  2.213094  0.002
O  O169  1  0.75051210  0.21477131  0.87481676  1  -1.197028  0.001605  -0.331187  -0.582745  -6.3e-05  2.213058  0.002
O  O170  1  0.74952210  0.21478455  0.62517693  1  -1.196427  0.00161  -0.331212  -0.582851  -6e-05  2.212853  0.002
O  O171  1  0.25048999  0.28521139  0.62518090  1  -1.196981  0.001602  -0.331186  -0.582746  -6.5e-05  2.212764  0.002
O  O172  1  0.58120716  0.32062588  0.07517266  1  -1.079991  0.000132  -0.179396  -0.358597  6.1e-05  2.196142  0.0
O  O173  1  0.41931304  0.17949178  0.07519031  1  -1.075225  0.000131  -0.178793  -0.357909  6.1e-05  2.196863  0.0
O  O174  1  0.08092232  0.17950940  0.42482396  1  -1.076916  0.000131  -0.178787  -0.357822  6.1e-05  2.196827  0.0
O  O175  1  0.91902117  0.32063718  0.42477601  1  -1.079768  0.000132  -0.179071  -0.358144  6.1e-05  2.196183  0.0
O  O176  1  0.41869113  0.67918934  0.92476868  1  -1.080681  0.000132  -0.179139  -0.358507  6.2e-05  2.196825  0.0
O  O177  1  0.58048075  0.82040591  0.92483330  1  -1.074596  0.000131  -0.179076  -0.358191  6.1e-05  2.197023  0.0
O  O178  1  0.91859821  0.82084107  0.57522339  1  -1.080907  0.000132  -0.179195  -0.358362  6.2e-05  2.196478  0.0
O  O179  1  0.08038081  0.67961432  0.57518686  1  -1.072988  0.000131  -0.179186  -0.358476  6.1e-05  2.196872  0.0
O  O180  1  0.66500983  0.19045078  0.20501855  1  -1.063227  9e-06  -0.173809  -0.356413  2e-06  2.229326  0.0
O  O181  1  0.33512205  0.30960429  0.20498777  1  -1.059418  9e-06  -0.173951  -0.356084  2e-06  2.227959  0.0
O  O182  1  0.16502603  0.30951179  0.29497505  1  -1.06451  9e-06  -0.173624  -0.356237  2e-06  2.228979  0.0
O  O183  1  0.83509984  0.19042110  0.29500973  1  -1.060827  9e-06  -0.173876  -0.35611  2e-06  2.228123  0.0
O  O184  1  0.33504518  0.80958217  0.79498905  1  -1.061935  9e-06  -0.173784  -0.35614  2e-06  2.228884  0.0
O  O185  1  0.66494200  0.69044515  0.79502480  1  -1.061185  9e-06  -0.173784  -0.355953  2e-06  2.22806  0.0
O  O186  1  0.83502496  0.69045106  0.70502482  1  -1.063229  9e-06  -0.173844  -0.356354  2e-06  2.229072  0.0
O  O187  1  0.16496723  0.80956484  0.70498351  1  -1.0616  9e-06  -0.173906  -0.356114  2e-06  2.228159  0.0
