# generated using pymatgen
data_CoPH12C6NClO3
_symmetry_space_group_name_H-M   'P 1'
_cell_length_a   9.51267344
_cell_length_b   10.14648527
_cell_length_c   10.15610877
_cell_angle_alpha   90.43084759
_cell_angle_beta   90.00006603
_cell_angle_gamma   89.99965599
_symmetry_Int_Tables_number   1
_chemical_formula_structural   CoPH12C6NClO3
_chemical_formula_sum   'Co4 P4 H48 C24 N4 Cl4 O12'
_cell_volume   980.24194439
_cell_formula_units_Z   4
loop_
 _symmetry_equiv_pos_site_id
 _symmetry_equiv_pos_as_xyz
  1  'x, y, z'
loop_
 _atom_site_type_symbol
 _atom_site_label
 _atom_site_symmetry_multiplicity
 _atom_site_fract_x
 _atom_site_fract_y
 _atom_site_fract_z
 _atom_site_occupancy
 _atom_site_pbe_cm5_charge
 _atom_site_pbe_ddec_charge
 _atom_site_pbe_ddec_spin_density
 _atom_site_pbe_ddec_sum_bond_order
 _atom_site_pbe_magmom
Co  Co0  1  0.89153488  0.11496575  0.63509116  1  0.584772  0.957097  2.778698  2.554652  2.52
Co  Co1  1  0.39153747  0.88503116  0.86491393  1  0.58481  0.957056  2.778652  2.554644  2.52
Co  Co2  1  0.10846637  0.88503302  0.36491315  1  0.584765  0.95709  2.778679  2.554647  2.52
Co  Co3  1  0.60846484  0.11496662  0.13508841  1  0.584779  0.956928  2.778661  2.554717  2.52
P  P4  1  0.70578739  0.98733306  0.86308959  1  0.34707  1.28693  0.016004  5.413929  0.011
P  P5  1  0.20579739  0.01265997  0.63692512  1  0.347077  1.286979  0.016006  5.41385  0.011
P  P6  1  0.29421176  0.01266373  0.13690880  1  0.347011  1.286815  0.016005  5.414001  0.011
P  P7  1  0.79420597  0.98734076  0.36307723  1  0.347034  1.286957  0.016006  5.413908  0.011
H  H8  1  0.73121739  0.74897936  0.86737974  1  0.117841  0.139786  -5.2e-05  1.009735  0.0
H  H9  1  0.23121955  0.25101845  0.63261928  1  0.117869  0.139791  -5.2e-05  1.009759  0.0
H  H10  1  0.26878386  0.25101744  0.13262062  1  0.117857  0.139783  -5.2e-05  1.00978  0.0
H  H11  1  0.76878066  0.74898031  0.36737912  1  0.117844  0.139764  -5.2e-05  1.009749  0.0
H  H12  1  0.76927473  0.81730099  0.71029448  1  0.126483  0.151882  0.000488  0.987818  0.001
H  H13  1  0.26927962  0.18270154  0.78970658  1  0.126452  0.151825  0.000488  0.987847  0.001
H  H14  1  0.23072233  0.18269778  0.28970490  1  0.126467  0.151857  0.000488  0.987823  0.001
H  H15  1  0.73072269  0.81729919  0.21029381  1  0.126452  0.151817  0.000489  0.987863  0.001
H  H16  1  0.02393536  0.49919180  0.76354218  1  0.092745  0.109442  0.000165  1.006144  0.0
H  H17  1  0.52393358  0.50080225  0.73645462  1  0.092736  0.10939  0.000165  1.006031  0.0
H  H18  1  0.97606379  0.50080795  0.23645819  1  0.092739  0.109432  0.000165  1.006119  0.0
H  H19  1  0.47606452  0.49919750  0.26354576  1  0.092726  0.109381  0.000165  1.006098  0.0
H  H20  1  0.85848085  0.55310247  0.81657907  1  0.093317  0.096269  2.8e-05  0.976711  0.0
H  H21  1  0.35847655  0.44689562  0.68342009  1  0.093298  0.096225  2.8e-05  0.976754  0.0
H  H22  1  0.14151726  0.44689531  0.18342228  1  0.093306  0.096242  2.8e-05  0.976815  0.0
H  H23  1  0.64152155  0.55310611  0.31657932  1  0.093291  0.09622  2.8e-05  0.976759  0.0
H  H24  1  0.13314428  0.58039122  0.97308897  1  0.089822  0.067016  -6.3e-05  0.983498  0.0
H  H25  1  0.63314171  0.41961010  0.52691095  1  0.089783  0.066967  -6.3e-05  0.983653  0.0
H  H26  1  0.86685593  0.41960656  0.02690942  1  0.089801  0.066996  -6.3e-05  0.983556  0.0
H  H27  1  0.36685535  0.58039359  0.47308749  1  0.089808  0.066988  -6.3e-05  0.983562  0.0
H  H28  1  0.98742033  0.90468836  0.79850983  1  0.314575  0.260026  -6e-05  0.962725  0.0
H  H29  1  0.48742041  0.09530801  0.70149044  1  0.314568  0.25998  -6e-05  0.962719  0.0
H  H30  1  0.01257883  0.09530843  0.20148954  1  0.314553  0.259972  -6e-05  0.962745  0.0
H  H31  1  0.51258085  0.90469174  0.29850797  1  0.314571  0.260002  -6e-05  0.962713  0.0
H  H32  1  0.83531513  0.66619910  0.05090946  1  0.091558  0.088298  5.9e-05  0.988527  0.0
H  H33  1  0.33531399  0.33380221  0.44909136  1  0.091575  0.088304  5.9e-05  0.9885  0.0
H  H34  1  0.16468613  0.33380065  0.94909190  1  0.091569  0.0883  5.9e-05  0.988504  0.0
H  H35  1  0.66468412  0.66620247  0.55091004  1  0.091569  0.0883  5.9e-05  0.988508  0.0
H  H36  1  0.98886501  0.68804178  0.14660104  1  0.096813  0.104907  0.000117  1.013774  0.0
H  H37  1  0.48886494  0.31196064  0.35339799  1  0.096824  0.104871  0.000117  1.013724  0.0
H  H38  1  0.01113730  0.31195896  0.85339935  1  0.096824  0.104875  0.000117  1.013758  0.0
H  H39  1  0.51113526  0.68804404  0.64660243  1  0.09678  0.104837  0.000117  1.013724  0.0
H  H40  1  0.12120383  0.72483078  0.76853791  1  0.113026  0.099428  3.8e-05  0.994009  0.0
H  H41  1  0.62120454  0.27517061  0.73146004  1  0.113049  0.099516  3.8e-05  0.993972  0.0
H  H42  1  0.87879638  0.27516700  0.23146049  1  0.113034  0.099457  3.8e-05  0.994019  0.0
H  H43  1  0.37879567  0.72483210  0.26853741  1  0.113028  0.099431  3.8e-05  0.993994  0.0
H  H44  1  0.97404922  0.71432402  0.66233158  1  0.100349  0.096216  5.2e-05  1.013026  0.0
H  H45  1  0.47405351  0.28567342  0.83766769  1  0.100343  0.096248  5.2e-05  1.013027  0.0
H  H46  1  0.02594889  0.28567179  0.33766778  1  0.100358  0.096226  5.2e-05  1.013052  0.0
H  H47  1  0.52594985  0.71432732  0.16232974  1  0.100351  0.09619  5.2e-05  1.013038  0.0
H  H48  1  0.92803069  0.89510597  0.03410838  1  0.112044  0.105449  -0.000218  1.001885  0.0
H  H49  1  0.42803104  0.10489976  0.46589257  1  0.112059  0.105467  -0.000218  1.001889  0.0
H  H50  1  0.07196741  0.10489674  0.96589005  1  0.112053  0.105478  -0.000218  1.001938  0.0
H  H51  1  0.57196706  0.89510591  0.53410588  1  0.11207  0.105501  -0.000218  1.001936  0.0
H  H52  1  0.09581327  0.83394319  0.98595369  1  0.113383  0.098537  0.000455  1.012969  0.0
H  H53  1  0.59581231  0.16606031  0.51404522  1  0.113395  0.098546  0.000455  1.012967  0.0
H  H54  1  0.90418693  0.16605853  0.01404473  1  0.113402  0.098572  0.000455  1.012972  0.0
H  H55  1  0.40418684  0.83394437  0.48595322  1  0.113416  0.098584  0.000455  1.012983  0.0
C  C56  1  0.78626052  0.82891911  0.81665665  1  -0.06951  -0.374586  0.002822  3.761567  0.004
C  C57  1  0.28626115  0.17108037  0.68334441  1  -0.069489  -0.374508  0.002823  3.761554  0.004
C  C58  1  0.21373969  0.17107769  0.18334371  1  -0.069485  -0.374474  0.002822  3.76149  0.004
C  C59  1  0.71374116  0.82891938  0.31665597  1  -0.069477  -0.374429  0.002823  3.761387  0.004
C  C60  1  0.97192628  0.57415827  0.82484291  1  -0.16658  -0.203892  0.000461  3.921927  0.001
C  C61  1  0.47192001  0.42583818  0.67515242  1  -0.166544  -0.203733  0.000461  3.921862  0.001
C  C62  1  0.02807392  0.42584049  0.17515648  1  -0.166597  -0.203895  0.000461  3.921969  0.001
C  C63  1  0.52807809  0.57416255  0.32484501  1  -0.166553  -0.203791  0.000461  3.921956  0.001
C  C64  1  0.01775194  0.56686011  0.96929911  1  -0.089408  -0.006017  3.2e-05  3.848581  0.0
C  C65  1  0.51774929  0.43313890  0.53069871  1  -0.089353  -0.006071  3.2e-05  3.848978  0.0
C  C66  1  0.98224932  0.43313865  0.03069930  1  -0.089369  -0.006026  3.2e-05  3.848664  0.0
C  C67  1  0.48224881  0.56686085  0.46929970  1  -0.08939  -0.006042  3.2e-05  3.848765  0.0
C  C68  1  0.94996423  0.68212123  0.04486562  1  -0.162386  -0.197245  0.000198  3.895581  0.0
C  C69  1  0.44996215  0.31788043  0.45513434  1  -0.162415  -0.19715  0.000198  3.895544  0.0
C  C70  1  0.05003808  0.31787852  0.95513475  1  -0.162425  -0.197199  0.000198  3.895533  0.0
C  C71  1  0.55003595  0.68212327  0.54486508  1  -0.162353  -0.19708  0.000198  3.895517  0.0
C  C72  1  0.00738310  0.70640461  0.76532665  1  -0.06421  -0.060707  0.000377  3.772719  0.0
C  C73  1  0.50738369  0.29359249  0.73467114  1  -0.06425  -0.060926  0.000376  3.772844  0.0
C  C74  1  0.99261606  0.29359317  0.23467175  1  -0.064218  -0.060752  0.000377  3.772792  0.0
C  C75  1  0.49261757  0.70640824  0.26532629  1  -0.064202  -0.060647  0.000376  3.772692  0.0
C  C76  1  0.98249677  0.81454648  0.98294008  1  -0.064805  -0.061444  0.000434  3.756754  0.001
C  C77  1  0.48249605  0.18545583  0.51705924  1  -0.064823  -0.061473  0.000434  3.75674  0.001
C  C78  1  0.01750343  0.18545229  0.01705930  1  -0.064833  -0.061544  0.000434  3.756808  0.001
C  C79  1  0.51750310  0.81454884  0.48294019  1  -0.064867  -0.061625  0.000434  3.756979  0.001
N  N80  1  0.94118757  0.81982887  0.83997000  1  -0.347081  0.027029  6.6e-05  3.548602  0.0
N  N81  1  0.44118811  0.18017072  0.66003025  1  -0.347074  0.027106  6.6e-05  3.548565  0.0
N  N82  1  0.05881159  0.18016990  0.16003038  1  -0.347071  0.027079  6.6e-05  3.548561  0.0
N  N83  1  0.55881315  0.81983100  0.33996916  1  -0.347086  0.027019  6.6e-05  3.548557  0.0
Cl  Cl84  1  0.92694905  0.32031792  0.57689888  1  -0.305821  -0.539196  0.072  1.176333  0.087
Cl  Cl85  1  0.42694987  0.67968076  0.92310134  1  -0.305808  -0.539176  0.072016  1.176392  0.087
Cl  Cl86  1  0.07305010  0.67967986  0.42310247  1  -0.305822  -0.539204  0.072002  1.176342  0.087
Cl  Cl87  1  0.57305139  0.32031702  0.07689804  1  -0.305813  -0.539157  0.072016  1.176384  0.087
O  O88  1  0.79114475  0.09951897  0.80349381  1  -0.374735  -0.737612  0.042075  2.367689  0.062
O  O89  1  0.29114283  0.90048245  0.69650825  1  -0.374636  -0.737484  0.04206  2.368152  0.062
O  O90  1  0.20885440  0.90047881  0.19650852  1  -0.374748  -0.737606  0.042075  2.367605  0.062
O  O91  1  0.70885738  0.09951336  0.30349309  1  -0.374672  -0.737483  0.042061  2.368249  0.062
O  O92  1  0.70279505  0.99323140  0.01418103  1  -0.3792  -0.767551  0.045649  2.401344  0.063
O  O93  1  0.20279711  0.00676080  0.48582254  1  -0.379283  -0.767684  0.045657  2.400965  0.063
O  O94  1  0.29719990  0.00676243  0.98581832  1  -0.379155  -0.767587  0.04565  2.401517  0.063
O  O95  1  0.79720520  0.99323698  0.51417980  1  -0.379268  -0.76773  0.045658  2.401048  0.063
O  O96  1  0.55838297  0.97833389  0.79902051  1  -0.370085  -0.739978  0.040193  2.414008  0.058
O  O97  1  0.05838143  0.02166786  0.70099017  1  -0.370095  -0.740055  0.040193  2.413736  0.058
O  O98  1  0.44161513  0.02166784  0.20098185  1  -0.370074  -0.739925  0.040193  2.414031  0.058
O  O99  1  0.94162298  0.97833485  0.29901712  1  -0.370019  -0.739992  0.040192  2.413783  0.058
