# generated using pymatgen
data_ZnSiH20C24(N4F3)2
_symmetry_space_group_name_H-M   'P 1'
_cell_length_a   7.76452135
_cell_length_b   10.84687842
_cell_length_c   12.16392736
_cell_angle_alpha   85.64137375
_cell_angle_beta   77.66371582
_cell_angle_gamma   69.02312548
_symmetry_Int_Tables_number   1
_chemical_formula_structural   ZnSiH20C24(N4F3)2
_chemical_formula_sum   'Zn1 Si1 H20 C24 N8 F6'
_cell_volume   934.47344806
_cell_formula_units_Z   1
loop_
 _symmetry_equiv_pos_site_id
 _symmetry_equiv_pos_as_xyz
  1  'x, y, z'
loop_
 _atom_site_type_symbol
 _atom_site_label
 _atom_site_symmetry_multiplicity
 _atom_site_fract_x
 _atom_site_fract_y
 _atom_site_fract_z
 _atom_site_occupancy
 _atom_site_hle17_bader_spin_density
 _atom_site_hle17_ddec_charge
 _atom_site_hle17_ddec_spin_density
 _atom_site_hle17_ddec_sum_bond_order
 _atom_site_hle17_magmom
 _atom_site_hse06_10hf_bader_spin_density
 _atom_site_hse06_10hf_ddec_charge
 _atom_site_hse06_10hf_ddec_spin_density
 _atom_site_hse06_10hf_ddec_sum_bond_order
 _atom_site_hse06_10hf_magmom
 _atom_site_hse06_bader_spin_density
 _atom_site_hse06_ddec_charge
 _atom_site_hse06_ddec_spin_density
 _atom_site_hse06_ddec_sum_bond_order
 _atom_site_hse06_magmom
 _atom_site_pbe_bader_spin_density
 _atom_site_pbe_cm5_charge
 _atom_site_pbe_ddec_charge
 _atom_site_pbe_ddec_spin_density
 _atom_site_pbe_ddec_sum_bond_order
 _atom_site_pbe_magmom
Zn  Zn0  1  0.49999898  0.99999939  0.50000056  1  0  0.971612  0  1.876294  0  0  0.762023  0  2.334303  0  0  0.80864  0  2.286236  0  0  0.706547  0.73068  0  2.366522  0
Si  Si1  1  0.00000011  0.99999882  0.50000017  1  0  1.978038  0  3.325521  0  0  1.765501  0  3.884135  0  0  1.824549  0  3.797262  0  0  0.26343  1.724  0  3.944677  0
H  H2  1  0.75807829  0.11192467  0.32205457  1  0  0.100049  0  0.968086  0  0  0.105513  0  1.034737  0  0  0.108794  0  1.030792  0  0  0.118112  0.10306  0  1.037574  0
H  H3  1  0.12988293  0.11201900  0.67809250  1  0  0.100465  0  0.966809  0  0  0.105985  0  1.033292  0  0  0.109189  0  1.029436  0  0  0.118177  0.103435  0  1.03619  0
H  H4  1  0.24192368  0.88807675  0.67794596  1  0  0.10002  0  0.968153  0  0  0.105509  0  1.034772  0  0  0.108791  0  1.030827  0  0  0.118103  0.103056  0  1.037609  0
H  H5  1  0.87011508  0.88798243  0.32190776  1  0  0.100441  0  0.966832  0  0  0.105962  0  1.033315  0  0  0.109166  0  1.02946  0  0  0.118161  0.103414  0  1.036211  0
H  H6  1  0.72543888  0.27504933  0.16441777  1  0  0.116554  0  0.937821  0  0  0.125251  0  0.996533  0  0  0.129152  0  0.994517  0  0  0.114424  0.122468  0  0.998079  0
H  H7  1  0.99987885  0.27532583  0.83574478  1  0  0.116237  0  0.938374  0  0  0.124631  0  0.997375  0  0  0.128518  0  0.995374  0  0  0.114135  0.121812  0  0.999041  0
H  H8  1  0.27456590  0.72494914  0.83558258  1  0  0.116596  0  0.937794  0  0  0.125293  0  0.996503  0  0  0.129194  0  0.994486  0  0  0.114438  0.122508  0  0.998045  0
H  H9  1  0.00011767  0.72467856  0.16425220  1  0  0.116234  0  0.938397  0  0  0.124649  0  0.997365  0  0  0.128537  0  0.995362  0  0  0.114143  0.121828  0  0.999029  0
H  H10  1  0.12142341  0.38520329  0.26944549  1  0  0.110163  0  0.938836  0  0  0.121947  0  0.992569  0  0  0.124685  0  0.993025  0  0  0.1115  0.120035  0  0.992297  0
H  H11  1  0.49337965  0.38565650  0.72977072  1  0  0.109399  0  0.938526  0  0  0.121467  0  0.992049  0  0  0.124236  0  0.992485  0  0  0.111461  0.119785  0  0.991368  0
H  H12  1  0.87858135  0.61479517  0.73055158  1  0  0.110118  0  0.938816  0  0  0.121895  0  0.992561  0  0  0.124637  0  0.993013  0  0  0.111473  0.119991  0  0.992285  0
H  H13  1  0.50662017  0.61434394  0.27022772  1  0  0.1094  0  0.938469  0  0  0.12146  0  0.991995  0  0  0.124229  0  0.992431  0  0  0.111446  0.119777  0  0.991315  0
H  H14  1  0.24373777  0.50594706  0.11114357  1  0  0.074241  0  0.979145  0  0  0.074239  0  1.061492  0  0  0.078603  0  1.056607  0  0  0.113949  0.071076  0  1.064967  0
H  H15  1  0.25025459  0.50638017  0.88887730  1  0  0.074295  0  0.978934  0  0  0.074445  0  1.061195  0  0  0.078816  0  1.056345  0  0  0.114004  0.071243  0  1.064632  0
H  H16  1  0.75626124  0.49405239  0.88885751  1  0  0.07426  0  0.979203  0  0  0.074261  0  1.061545  0  0  0.078625  0  1.056658  0  0  0.113953  0.071094  0  1.06503  0
H  H17  1  0.74974243  0.49362323  0.11111968  1  0  0.074339  0  0.978888  0  0  0.074465  0  1.06118  0  0  0.078821  0  1.056345  0  0  0.114021  0.071259  0  1.064624  0
H  H18  1  0.17717839  0.20796808  0.41497801  1  0  0.105659  0  0.958969  0  0  0.109663  0  1.025785  0  0  0.113347  0  1.021129  0  0  0.118731  0.106867  0  1.029247  0
H  H19  1  0.61439046  0.20827192  0.58429046  1  0  0.104751  0  0.957874  0  0  0.108607  0  1.025225  0  0  0.11222  0  1.02059  0  0  0.118468  0.105835  0  1.028694  0
H  H20  1  0.82282276  0.79203236  0.58502188  1  0  0.105667  0  0.958923  0  0  0.109652  0  1.025765  0  0  0.113313  0  1.02114  0  0  0.118738  0.106858  0  1.029227  0
H  H21  1  0.38561085  0.79172556  0.41571044  1  0  0.10471  0  0.957918  0  0  0.108603  0  1.02523  0  0  0.112216  0  1.020596  0  0  0.11847  0.105831  0  1.028702  0
C  C22  1  0.61959621  0.17191912  0.30559614  1  0  0.128837  0  3.674634  0  0  0.098489  0  3.923534  0  0  0.10445  0  3.942759  0  0  0.053231  0.094853  0  3.91018  0
C  C23  1  0.20839952  0.17210148  0.69433924  1  0  0.128497  0  3.673199  0  0  0.098274  0  3.92176  0  0  0.104293  0  3.941021  0  0  0.052556  0.094693  0  3.908624  0
C  C24  1  0.38040675  0.82808033  0.69440440  1  0  0.128829  0  3.674685  0  0  0.09846  0  3.923584  0  0  0.104419  0  3.942812  0  0  0.05324  0.094828  0  3.910231  0
C  C25  1  0.79159718  0.82789994  0.30566120  1  0  0.128448  0  3.673403  0  0  0.098214  0  3.921946  0  0  0.104232  0  3.941207  0  0  0.052488  0.094625  0  3.908814  0
C  C26  1  0.60109892  0.26449125  0.21961422  1  0  -0.140174  0  3.684465  0  0  -0.158304  0  3.925346  0  0  -0.166038  0  3.947406  0  0  -0.073963  -0.153348  0  3.910228  0
C  C27  1  0.13458679  0.26475248  0.78033578  1  0  -0.139747  0  3.683747  0  0  -0.157339  0  3.924228  0  0  -0.16508  0  3.946301  0  0  -0.073736  -0.152492  0  3.909462  0
C  C28  1  0.39890404  0.73550820  0.78038549  1  0  -0.140203  0  3.684493  0  0  -0.158319  0  3.925378  0  0  -0.16605  0  3.947439  0  0  -0.073978  -0.15336  0  3.910253  0
C  C29  1  0.86541073  0.73524994  0.21966448  1  0  -0.139734  0  3.683751  0  0  -0.157312  0  3.924212  0  0  -0.165052  0  3.946283  0  0  -0.073697  -0.152461  0  3.90944  0
C  C30  1  0.26480096  0.32539669  0.27736545  1  0  -0.144387  0  3.687816  0  0  -0.159695  0  3.924423  0  0  -0.167992  0  3.947094  0  0  -0.072706  -0.154285  0  3.909123  0
C  C31  1  0.40972601  0.32583246  0.72208071  1  0  -0.143607  0  3.685384  0  0  -0.158856  0  3.921985  0  0  -0.167212  0  3.944632  0  0  -0.072383  -0.153604  0  3.9065  0
C  C32  1  0.73520249  0.67460177  0.72263344  1  0  -0.144316  0  3.68783  0  0  -0.159609  0  3.924439  0  0  -0.167906  0  3.947104  0  0  -0.072671  -0.154208  0  3.909144  0
C  C33  1  0.59027465  0.67416897  0.27792001  1  0  -0.143602  0  3.685335  0  0  -0.158813  0  3.921941  0  0  -0.167169  0  3.944591  0  0  -0.07234  -0.153561  0  3.906456  0
C  C34  1  0.38868357  0.44170101  0.11481267  1  0  0.092442  0  3.644768  0  0  0.058583  0  3.90717  0  0  0.065444  0  3.917868  0  0  0.077721  0.054094  0  3.899574  0
C  C35  1  0.16974448  0.44203021  0.88507825  1  0  0.094023  0  3.641684  0  0  0.060134  0  3.90408  0  0  0.066963  0  3.914753  0  0  0.078404  0.055666  0  3.896539  0
C  C36  1  0.61132597  0.55829843  0.88518367  1  0  0.092507  0  3.644389  0  0  0.058659  0  3.90677  0  0  0.065525  0  3.917468  0  0  0.077731  0.054173  0  3.899175  0
C  C37  1  0.83025435  0.55797220  0.11491936  1  0  0.093943  0  3.641782  0  0  0.06008  0  3.904195  0  0  0.06692  0  3.914877  0  0  0.078401  0.055614  0  3.896649  0
C  C38  1  0.41990094  0.34366255  0.20411257  1  0  0.085118  0  3.8169  0  0  0.100233  0  4.050143  0  0  0.102379  0  4.073985  0  0  0.006693  0.09904  0  4.033624  0
C  C39  1  0.23657983  0.34403981  0.79562327  1  0  0.084133  0  3.816054  0  0  0.098856  0  4.049538  0  0  0.101026  0  4.073376  0  0  0.006454  0.097718  0  4.033183  0
C  C40  1  0.58010168  0.65633492  0.79588486  1  0  0.085031  0  3.817028  0  0  0.100114  0  4.050307  0  0  0.102254  0  4.07416  0  0  0.006638  0.098926  0  4.033787  0
C  C41  1  0.76341900  0.65596260  0.20437434  1  0  0.084183  0  3.815988  0  0  0.098845  0  4.049521  0  0  0.101015  0  4.073358  0  0  0.006419  0.097712  0  4.033156  0
C  C42  1  0.29484821  0.22779845  0.35949141  1  0  0.140007  0  3.663991  0  0  0.109388  0  3.912024  0  0  0.116757  0  3.928878  0  0  0.056776  0.104634  0  3.900645  0
C  C43  1  0.47704349  0.22814834  0.63994441  1  0  0.142665  0  3.660472  0  0  0.111629  0  3.90907  0  0  0.119098  0  3.925905  0  0  0.057595  0.106908  0  3.897809  0
C  C44  1  0.70515343  0.77220100  0.64050767  1  0  0.140034  0  3.663857  0  0  0.109435  0  3.911899  0  0  0.116819  0  3.928762  0  0  0.056803  0.104687  0  3.900525  0
C  C45  1  0.52295551  0.77185111  0.36005667  1  0  0.142717  0  3.660429  0  0  0.111633  0  3.909032  0  0  0.1191  0  3.925867  0  0  0.057596  0.106909  0  3.897779  0
N  N46  1  0.46924916  0.15232742  0.37330359  1  0  -0.311632  0  3.249404  0  0  -0.233991  0  3.516072  0  0  -0.25289  0  3.534566  0  0  -0.312249  -0.221244  0  3.503106  0
N  N47  1  0.37817804  0.15253238  0.62639337  1  0  -0.312577  0  3.250108  0  0  -0.234759  0  3.51697  0  0  -0.25373  0  3.53544  0  0  -0.312417  -0.222478  0  3.504312  0
N  N48  1  0.53075413  0.84767401  0.62669594  1  0  -0.311578  0  3.249237  0  0  -0.233946  0  3.515917  0  0  -0.252842  0  3.534405  0  0  -0.312243  -0.221202  0  3.502958  0
N  N49  1  0.62182278  0.84746608  0.37360753  1  0  -0.312587  0  3.250156  0  0  -0.234753  0  3.517014  0  0  -0.253721  0  3.535482  0  0  -0.312392  -0.222473  0  3.504365  0
N  N50  1  0.52890788  0.45088697  0.03913310  1  0  -0.206458  0  3.055687  0  0  -0.176082  0  3.343691  0  0  -0.185206  0  3.359366  0  0  -0.210672  -0.169705  0  3.332799  0
N  N51  1  0.02037464  0.45094852  0.96075974  1  0  -0.207832  0  3.056424  0  0  -0.177503  0  3.344714  0  0  -0.186635  0  3.360423  0  0  -0.211279  -0.17124  0  3.333962  0
N  N52  1  0.47108799  0.54911347  0.96086753  1  0  -0.206576  0  3.055336  0  0  -0.176222  0  3.343353  0  0  -0.185351  0  3.359028  0  0  -0.21063  -0.169835  0  3.332454  0
N  N53  1  0.97962288  0.54905389  0.03923888  1  0  -0.207711  0  3.056541  0  0  -0.177383  0  3.344817  0  0  -0.18651  0  3.360522  0  0  -0.211233  -0.171114  0  3.334055  0
F  F54  1  0.22806391  0.99989786  0.49574157  1  0  -0.588312  0  1.095704  0  0  -0.514497  0  1.316084  0  0  -0.533169  0  1.290607  0  0  -0.19991  -0.501489  0  1.333681  0
F  F55  1  0.77193295  0.00010060  0.50425987  1  0  -0.58833  0  1.095636  0  0  -0.514487  0  1.316001  0  0  -0.533155  0  1.290516  0  0  -0.199907  -0.501497  0  1.333617  0
F  F56  1  0.08394279  0.83164008  0.50032021  1  0  -0.595185  0  0.89357  0  0  -0.551312  0  1.067593  0  0  -0.564646  0  1.042199  0  0  -0.24435  -0.541572  0  1.08508  0
F  F57  1  0.91605244  0.16835641  0.49968324  1  0  -0.595171  0  0.893567  0  0  -0.551295  0  1.067581  0  0  -0.564631  0  1.042191  0  0  -0.244354  -0.541557  0  1.085068  0
F  F58  1  0.95939764  0.00044748  0.64328192  1  0  -0.592482  0  0.897032  0  0  -0.5488  0  1.069907  0  0  -0.562005  0  1.044568  0  0  -0.243762  -0.539146  0  1.087362  0
F  F59  1  0.04060022  0.99954901  0.35672198  1  0  -0.592462  0  0.897058  0  0  -0.548773  0  1.069929  0  0  -0.561978  0  1.044591  0  0  -0.243756  -0.539119  0  1.087384  0
