# generated using pymatgen
data_Zn4C24N12O37
_symmetry_space_group_name_H-M   'P 1'
_cell_length_a   18.30201171
_cell_length_b   18.30243659
_cell_length_c   18.30218114
_cell_angle_alpha   90.00000464
_cell_angle_beta   119.99891636
_cell_angle_gamma   120.00028467
_symmetry_Int_Tables_number   1
_chemical_formula_structural   Zn4C24N12O37
_chemical_formula_sum   'Zn8 C48 N24 O74'
_cell_volume   4335.11695264
_cell_formula_units_Z   2
loop_
 _symmetry_equiv_pos_site_id
 _symmetry_equiv_pos_as_xyz
  1  'x, y, z'
loop_
 _atom_site_type_symbol
 _atom_site_label
 _atom_site_symmetry_multiplicity
 _atom_site_fract_x
 _atom_site_fract_y
 _atom_site_fract_z
 _atom_site_occupancy
 _atom_site_pbe_bader_charge
 _atom_site_pbe_bader_spin_density
 _atom_site_pbe_cm5_charge
 _atom_site_pbe_ddec_charge
 _atom_site_pbe_ddec_spin_density
 _atom_site_pbe_ddec_sum_bond_order
 _atom_site_pbe_magmom
Zn  Zn0  1  0.58764276  0.63146922  0.04382454  1  1.328724  0  0.699091  1.001666  0  2.260637  0
Zn  Zn1  1  0.41237126  0.45619318  0.86854848  1  1.327947  0  0.698918  1.001205  0  2.26061  0
Zn  Zn2  1  0.41235251  0.45618453  0.04382592  1  1.33191  0  0.699119  1.001613  0  2.260812  0
Zn  Zn3  1  0.58763718  0.45618458  0.04382105  1  1.331624  0  0.698896  1.001136  0  2.260554  0
Zn  Zn4  1  0.41236326  0.86854411  0.45619072  1  1.325479  0  0.699232  1.001696  0  2.260611  0
Zn  Zn5  1  0.58764412  0.04382188  0.45617992  1  1.332487  0  0.699222  1.001747  0  2.260375  0
Zn  Zn6  1  0.58764119  0.04382332  0.63146412  1  1.325685  0  0.699221  1.001795  0  2.260419  0
Zn  Zn7  1  0.41235710  0.04382016  0.45618417  1  1.332428  0  0.699098  1.001507  0  2.260262  0
C  C8  1  0.50000719  0.63646219  0.86353868  1  1.66144  0  0.239729  0.62015  0  4.148872  0
C  C9  1  0.22707682  0.36353996  0.86354085  1  1.641134  0  0.239841  0.619454  0  4.148582  0
C  C10  1  0.49998742  0.63645949  0.13646026  1  1.635658  0  0.239733  0.620285  0  4.14884  0
C  C11  1  0.49998711  0.36353512  0.13645986  1  1.637061  0  0.239683  0.620186  0  4.14888  0
C  C12  1  0.77292568  0.63646555  0.13645961  1  1.64095  0  0.239693  0.619044  0  4.148883  0
C  C13  1  0.50000434  0.36354665  0.86354138  1  1.635441  0  0.239707  0.620351  0  4.148562  0
C  C14  1  0.49999652  0.86353176  0.36354451  1  1.64257  0  0.239734  0.620341  0  4.148738  0
C  C15  1  0.77292264  0.13646221  0.63646198  1  1.62877  0  0.239853  0.619423  0  4.148753  0
C  C16  1  0.50000116  0.86353770  0.63646348  1  1.633283  0  0.239756  0.620242  0  4.149091  0
C  C17  1  0.50001231  0.13646869  0.63647441  1  1.642747  0  0.239811  0.620449  0  4.148874  0
C  C18  1  0.22708061  0.86353535  0.36354267  1  1.629135  0  0.239743  0.61928  0  4.148894  0
C  C19  1  0.50000228  0.13646072  0.36353745  1  1.630622  0  0.239766  0.620325  0  4.148731  0
C  C20  1  0.88947185  0.69473724  0.19473584  1  0.064286  0  0.018163  -0.071579  0  3.86528  0
C  C21  1  0.11054191  0.80526844  0.30527291  1  0.136317  0  0.018128  -0.071547  0  3.865351  0
C  C22  1  0.94621571  0.65791427  0.22462388  1  0.320521  0  0.105928  0.035828  0  3.874265  0
C  C23  1  0.05378637  0.84208109  0.27839780  1  0.305882  0  0.105963  0.035889  0  3.874035  0
C  C24  1  0.05378480  0.71170325  0.27538250  1  0.225947  0  0.105979  0.035964  0  3.873871  0
C  C25  1  0.94621669  0.78830485  0.22158605  1  0.263266  0  0.105957  0.03585  0  3.874097  0
C  C26  1  0.11053730  0.30527157  0.80526794  1  0.064252  0  0.018141  -0.071505  0  3.865189  0
C  C27  1  0.88946706  0.19473951  0.69473187  1  0.136401  0  0.018144  -0.071625  0  3.865304  0
C  C28  1  0.05377566  0.27538097  0.84207612  1  0.321373  0  0.105866  0.035812  0  3.874164  0
C  C29  1  0.94621653  0.22160600  0.65791378  1  0.306486  0  0.105968  0.035853  0  3.874028  0
C  C30  1  0.94621611  0.22462883  0.78829804  1  0.224746  0  0.105963  0.035939  0  3.87416  0
C  C31  1  0.05378817  0.27841153  0.71170284  1  0.263069  0  0.105922  0.035814  0  3.873843  0
C  C32  1  0.49999483  0.69472563  0.19473631  1  0.095548  0  0.018061  -0.075215  0  3.869897  0
C  C33  1  0.49999135  0.80526451  0.30526794  1  0.139895  0  0.018239  -0.075092  0  3.869754  0
C  C34  1  0.43329586  0.65791569  0.22160439  1  0.226196  0  0.105894  0.037101  0  3.874146  0
C  C35  1  0.56367292  0.84208507  0.27537717  1  0.264274  0  0.105942  0.03701  0  3.874144  0
C  C36  1  0.43631792  0.71169835  0.27841485  1  0.233967  0  0.10595  0.03704  0  3.874058  0
C  C37  1  0.56669298  0.78829452  0.22461411  1  0.313213  0  0.106019  0.037077  0  3.873961  0
C  C38  1  0.50000664  0.30527283  0.80527730  1  0.095899  0  0.018245  -0.075132  0  3.869951  0
C  C39  1  0.50000968  0.19473416  0.69473888  1  0.140952  0  0.018137  -0.075266  0  3.869863  0
C  C40  1  0.56670837  0.27840432  0.84209639  1  0.226544  0  0.105917  0.03708  0  3.874205  0
C  C41  1  0.43634334  0.22463601  0.65792397  1  0.263117  0  0.106024  0.037201  0  3.873753  0
C  C42  1  0.56367699  0.22159039  0.78830713  1  0.233912  0  0.105924  0.036925  0  3.874184  0
C  C43  1  0.43331281  0.27539681  0.71170984  1  0.313257  0  0.105927  0.037043  0  3.87415  0
C  C44  1  0.49999744  0.69473280  0.80526266  1  0.127473  0  0.018201  -0.074926  0  3.869765  0
C  C45  1  0.50000205  0.80526961  0.69472578  1  0.066785  0  0.018123  -0.075245  0  3.870065  0
C  C46  1  0.43632796  0.65791645  0.71169933  1  0.262153  0  0.105937  0.036977  0  3.874549  0
C  C47  1  0.56669924  0.84208160  0.78829601  1  0.275508  0  0.106007  0.037124  0  3.873977  0
C  C48  1  0.43330597  0.71170740  0.65792361  1  0.274856  0  0.105936  0.037069  0  3.87415  0
C  C49  1  0.56368626  0.78830240  0.84209111  1  0.262222  0  0.105909  0.036907  0  3.87436  0
C  C50  1  0.49997762  0.30525330  0.19471752  1  0.110715  0  0.018236  -0.07503  0  3.869804  0
C  C51  1  0.49999121  0.19472064  0.30525913  1  0.063155  0  0.018166  -0.075059  0  3.869832  0
C  C52  1  0.56365003  0.27535810  0.22156289  1  0.241591  0  0.106047  0.036884  0  3.874298  0
C  C53  1  0.43328689  0.22158461  0.27537780  1  0.312152  0  0.105976  0.037057  0  3.873981  0
C  C54  1  0.56668682  0.22460596  0.27838335  1  0.306552  0  0.105918  0.037025  0  3.874338  0
C  C55  1  0.43630988  0.27839650  0.22462013  1  0.237281  0  0.105867  0.037038  0  3.874029  0
N  N56  1  0.89297472  0.55961369  0.20474843  1  0.455085  0  0.059546  0.501451  0  4.276208  0
N  N57  1  0.10702866  0.94039114  0.31176245  1  0.451018  0  0.059563  0.501303  0  4.276358  0
N  N58  1  0.10702777  0.66663558  0.29525717  1  0.463726  0  0.059489  0.501278  0  4.276339  0
N  N59  1  0.89297888  0.83336550  0.18821392  1  0.447394  0  0.059517  0.501664  0  4.275609  0
N  N60  1  0.10701871  0.29525532  0.94038799  1  0.455013  0  0.059444  0.501187  0  4.276388  0
N  N61  1  0.89298207  0.18824101  0.55961166  1  0.4514  0  0.059621  0.501509  0  4.27632  0
N  N62  1  0.89296432  0.20473775  0.83335706  1  0.463874  0  0.059561  0.501373  0  4.275741  0
N  N63  1  0.10703950  0.31177594  0.66664195  1  0.446751  0  0.059513  0.50138  0  4.275742  0
N  N64  1  0.35486146  0.55960619  0.18823644  1  0.455863  0  0.059406  0.501224  0  4.276401  0
N  N65  1  0.62861353  0.94038264  0.29525546  1  0.465744  0  0.059493  0.501351  0  4.276249  0
N  N66  1  0.37137681  0.66663549  0.31177865  1  0.428086  0  0.05942  0.501331  0  4.275743  0
N  N67  1  0.64511750  0.83335558  0.20473041  1  0.447341  0  0.059579  0.501355  0  4.276375  0
N  N68  1  0.64513781  0.31176828  0.94039996  1  0.455625  0  0.059481  0.501259  0  4.276175  0
N  N69  1  0.37140409  0.20476675  0.55962081  1  0.466077  0  0.059565  0.501662  0  4.275723  0
N  N70  1  0.62861033  0.18821586  0.83337429  1  0.428193  0  0.059538  0.501867  0  4.275561  0
N  N71  1  0.35489686  0.29528421  0.66665098  1  0.44719  0  0.059763  0.501401  0  4.276438  0
N  N72  1  0.37138840  0.55961702  0.66663932  1  0.466453  0  0.059498  0.501322  0  4.276014  0
N  N73  1  0.64513098  0.94039123  0.83336232  1  0.44917  0  0.059481  0.501325  0  4.276109  0
N  N74  1  0.35486751  0.66664263  0.55961114  1  0.450155  0  0.059553  0.50135  0  4.275849  0
N  N75  1  0.62861957  0.83335874  0.94038695  1  0.467751  0  0.059519  0.501506  0  4.276309  0
N  N76  1  0.62858390  0.29523008  0.18819162  1  0.412609  0  0.059336  0.501619  0  4.276091  0
N  N77  1  0.35485584  0.18821415  0.29525661  1  0.460458  0  0.059438  0.501403  0  4.275348  0
N  N78  1  0.64512310  0.20473609  0.31174940  1  0.460956  0  0.059759  0.501583  0  4.276194  0
N  N79  1  0.37137130  0.31176269  0.20475118  1  0.413583  0  0.059567  0.50141  0  4.276066  0
O  O80  1  0.50000115  0.50002693  0.00001933  1  -1.217037  0  -0.57647  -1.061625  0  2.522632  0
O  O81  1  0.58251261  0.67112549  0.94183965  1  -1.15897  0  -0.294894  -0.520199  0  2.333268  0
O  O82  1  0.27072622  0.35934464  0.82888273  1  -1.147021  0  -0.29486  -0.520232  0  2.333484  0
O  O83  1  0.46952637  0.55815636  0.14066593  1  -1.148962  0  -0.294861  -0.520164  0  2.333276  0
O  O84  1  0.41749759  0.55815370  0.82886863  1  -1.158721  0  -0.294759  -0.519979  0  2.333159  0
O  O85  1  0.53043359  0.67111524  0.08860859  1  -1.14499  0  -0.294762  -0.52011  0  2.333195  0
O  O86  1  0.27071177  0.41138221  0.94184077  1  -1.15266  0  -0.294985  -0.520395  0  2.333666  0
O  O87  1  0.41748527  0.35934446  0.08863303  1  -1.14724  0  -0.294743  -0.52009  0  2.333364  0
O  O88  1  0.72927913  0.55815996  0.08862400  1  -1.152452  0  -0.294837  -0.520025  0  2.33372  0
O  O89  1  0.58248952  0.41136803  0.14065233  1  -1.146675  0  -0.294839  -0.52  0  2.333078  0
O  O90  1  0.72928675  0.67114181  0.14065613  1  -1.146784  0  -0.294829  -0.520145  0  2.333571  0
O  O91  1  0.46955458  0.41139483  0.82888477  1  -1.144923  0  -0.294763  -0.520057  0  2.333244  0
O  O92  1  0.53046250  0.35933869  0.94184894  1  -1.148922  0  -0.294843  -0.520161  0  2.332741  0
O  O93  1  0.50001069  0.99999958  0.50001305  1  -1.216223  0  -0.577183  -1.062087  0  2.522871  0
O  O94  1  0.41749374  0.82886646  0.35935077  1  -1.144631  0  -0.294815  -0.520206  0  2.333214  0
O  O95  1  0.72928467  0.14066185  0.55815622  1  -1.152866  0  -0.294916  -0.520315  0  2.33362  0
O  O96  1  0.53045520  0.94183686  0.67112508  1  -1.14508  0  -0.294806  -0.520136  0  2.333134  0
O  O97  1  0.58250428  0.94183519  0.41138529  1  -1.153385  0  -0.294876  -0.520194  0  2.332957  0
O  O98  1  0.46954364  0.82887807  0.55816166  1  -1.145102  0  -0.294863  -0.520088  0  2.33325  0
O  O99  1  0.72928346  0.08862151  0.67112844  1  -1.15157  0  -0.294943  -0.520357  0  2.333617  0
O  O100  1  0.58251230  0.14066340  0.67114069  1  -1.144527  0  -0.294793  -0.520199  0  2.333316  0
O  O101  1  0.27072350  0.94184011  0.35934277  1  -1.152654  0  -0.294848  -0.520225  0  2.333528  0
O  O102  1  0.41751160  0.08863276  0.55816650  1  -1.153492  0  -0.294854  -0.520184  0  2.333116  0
O  O103  1  0.27071774  0.82887116  0.41138441  1  -1.152133  0  -0.294897  -0.520286  0  2.333724  0
O  O104  1  0.53047847  0.08862856  0.35933759  1  -1.143508  0  -0.294885  -0.520274  0  2.333057  0
O  O105  1  0.46954194  0.14065567  0.41138152  1  -1.143748  0  -0.294766  -0.520106  0  2.333206  0
O  O106  1  0.84719781  0.52629501  0.23991637  1  -0.410962  0  -0.099019  -0.278069  0  1.920963  0
O  O107  1  0.90197818  0.52212179  0.15723328  1  -0.380537  0  -0.085571  -0.258226  0  1.910511  0
O  O108  1  0.15280808  0.97371077  0.39270871  1  -0.414248  0  -0.099075  -0.278065  0  1.920904  0
O  O109  1  0.09801219  0.97787572  0.25523760  1  -0.381386  0  -0.08553  -0.258141  0  1.910747  0
O  O110  1  0.15280923  0.67910404  0.26009040  1  -0.417953  0  -0.099001  -0.278014  0  1.921035  0
O  O111  1  0.09800882  0.62012547  0.34275795  1  -0.378046  0  -0.085521  -0.258164  0  1.910715  0
O  O112  1  0.84722224  0.82091271  0.10727252  1  -0.405448  0  -0.098992  -0.278129  0  1.920535  0
O  O113  1  0.90197173  0.87985989  0.24472705  1  -0.378504  0  -0.085622  -0.258384  0  1.910365  0
O  O114  1  0.15279849  0.26008704  0.97369851  1  -0.411014  0  -0.09899  -0.277988  0  1.921074  0
O  O115  1  0.09800249  0.34275857  0.97787938  1  -0.380551  0  -0.08549  -0.258112  0  1.910668  0
O  O116  1  0.84721654  0.10730002  0.52629997  1  -0.414365  0  -0.099047  -0.278064  0  1.920905  0
O  O117  1  0.90198181  0.24475957  0.52211813  1  -0.381691  0  -0.085649  -0.258316  0  1.910653  0
O  O118  1  0.84719039  0.23990739  0.82090654  1  -0.418195  0  -0.098995  -0.27807  0  1.920951  0
O  O119  1  0.90196937  0.15721745  0.87984624  1  -0.378006  0  -0.085582  -0.258155  0  1.910227  0
O  O120  1  0.15281757  0.39272058  0.67909902  1  -0.404855  0  -0.098997  -0.278068  0  1.920803  0
O  O121  1  0.09803145  0.25525295  0.62014790  1  -0.378249  0  -0.085555  -0.258167  0  1.910287  0
O  O122  1  0.28637911  0.52629364  0.10729445  1  -0.404816  0  -0.098907  -0.277915  0  1.921234  0
O  O123  1  0.36487704  0.52211228  0.24475708  1  -0.379469  0  -0.085552  -0.258239  0  1.910659  0
O  O124  1  0.58098827  0.97370276  0.26008626  1  -0.413997  0  -0.098982  -0.27802  0  1.920971  0
O  O125  1  0.72262199  0.97786736  0.34276847  1  -0.378346  0  -0.085528  -0.258158  0  1.910489  0
O  O126  1  0.41900071  0.67908116  0.39272153  1  -0.394943  0  -0.098891  -0.277959  0  1.920584  0
O  O127  1  0.27736871  0.62014064  0.25526142  1  -0.375321  0  -0.085529  -0.258188  0  1.910648  0
O  O128  1  0.71359881  0.82089123  0.23988987  1  -0.397796  0  -0.099023  -0.278039  0  1.921203  0
O  O129  1  0.63508754  0.87985432  0.15721846  1  -0.378306  0  -0.085565  -0.258154  0  1.910538  0
O  O130  1  0.71362092  0.39271285  0.97371526  1  -0.405033  0  -0.098999  -0.277998  0  1.920919  0
O  O131  1  0.63511807  0.25524488  0.97788672  1  -0.379236  0  -0.085494  -0.258105  0  1.910782  0
O  O132  1  0.41903603  0.23994111  0.52630539  1  -0.4144  0  -0.099013  -0.278154  0  1.920407  0
O  O133  1  0.27739403  0.15725230  0.52213203  1  -0.378212  0  -0.085575  -0.258353  0  1.910719  0
O  O134  1  0.58096869  0.10726797  0.82091158  1  -0.394945  0  -0.099053  -0.278277  0  1.920293  0
O  O135  1  0.72261832  0.24472802  0.87987354  1  -0.37528  0  -0.08551  -0.258367  0  1.910973  0
O  O136  1  0.28641422  0.26012535  0.67911410  1  -0.398372  0  -0.099181  -0.278119  0  1.921138  0
O  O137  1  0.36493022  0.34279937  0.62015516  1  -0.377868  0  -0.085584  -0.258142  0  1.910496  0
O  O138  1  0.41901685  0.52630052  0.67908878  1  -0.411127  0  -0.099021  -0.277989  0  1.920742  0
O  O139  1  0.27737944  0.52212779  0.62014343  1  -0.379499  0  -0.085499  -0.258161  0  1.910621  0
O  O140  1  0.71362256  0.97370877  0.82091187  1  -0.406694  0  -0.098953  -0.27796  0  1.921161  0
O  O141  1  0.63509348  0.97787493  0.87985561  1  -0.380462  0  -0.085564  -0.258227  0  1.910435  0
O  O142  1  0.28638219  0.67910232  0.52630247  1  -0.406532  0  -0.098982  -0.278022  0  1.921033  0
O  O143  1  0.36488658  0.62013889  0.52211904  1  -0.381493  0  -0.085579  -0.258197  0  1.910388  0
O  O144  1  0.58098813  0.82089258  0.97370428  1  -0.411411  0  -0.098984  -0.278087  0  1.92098  0
O  O145  1  0.72262728  0.87985703  0.97787347  1  -0.379741  0  -0.085539  -0.258207  0  1.910639  0
O  O146  1  0.58095169  0.26004698  0.10724784  1  -0.394544  0  -0.098916  -0.278126  0  1.920934  0
O  O147  1  0.72259311  0.34274453  0.24470722  1  -0.350318  0  -0.085488  -0.258263  0  1.910509  0
O  O148  1  0.28637366  0.10726916  0.26009062  1  -0.411418  0  -0.098972  -0.278091  0  1.920638  0
O  O149  1  0.36487543  0.24473956  0.34276565  1  -0.379401  0  -0.085468  -0.258167  0  1.910281  0
O  O150  1  0.71361619  0.23992839  0.39268912  1  -0.410959  0  -0.099162  -0.278131  0  1.920907  0
O  O151  1  0.63509881  0.15721296  0.25523472  1  -0.380105  0  -0.085607  -0.258255  0  1.910638  0
O  O152  1  0.41901192  0.39270776  0.23993416  1  -0.394579  0  -0.098992  -0.277975  0  1.92078  0
O  O153  1  0.27736344  0.25525332  0.15724118  1  -0.351467  0  -0.08558  -0.25828  0  1.910872  0
