# generated using pymatgen
data_KH15C16(SO2)2
_symmetry_space_group_name_H-M   'P 1'
_cell_length_a   6.08077881
_cell_length_b   7.09228830
_cell_length_c   18.61899829
_cell_angle_alpha   98.02120762
_cell_angle_beta   93.77114566
_cell_angle_gamma   96.29719096
_symmetry_Int_Tables_number   1
_chemical_formula_structural   KH15C16(SO2)2
_chemical_formula_sum   'K2 H30 C32 S4 O8'
_cell_volume   787.63539364
_cell_formula_units_Z   2
loop_
 _symmetry_equiv_pos_site_id
 _symmetry_equiv_pos_as_xyz
  1  'x, y, z'
loop_
 _atom_site_type_symbol
 _atom_site_label
 _atom_site_symmetry_multiplicity
 _atom_site_fract_x
 _atom_site_fract_y
 _atom_site_fract_z
 _atom_site_occupancy
 _atom_site_hle17_bader_spin_density
 _atom_site_hle17_ddec_charge
 _atom_site_hle17_ddec_spin_density
 _atom_site_hle17_ddec_sum_bond_order
 _atom_site_hle17_magmom
 _atom_site_hse06_10hf_bader_spin_density
 _atom_site_hse06_10hf_ddec_charge
 _atom_site_hse06_10hf_ddec_spin_density
 _atom_site_hse06_10hf_ddec_sum_bond_order
 _atom_site_hse06_10hf_magmom
 _atom_site_hse06_bader_spin_density
 _atom_site_hse06_ddec_charge
 _atom_site_hse06_ddec_spin_density
 _atom_site_hse06_ddec_sum_bond_order
 _atom_site_hse06_magmom
 _atom_site_pbe_bader_spin_density
 _atom_site_pbe_cm5_charge
 _atom_site_pbe_ddec_charge
 _atom_site_pbe_ddec_spin_density
 _atom_site_pbe_ddec_sum_bond_order
 _atom_site_pbe_magmom
K  K0  1  0.78478959  0.70711871  0.97686980  1  0  0.918547  0  0.483241  0  0  0.858141  0  0.689061  0  0  0.87149  0  0.669481  0  0  0.761983  0.848114  0  0.703148  0
K  K1  1  0.21523232  0.29288940  0.02312935  1  0  0.918537  0  0.483267  0  0  0.858151  0  0.689046  0  0  0.871497  0  0.669469  0  0  0.761974  0.848123  0  0.703135  0
H  H2  1  0.70763459  0.16250601  0.22944685  1  0  0.085628  0  1.00868  0  0  0.091343  0  1.082781  0  0  0.094983  0  1.080679  0  0  0.089872  0.088747  0  1.084318  0
H  H3  1  0.29236921  0.83750208  0.77054922  1  0  0.085592  0  1.008754  0  0  0.091375  0  1.082776  0  0  0.095013  0  1.080676  0  0  0.089884  0.088779  0  1.084314  0
H  H4  1  0.65172341  0.23539305  0.35917270  1  0  0.087097  0  0.965138  0  0  0.098303  0  1.026325  0  0  0.100281  0  1.026506  0  0  0.097887  0.096785  0  1.026433  0
H  H5  1  0.34826640  0.76460933  0.64082385  1  0  0.087124  0  0.965129  0  0  0.098297  0  1.026354  0  0  0.100271  0  1.026538  0  0  0.097906  0.096783  0  1.026459  0
H  H6  1  0.92993479  0.16231445  0.45348579  1  0  0.075879  0  0.974224  0  0  0.088134  0  1.038142  0  0  0.090534  0  1.037123  0  0  0.095033  0.086391  0  1.038971  0
H  H7  1  0.07004762  0.83768223  0.54651299  1  0  0.075795  0  0.974271  0  0  0.088066  0  1.038185  0  0  0.090465  0  1.037165  0  0  0.095024  0.086335  0  1.039  0
H  H8  1  0.26364498  0.01073639  0.41355295  1  0  0.081984  0  0.968622  0  0  0.094856  0  1.028679  0  0  0.096537  0  1.029219  0  0  0.097017  0.093644  0  1.028373  0
H  H9  1  0.73633846  0.98925601  0.58644778  1  0  0.082003  0  0.968618  0  0  0.094875  0  1.028682  0  0  0.096558  0  1.029219  0  0  0.097061  0.093666  0  1.028369  0
H  H10  1  0.32425020  0.94274898  0.28472808  1  0  0.096845  0  0.973232  0  0  0.107722  0  1.036051  0  0  0.109939  0  1.036363  0  0  0.09862  0.106065  0  1.036027  0
H  H11  1  0.67573964  0.05724198  0.71527326  1  0  0.096852  0  0.973249  0  0  0.107747  0  1.036051  0  0  0.109951  0  1.036357  0  0  0.098621  0.106089  0  1.036025  0
H  H12  1  0.43439630  0.98275976  0.17047378  1  0  0.121382  0  0.94476  0  0  0.133511  0  1.01012  0  0  0.135533  0  1.009021  0  0  0.105241  0.132006  0  1.011202  0
H  H13  1  0.56560588  0.01723696  0.82953134  1  0  0.121366  0  0.944744  0  0  0.133473  0  1.010136  0  0  0.135471  0  1.009032  0  0  0.105222  0.131968  0  1.011222  0
H  H14  1  0.27248635  0.76076662  0.17808514  1  0  0.110757  0  0.980636  0  0  0.118637  0  1.050956  0  0  0.120924  0  1.050319  0  0  0.098236  0.11701  0  1.051529  0
H  H15  1  0.72751004  0.23923579  0.82191478  1  0  0.1108  0  0.980615  0  0  0.118676  0  1.050956  0  0  0.120947  0  1.050307  0  0  0.098255  0.117046  0  1.051532  0
H  H16  1  0.86982920  0.56732355  0.67655132  1  0  0.086842  0  0.99422  0  0  0.097088  0  1.059512  0  0  0.099199  0  1.060106  0  0  0.091848  0.095504  0  1.059358  0
H  H17  1  0.13016245  0.43268027  0.32344588  1  0  0.086753  0  0.994244  0  0  0.097044  0  1.059507  0  0  0.099157  0  1.0601  0  0  0.09184  0.095456  0  1.059356  0
H  H18  1  0.87622928  0.44755810  0.54638612  1  0  0.079513  0  0.958796  0  0  0.092049  0  1.019744  0  0  0.09425  0  1.019106  0  0  0.096031  0.090408  0  1.02041  0
H  H19  1  0.12377660  0.55244143  0.45361332  1  0  0.079497  0  0.958842  0  0  0.092035  0  1.019801  0  0  0.094236  0  1.019161  0  0  0.096028  0.090399  0  1.020455  0
H  H20  1  0.54004817  0.25293671  0.47684278  1  0  0.084001  0  0.971965  0  0  0.095632  0  1.034528  0  0  0.097979  0  1.034133  0  0  0.095836  0.093957  0  1.034892  0
H  H21  1  0.45996184  0.74705708  0.52315699  1  0  0.083963  0  0.971869  0  0  0.095554  0  1.034485  0  0  0.097903  0  1.03409  0  0  0.095795  0.093872  0  1.034862  0
H  H22  1  0.20587255  0.17390273  0.54240634  1  0  0.075678  0  0.982612  0  0  0.087624  0  1.045996  0  0  0.089593  0  1.045577  0  0  0.094376  0.086207  0  1.04639  0
H  H23  1  0.79413481  0.82608386  0.45759031  1  0  0.075696  0  0.982697  0  0  0.087642  0  1.046058  0  0  0.089616  0  1.045636  0  0  0.094416  0.086215  0  1.046475  0
H  H24  1  0.19867899  0.28585813  0.67215811  1  0  0.093125  0  0.981921  0  0  0.103664  0  1.045883  0  0  0.105761  0  1.046711  0  0  0.095986  0.102138  0  1.045421  0
H  H25  1  0.80132528  0.71412990  0.32783855  1  0  0.093165  0  0.981812  0  0  0.103722  0  1.045762  0  0  0.105802  0  1.046643  0  0  0.096032  0.102194  0  1.045297  0
H  H26  1  0.25965506  0.30485239  0.80637873  1  0  0.130289  0  0.946209  0  0  0.13852  0  1.012843  0  0  0.140663  0  1.012702  0  0  0.106536  0.136929  0  1.013139  0
H  H27  1  0.74033989  0.69515152  0.19362661  1  0  0.130265  0  0.94617  0  0  0.138522  0  1.012803  0  0  0.140667  0  1.01266  0  0  0.10653  0.136934  0  1.013094  0
H  H28  1  0.14949071  0.48779126  0.76360386  1  0  0.124505  0  0.933314  0  0  0.139634  0  0.992814  0  0  0.140991  0  0.992904  0  0  0.109727  0.138548  0  0.993095  0
H  H29  1  0.85049624  0.51220257  0.23639756  1  0  0.124493  0  0.933417  0  0  0.13966  0  0.992894  0  0  0.141019  0  0.99298  0  0  0.109756  0.138576  0  0.993167  0
H  H30  1  0.29984043  0.79543669  0.95219076  1  0  0.38807  0  0.911488  0  0  0.355319  0  0.992734  0  0  0.369959  0  0.978276  0  0  0.29351  0.345113  0  1.00266  0
H  H31  1  0.70016646  0.20457004  0.04781230  1  0  0.388053  0  0.911524  0  0  0.35527  0  0.992802  0  0  0.369909  0  0.978347  0  0  0.293474  0.345065  0  1.002722  0
C  C32  1  0.02043655  0.04824739  0.24699171  1  0  0.035939  0  3.805517  0  0  0.058629  0  4.057332  0  0  0.061019  0  4.079293  0  0  -0.010552  0.056825  0  4.042516  0
C  C33  1  0.97956129  0.95175358  0.75300763  1  0  0.035988  0  3.805458  0  0  0.058724  0  4.057204  0  0  0.061091  0  4.079206  0  0  -0.010484  0.056919  0  4.042391  0
C  C34  1  0.83081718  0.12976603  0.26971724  1  0  -0.142428  0  3.758961  0  0  -0.160131  0  4.006843  0  0  -0.163508  0  4.025867  0  0  -0.108155  -0.157838  0  3.994196  0
C  C35  1  0.16918436  0.87023778  0.73028018  1  0  -0.142465  0  3.759027  0  0  -0.160227  0  4.006845  0  0  -0.163602  0  4.025882  0  0  -0.108181  -0.157932  0  3.994202  0
C  C36  1  0.79941890  0.17095100  0.34338276  1  0  -0.059586  0  3.779621  0  0  -0.070463  0  4.025381  0  0  -0.070836  0  4.04616  0  0  -0.093838  -0.070099  0  4.011223  0
C  C37  1  0.20057380  0.82904853  0.65661532  1  0  -0.059556  0  3.779615  0  0  -0.070402  0  4.025354  0  0  -0.070776  0  4.046138  0  0  -0.093828  -0.070041  0  4.011205  0
C  C38  1  0.95532458  0.13028317  0.39589254  1  0  -0.096422  0  3.79871  0  0  -0.110863  0  4.046285  0  0  -0.113737  0  4.067644  0  0  -0.10096  -0.108756  0  4.031512  0
C  C39  1  0.04466112  0.86971351  0.60410685  1  0  -0.096351  0  3.798813  0  0  -0.110805  0  4.046392  0  0  -0.113681  0  4.067757  0  0  -0.100981  -0.108708  0  4.031619  0
C  C40  1  0.14173997  0.04703777  0.37368459  1  0  -0.057865  0  3.77713  0  0  -0.068193  0  4.021381  0  0  -0.068984  0  4.043028  0  0  -0.091307  -0.067561  0  4.006604  0
C  C41  1  0.85825027  0.95295603  0.62631368  1  0  -0.057996  0  3.777049  0  0  -0.068337  0  4.021349  0  0  -0.069132  0  4.042987  0  0  -0.091415  -0.067698  0  4.006563  0
C  C42  1  0.17603944  0.00645165  0.29989060  1  0  -0.127512  0  3.73841  0  0  -0.147252  0  3.984076  0  0  -0.150575  0  4.005481  0  0  -0.101628  -0.14495  0  3.969687  0
C  C43  1  0.82395141  0.99354648  0.70011059  1  0  -0.127474  0  3.738292  0  0  -0.147247  0  3.983965  0  0  -0.150542  0  4.00536  0  0  -0.101617  -0.144945  0  3.969573  0
C  C44  1  0.28731575  0.88268435  0.14756094  1  0  -0.307879  0  3.658005  0  0  -0.336672  0  3.902463  0  0  -0.341228  0  3.907382  0  0  -0.149302  -0.33367  0  3.899295  0
C  C45  1  0.71269198  0.11731666  0.85244291  1  0  -0.307893  0  3.658262  0  0  -0.336683  0  3.902649  0  0  -0.341136  0  3.90744  0  0  -0.149275  -0.333683  0  3.899484  0
C  C46  1  0.32770933  0.80564165  0.06991225  1  0  0.731525  0  3.838663  0  0  0.689572  0  4.132813  0  0  0.72335  0  4.122516  0  0  0.209445  0.666607  0  4.139183  0
C  C47  1  0.67230744  0.19436505  0.93008887  1  0  0.731395  0  3.838832  0  0  0.689552  0  4.132822  0  0  0.723305  0  4.122527  0  0  0.20935  0.666593  0  4.139188  0
C  C48  1  0.53392113  0.43746584  0.68408031  1  0  0.029191  0  3.802342  0  0  0.051548  0  4.054826  0  0  0.053548  0  4.076585  0  0  -0.013441  0.050058  0  4.039943  0
C  C49  1  0.46607920  0.56252937  0.31591663  1  0  0.029099  0  3.802257  0  0  0.051439  0  4.054794  0  0  0.053442  0  4.076545  0  0  -0.013444  0.049963  0  4.039889  0
C  C50  1  0.72479290  0.47840940  0.64743080  1  0  -0.127849  0  3.761933  0  0  -0.146778  0  4.006986  0  0  -0.149987  0  4.028751  0  0  -0.103532  -0.14455  0  3.992373  0
C  C51  1  0.27520864  0.52159443  0.35256876  1  0  -0.127759  0  3.761867  0  0  -0.146718  0  4.006928  0  0  -0.149931  0  4.028702  0  0  -0.103546  -0.14449  0  3.992305  0
C  C52  1  0.72761989  0.41094282  0.57372061  1  0  -0.060222  0  3.797047  0  0  -0.071807  0  4.04499  0  0  -0.072992  0  4.06658  0  0  -0.094607  -0.070948  0  4.030334  0
C  C53  1  0.27238064  0.58905385  0.42627964  1  0  -0.060222  0  3.797009  0  0  -0.071817  0  4.044948  0  0  -0.073001  0  4.066533  0  0  -0.094612  -0.070956  0  4.030296  0
C  C54  1  0.54086557  0.30173104  0.53497306  1  0  -0.099075  0  3.803007  0  0  -0.114505  0  4.052272  0  0  -0.116866  0  4.073951  0  0  -0.105121  -0.112752  0  4.037332  0
C  C55  1  0.45914240  0.69825984  0.46502276  1  0  -0.098946  0  3.802922  0  0  -0.114322  0  4.052141  0  0  -0.116684  0  4.073821  0  0  -0.105004  -0.112579  0  4.037224  0
C  C56  1  0.35289060  0.25932558  0.57144470  1  0  -0.064704  0  3.795845  0  0  -0.075764  0  4.041145  0  0  -0.077185  0  4.0634  0  0  -0.095896  -0.074708  0  4.025901  0
C  C57  1  0.64712066  0.74066533  0.42855388  1  0  -0.064806  0  3.7962  0  0  -0.075865  0  4.041487  0  0  -0.077288  0  4.063741  0  0  -0.09602  -0.074804  0  4.026218  0
C  C58  1  0.34789124  0.32454747  0.64561500  1  0  -0.128791  0  3.756244  0  0  -0.146566  0  3.996599  0  0  -0.150067  0  4.019202  0  0  -0.104059  -0.144037  0  3.981261  0
C  C59  1  0.65211014  0.67544345  0.35438390  1  0  -0.128752  0  3.756216  0  0  -0.146545  0  3.996602  0  0  -0.150049  0  4.019189  0  0  -0.104074  -0.144016  0  3.981252  0
C  C60  1  0.27925774  0.45917275  0.80348641  1  0  -0.310665  0  3.636319  0  0  -0.342892  0  3.885974  0  0  -0.346971  0  3.890486  0  0  -0.146272  -0.340035  0  3.882868  0
C  C61  1  0.72073784  0.54082394  0.19651427  1  0  -0.3107  0  3.636301  0  0  -0.343009  0  3.886031  0  0  -0.347106  0  3.890585  0  0  -0.146333  -0.340155  0  3.882928  0
C  C62  1  0.23076707  0.56274112  0.87657130  1  0  0.732526  0  3.788066  0  0  0.686504  0  4.09075  0  0  0.720411  0  4.0795  0  0  0.227459  0.663326  0  4.098025  0
C  C63  1  0.76924082  0.43727273  0.12342731  1  0  0.732653  0  3.787876  0  0  0.686642  0  4.090541  0  0  0.720547  0  4.079288  0  0  0.227548  0.663463  0  4.097819  0
S  S64  1  0.04321791  0.00530645  0.15254506  1  0  -0.005867  0  2.488849  0  0  -0.008553  0  2.833943  0  0  -0.010304  0  2.833679  0  0  0.012847  -0.00701  0  2.834388  0
S  S65  1  0.95679062  0.99470025  0.84745480  1  0  -0.005834  0  2.488997  0  0  -0.00853  0  2.834067  0  0  -0.010306  0  2.833774  0  0  0.012863  -0.006981  0  2.834512  0
S  S66  1  0.54884937  0.54092243  0.77623456  1  0  0.03212  0  2.470298  0  0  0.030666  0  2.81638  0  0  0.027829  0  2.817511  0  0  0.034337  0.033006  0  2.815658  0
S  S67  1  0.45114312  0.45907565  0.22376291  1  0  0.032158  0  2.47024  0  0  0.030702  0  2.81638  0  0  0.027874  0  2.817514  0  0  0.034333  0.033033  0  2.815659  0
O  O68  1  0.44608603  0.67210414  0.06106309  1  0  -0.675276  0  1.946479  0  0  -0.629507  0  2.184894  0  0  -0.653196  0  2.176882  0  0  -0.434303  -0.612867  0  2.189859  0
O  O69  1  0.55392724  0.32790115  0.93893949  1  0  -0.675208  0  1.946578  0  0  -0.629487  0  2.184949  0  0  -0.65318  0  2.176952  0  0  -0.43426  -0.612841  0  2.189886  0
O  O70  1  0.24215592  0.88534112  0.01775621  1  0  -0.69297  0  2.012224  0  0  -0.636163  0  2.244252  0  0  -0.660962  0  2.23232  0  0  -0.397789  -0.618765  0  2.251958  0
O  O71  1  0.75786825  0.11467133  0.98224697  1  0  -0.692919  0  2.012115  0  0  -0.636135  0  2.244118  0  0  -0.660932  0  2.232197  0  0  -0.397764  -0.618742  0  2.251819  0
O  O72  1  0.07756868  0.49341843  0.90912732  1  0  -0.644147  0  1.959617  0  0  -0.605457  0  2.201975  0  0  -0.627613  0  2.194003  0  0  -0.408031  -0.59015  0  2.207249  0
O  O73  1  0.92242172  0.50658831  0.09087431  1  0  -0.644039  0  1.959703  0  0  -0.60538  0  2.20206  0  0  -0.627527  0  2.194086  0  0  -0.407998  -0.590073  0  2.207331  0
O  O74  1  0.35228742  0.72827479  0.89954787  1  0  -0.600174  0  2.109555  0  0  -0.545552  0  2.34194  0  0  -0.569769  0  2.328341  0  0  -0.353026  -0.528718  0  2.35096  0
O  O75  1  0.64771802  0.27173336  0.10045361  1  0  -0.600341  0  2.109394  0  0  -0.545637  0  2.341743  0  0  -0.569858  0  2.328148  0  0  -0.353083  -0.528802  0  2.35076  0
