# generated using pymatgen
data_CdH18C20(NO)4
_symmetry_space_group_name_H-M   'P 1'
_cell_length_a   8.16023176
_cell_length_b   8.16022243
_cell_length_c   14.07576851
_cell_angle_alpha   90.81625060
_cell_angle_beta   90.81657536
_cell_angle_gamma   90.59205355
_symmetry_Int_Tables_number   1
_chemical_formula_structural   CdH18C20(NO)4
_chemical_formula_sum   'Cd2 H36 C40 N8 O8'
_cell_volume   937.05333118
_cell_formula_units_Z   2
loop_
 _symmetry_equiv_pos_site_id
 _symmetry_equiv_pos_as_xyz
  1  'x, y, z'
loop_
 _atom_site_type_symbol
 _atom_site_label
 _atom_site_symmetry_multiplicity
 _atom_site_fract_x
 _atom_site_fract_y
 _atom_site_fract_z
 _atom_site_occupancy
 _atom_site_hle17_bader_spin_density
 _atom_site_hle17_ddec_charge
 _atom_site_hle17_ddec_spin_density
 _atom_site_hle17_ddec_sum_bond_order
 _atom_site_hle17_magmom
 _atom_site_hse06_10hf_bader_spin_density
 _atom_site_hse06_10hf_ddec_charge
 _atom_site_hse06_10hf_ddec_spin_density
 _atom_site_hse06_10hf_ddec_sum_bond_order
 _atom_site_hse06_10hf_magmom
 _atom_site_hse06_bader_spin_density
 _atom_site_hse06_ddec_charge
 _atom_site_hse06_ddec_spin_density
 _atom_site_hse06_ddec_sum_bond_order
 _atom_site_hse06_magmom
 _atom_site_pbe_bader_spin_density
 _atom_site_pbe_cm5_charge
 _atom_site_pbe_ddec_charge
 _atom_site_pbe_ddec_spin_density
 _atom_site_pbe_ddec_sum_bond_order
 _atom_site_pbe_magmom
Cd  Cd0  1  0.79660219  0.20339400  0.74999986  1  0  1.098492  0  1.666105  0  0  0.908247  0  2.107134  0  0  0.965487  0  2.058278  0  0  0.781079  0.867856  0  2.140275  0
Cd  Cd1  1  0.20339371  0.79660629  0.24999946  1  0  1.098489  0  1.666138  0  0  0.908238  0  2.107178  0  0  0.965479  0  2.058319  0  0  0.781084  0.86784  0  2.140328  0
H  H2  1  0.81986791  0.70639740  0.38805128  1  0  0.118497  0  0.969091  0  0  0.128863  0  1.029479  0  0  0.132274  0  1.027373  0  0  0.106686  0.126346  0  1.031137  0
H  H3  1  0.29360583  0.18013955  0.11195101  1  0  0.118547  0  0.96909  0  0  0.128882  0  1.029495  0  0  0.132285  0  1.027399  0  0  0.106688  0.126363  0  1.031155  0
H  H4  1  0.18013540  0.29360656  0.61194953  1  0  0.118526  0  0.969122  0  0  0.128912  0  1.029476  0  0  0.132326  0  1.027368  0  0  0.106724  0.126397  0  1.031134  0
H  H5  1  0.70639864  0.81985951  0.88805049  1  0  0.118555  0  0.968995  0  0  0.128919  0  1.029373  0  0  0.132322  0  1.027283  0  0  0.106729  0.126403  0  1.031034  0
H  H6  1  0.64286369  0.50831358  0.29627373  1  0  0.085163  0  0.964673  0  0  0.098991  0  1.022831  0  0  0.101102  0  1.022629  0  0  0.098065  0.097467  0  1.023069  0
H  H7  1  0.49169125  0.35714444  0.20372647  1  0  0.085149  0  0.964666  0  0  0.098987  0  1.022823  0  0  0.101096  0  1.022625  0  0  0.098062  0.097464  0  1.023059  0
H  H8  1  0.35714205  0.49168914  0.70372638  1  0  0.085165  0  0.964651  0  0  0.099002  0  1.022805  0  0  0.101111  0  1.022608  0  0  0.098069  0.097479  0  1.023042  0
H  H9  1  0.50831565  0.64285337  0.79627290  1  0  0.085156  0  0.964664  0  0  0.098989  0  1.022816  0  0  0.101098  0  1.022618  0  0  0.098061  0.097467  0  1.023052  0
H  H10  1  0.52739927  0.25966859  0.37252924  1  0  0.095149  0  0.960737  0  0  0.104681  0  1.02529  0  0  0.107845  0  1.02346  0  0  0.09778  0.102338  0  1.026752  0
H  H11  1  0.74033686  0.47260490  0.12746903  1  0  0.095176  0  0.960707  0  0  0.10473  0  1.025247  0  0  0.107858  0  1.023458  0  0  0.097788  0.102422  0  1.026671  0
H  H12  1  0.47260769  0.74033414  0.62747017  1  0  0.095145  0  0.96071  0  0  0.104719  0  1.025226  0  0  0.107852  0  1.023433  0  0  0.097785  0.102372  0  1.02669  0
H  H13  1  0.25966634  0.52739291  0.87252748  1  0  0.095135  0  0.960672  0  0  0.104721  0  1.025179  0  0  0.107866  0  1.023373  0  0  0.097799  0.10238  0  1.026641  0
H  H14  1  0.59110666  0.19894956  0.54170504  1  0  0.103737  0  0.945111  0  0  0.117198  0  0.999687  0  0  0.120041  0  0.998327  0  0  0.104537  0.115098  0  1.000792  0
H  H15  1  0.80105128  0.40889420  0.95829299  1  0  0.103705  0  0.945111  0  0  0.117158  0  0.9997  0  0  0.120001  0  0.998341  0  0  0.104525  0.11506  0  1.000807  0
H  H16  1  0.40889536  0.80105072  0.45829361  1  0  0.103715  0  0.945136  0  0  0.117169  0  0.999718  0  0  0.120012  0  0.998357  0  0  0.10453  0.11507  0  1.000822  0
H  H17  1  0.19894828  0.59110606  0.04170280  1  0  0.103741  0  0.94509  0  0  0.117202  0  0.999668  0  0  0.120044  0  0.99831  0  0  0.104543  0.115107  0  1.000771  0
H  H18  1  0.97203815  0.83515054  0.50158814  1  0  0.128206  0  0.94966  0  0  0.139804  0  1.01075  0  0  0.14309  0  1.008629  0  0  0.122859  0.137429  0  1.012384  0
H  H19  1  0.16484801  0.02795981  0.99841156  1  0  0.128218  0  0.949655  0  0  0.139794  0  1.010773  0  0  0.143079  0  1.008654  0  0  0.122865  0.137417  0  1.012409  0
H  H20  1  0.02796142  0.16484975  0.49841191  1  0  0.128188  0  0.94966  0  0  0.139738  0  1.010795  0  0  0.143023  0  1.008674  0  0  0.122841  0.137359  0  1.012432  0
H  H21  1  0.83514911  0.97204049  0.00158847  1  0  0.128217  0  0.949651  0  0  0.139755  0  1.010775  0  0  0.143039  0  1.008654  0  0  0.122851  0.137378  0  1.012417  0
H  H22  1  0.09394319  0.79563427  0.60270049  1  0  0.100442  0  0.944965  0  0  0.112672  0  1.008624  0  0  0.113659  0  1.009633  0  0  0.113801  0.111916  0  1.008053  0
H  H23  1  0.20436603  0.90605908  0.89729859  1  0  0.100361  0  0.945003  0  0  0.112616  0  1.008607  0  0  0.113602  0  1.009616  0  0  0.11375  0.111861  0  1.008033  0
H  H24  1  0.90605635  0.20436356  0.39729884  1  0  0.100457  0  0.944962  0  0  0.112669  0  1.008612  0  0  0.113655  0  1.009622  0  0  0.113802  0.111913  0  1.008039  0
H  H25  1  0.79562747  0.09394611  0.10269933  1  0  0.100467  0  0.94492  0  0  0.112641  0  1.0086  0  0  0.113622  0  1.009612  0  0  0.11382  0.111887  0  1.008025  0
H  H26  1  0.95165214  0.52155239  0.81182295  1  0  0.139203  0  0.957585  0  0  0.16014  0  1.015888  0  0  0.162695  0  1.013983  0  0  0.101911  0.158312  0  1.017228  0
H  H27  1  0.47844826  0.04834446  0.68817938  1  0  0.139218  0  0.957602  0  0  0.160154  0  1.015909  0  0  0.16271  0  1.014001  0  0  0.101916  0.158323  0  1.017249  0
H  H28  1  0.04834744  0.47844912  0.18817570  1  0  0.139171  0  0.957578  0  0  0.160145  0  1.015845  0  0  0.1627  0  1.013938  0  0  0.101921  0.158316  0  1.017191  0
H  H29  1  0.52155006  0.95165216  0.31182207  1  0  0.139211  0  0.957587  0  0  0.160155  0  1.015886  0  0  0.162712  0  1.013978  0  0  0.101924  0.158326  0  1.017232  0
H  H30  1  0.88913889  0.72820351  0.78935668  1  0  0.149067  0  0.946908  0  0  0.166042  0  1.008803  0  0  0.169244  0  1.006878  0  0  0.103616  0.163747  0  1.010224  0
H  H31  1  0.27179664  0.11085615  0.71064448  1  0  0.148938  0  0.946996  0  0  0.165925  0  1.008896  0  0  0.169126  0  1.006974  0  0  0.103567  0.163628  0  1.010315  0
H  H32  1  0.11086071  0.27179801  0.21064481  1  0  0.148923  0  0.946966  0  0  0.16591  0  1.008877  0  0  0.169112  0  1.006954  0  0  0.103561  0.163612  0  1.010299  0
H  H33  1  0.72820040  0.88913801  0.28935410  1  0  0.148928  0  0.946973  0  0  0.165923  0  1.008878  0  0  0.169125  0  1.006956  0  0  0.103564  0.163625  0  1.010302  0
H  H34  1  0.07948678  0.65688591  0.74808270  1  0  0.128443  0  0.945543  0  0  0.147084  0  1.009837  0  0  0.149071  0  1.009706  0  0  0.100358  0.145695  0  1.009925  0
H  H35  1  0.34311236  0.92051010  0.75191937  1  0  0.128459  0  0.945506  0  0  0.147101  0  1.009796  0  0  0.149087  0  1.009665  0  0  0.100369  0.145712  0  1.009882  0
H  H36  1  0.92051280  0.34311437  0.25191664  1  0  0.128484  0  0.94551  0  0  0.147126  0  1.009805  0  0  0.149114  0  1.009673  0  0  0.100377  0.145737  0  1.009893  0
H  H37  1  0.65688472  0.07948652  0.24808065  1  0  0.128477  0  0.945504  0  0  0.147125  0  1.009788  0  0  0.149111  0  1.009657  0  0  0.100386  0.145735  0  1.009873  0
C  C38  1  0.76853745  0.59795837  0.42133619  1  0  -0.147237  0  3.742022  0  0  -0.167946  0  3.997767  0  0  -0.170975  0  4.017683  0  0  -0.096537  -0.165813  0  3.984316  0
C  C39  1  0.40204492  0.23146968  0.07866690  1  0  -0.147387  0  3.742023  0  0  -0.168023  0  3.997812  0  0  -0.171049  0  4.017726  0  0  -0.096553  -0.165893  0  3.984363  0
C  C40  1  0.23146705  0.40204314  0.57866462  1  0  -0.14734  0  3.742052  0  0  -0.16803  0  3.997824  0  0  -0.171062  0  4.017745  0  0  -0.096585  -0.165905  0  3.984389  0
C  C41  1  0.59795957  0.76853061  0.92133532  1  0  -0.14728  0  3.741777  0  0  -0.167929  0  3.997596  0  0  -0.170956  0  4.017506  0  0  -0.096574  -0.165803  0  3.984165  0
C  C42  1  0.67126251  0.48459592  0.37068286  1  0  -0.078229  0  3.791143  0  0  -0.095692  0  4.052384  0  0  -0.097931  0  4.075492  0  0  -0.101668  -0.09413  0  4.036674  0
C  C43  1  0.51540760  0.32874141  0.12931668  1  0  -0.078153  0  3.791082  0  0  -0.095624  0  4.052325  0  0  -0.097858  0  4.075417  0  0  -0.101656  -0.094057  0  4.036619  0
C  C44  1  0.32874074  0.51540436  0.62931650  1  0  -0.078175  0  3.791102  0  0  -0.095646  0  4.052351  0  0  -0.097881  0  4.075449  0  0  -0.101655  -0.094086  0  4.036644  0
C  C45  1  0.48459682  0.67125396  0.87068266  1  0  -0.078267  0  3.791118  0  0  -0.095733  0  4.052355  0  0  -0.097967  0  4.075455  0  0  -0.101658  -0.094164  0  4.03664  0
C  C46  1  0.60686407  0.34320672  0.41369645  1  0  -0.088266  0  3.788616  0  0  -0.107455  0  4.049826  0  0  -0.109637  0  4.071768  0  0  -0.102396  -0.105904  0  4.034997  0
C  C47  1  0.65679868  0.39314012  0.08630395  1  0  -0.088245  0  3.78848  0  0  -0.107473  0  4.049731  0  0  -0.109629  0  4.071682  0  0  -0.102363  -0.105949  0  4.034889  0
C  C48  1  0.39313921  0.65679602  0.58630365  1  0  -0.088209  0  3.788512  0  0  -0.107443  0  4.04973  0  0  -0.109599  0  4.071674  0  0  -0.102378  -0.105886  0  4.034902  0
C  C49  1  0.34320459  0.60686139  0.91369543  1  0  -0.088206  0  3.78848  0  0  -0.107447  0  4.049706  0  0  -0.109614  0  4.071647  0  0  -0.102407  -0.105898  0  4.034882  0
C  C50  1  0.63968244  0.30911935  0.50886163  1  0  -0.138142  0  3.745809  0  0  -0.154089  0  3.994222  0  0  -0.156627  0  4.014288  0  0  -0.090828  -0.152282  0  3.980677  0
C  C51  1  0.69088310  0.36031559  0.99113771  1  0  -0.138084  0  3.74585  0  0  -0.154049  0  3.994257  0  0  -0.156585  0  4.014309  0  0  -0.090817  -0.152249  0  3.980732  0
C  C52  1  0.36031837  0.69088216  0.49113702  1  0  -0.138142  0  3.745886  0  0  -0.154097  0  3.99429  0  0  -0.156634  0  4.014344  0  0  -0.090829  -0.152294  0  3.980746  0
C  C53  1  0.30911642  0.63968101  0.00885948  1  0  -0.138148  0  3.745751  0  0  -0.1541  0  3.994172  0  0  -0.156636  0  4.014232  0  0  -0.090832  -0.152303  0  3.980634  0
C  C54  1  0.73614823  0.42221318  0.56089958  1  0  0.153751  0  3.845087  0  0  0.147861  0  4.097472  0  0  0.152197  0  4.120934  0  0  0.082861  0.144856  0  4.08162  0
C  C55  1  0.57779086  0.26384911  0.93910258  1  0  0.153569  0  3.845206  0  0  0.147789  0  4.097501  0  0  0.152123  0  4.120964  0  0  0.082811  0.144789  0  4.08165  0
C  C56  1  0.26385138  0.57778956  0.43910191  1  0  0.153667  0  3.84519  0  0  0.147852  0  4.09753  0  0  0.152187  0  4.120991  0  0  0.082831  0.144848  0  4.081683  0
C  C57  1  0.42220746  0.73614873  0.06089674  1  0  0.15361  0  3.845146  0  0  0.147772  0  4.097556  0  0  0.152107  0  4.121018  0  0  0.082794  0.144774  0  4.081702  0
C  C58  1  0.79683347  0.56502482  0.51706161  1  0  0.112089  0  3.778915  0  0  0.09836  0  4.031045  0  0  0.102618  0  4.052607  0  0  0.094096  0.095461  0  4.016554  0
C  C59  1  0.43497679  0.20316599  0.98294041  1  0  0.112245  0  3.778767  0  0  0.098421  0  4.031036  0  0  0.102681  0  4.052599  0  0  0.094087  0.095522  0  4.016546  0
C  C60  1  0.20316736  0.43497669  0.48293988  1  0  0.112169  0  3.778831  0  0  0.098319  0  4.03111  0  0  0.102578  0  4.052675  0  0  0.094059  0.095418  0  4.016623  0
C  C61  1  0.56502152  0.79683062  0.01705961  1  0  0.112214  0  3.778676  0  0  0.098284  0  4.031042  0  0  0.102543  0  4.052604  0  0  0.094072  0.095382  0  4.016559  0
C  C62  1  0.87308006  0.56394145  0.66978362  1  0  0.424811  0  3.68128  0  0  0.39617  0  3.956011  0  0  0.416582  0  3.967516  0  0  0.23802  0.382696  0  3.947665  0
C  C63  1  0.43605928  0.12691748  0.83021780  1  0  0.424736  0  3.681448  0  0  0.39619  0  3.956092  0  0  0.416604  0  3.967595  0  0  0.238028  0.382719  0  3.947747  0
C  C64  1  0.12691707  0.43606007  0.33021572  1  0  0.424846  0  3.68134  0  0  0.396281  0  3.955981  0  0  0.416696  0  3.967483  0  0  0.238068  0.382817  0  3.947623  0
C  C65  1  0.56393660  0.87308158  0.16978151  1  0  0.424951  0  3.681301  0  0  0.396263  0  3.956069  0  0  0.416676  0  3.967573  0  0  0.238095  0.382801  0  3.947706  0
C  C66  1  0.96654940  0.80652701  0.57763278  1  0  -0.150132  0  3.635404  0  0  -0.205169  0  3.874142  0  0  -0.206432  0  3.881214  0  0  -0.055004  -0.204291  0  3.869394  0
C  C67  1  0.19347350  0.03345364  0.92236772  1  0  -0.150113  0  3.635477  0  0  -0.205086  0  3.874194  0  0  -0.20635  0  3.881273  0  0  -0.054963  -0.204209  0  3.869443  0
C  C68  1  0.03345019  0.19347451  0.42236728  1  0  -0.150201  0  3.635511  0  0  -0.205118  0  3.87414  0  0  -0.20638  0  3.881214  0  0  -0.055004  -0.204241  0  3.869391  0
C  C69  1  0.80652245  0.96655033  0.07763234  1  0  -0.150239  0  3.635564  0  0  -0.205062  0  3.874054  0  0  -0.206317  0  3.881121  0  0  -0.055042  -0.204191  0  3.869319  0
C  C70  1  0.88854590  0.95039346  0.62993523  1  0  0.660157  0  3.899868  0  0  0.615733  0  4.19653  0  0  0.648633  0  4.19128  0  0  0.192069  0.59344  0  4.19919  0
C  C71  1  0.04960712  0.11145784  0.87006561  1  0  0.660158  0  3.899962  0  0  0.615661  0  4.196727  0  0  0.648561  0  4.191478  0  0  0.192031  0.593382  0  4.199372  0
C  C72  1  0.11145367  0.04960560  0.37006623  1  0  0.660188  0  3.899829  0  0  0.615697  0  4.196564  0  0  0.648596  0  4.191314  0  0  0.192066  0.593417  0  4.199211  0
C  C73  1  0.95039011  0.88855103  0.12993448  1  0  0.660072  0  3.899905  0  0  0.615594  0  4.196597  0  0  0.648494  0  4.191349  0  0  0.192028  0.593307  0  4.199251  0
C  C74  1  0.95149548  0.62034620  0.76004987  1  0  -0.401958  0  3.682827  0  0  -0.480667  0  3.916407  0  0  -0.485542  0  3.92027  0  0  -0.231715  -0.477112  0  3.913534  0
C  C75  1  0.37965475  0.04850300  0.73995301  1  0  -0.401878  0  3.683014  0  0  -0.48061  0  3.916558  0  0  -0.485489  0  3.920426  0  0  -0.231711  -0.477053  0  3.913682  0
C  C76  1  0.04850536  0.37965655  0.23995163  1  0  -0.401867  0  3.682904  0  0  -0.480639  0  3.916476  0  0  -0.485518  0  3.920342  0  0  -0.23173  -0.477091  0  3.913606  0
C  C77  1  0.62034235  0.95149485  0.26004772  1  0  -0.401904  0  3.682799  0  0  -0.480638  0  3.91641  0  0  -0.485519  0  3.920281  0  0  -0.231734  -0.477086  0  3.913537  0
N  N78  1  0.88204501  0.65129727  0.58789430  1  0  -0.140181  0  3.507058  0  0  -0.059271  0  3.727885  0  0  -0.076033  0  3.750938  0  0  -0.237945  -0.048174  0  3.712189  0
N  N79  1  0.34870116  0.11795455  0.91210770  1  0  -0.140122  0  3.507031  0  0  -0.059323  0  3.727987  0  0  -0.076085  0  3.751039  0  0  -0.237907  -0.048229  0  3.712294  0
N  N80  1  0.11795456  0.34870180  0.41210716  1  0  -0.140117  0  3.507096  0  0  -0.059219  0  3.7279  0  0  -0.075983  0  3.750953  0  0  -0.237872  -0.048122  0  3.712198  0
N  N81  1  0.65129474  0.88204574  0.08789162  1  0  -0.140219  0  3.507156  0  0  -0.059232  0  3.72794  0  0  -0.075995  0  3.750991  0  0  -0.237901  -0.048139  0  3.712245  0
N  N82  1  0.78677822  0.42522188  0.65585033  1  0  -0.510853  0  3.156834  0  0  -0.443513  0  3.439564  0  0  -0.468577  0  3.452808  0  0  -0.361968  -0.426374  0  3.430028  0
N  N83  1  0.57477900  0.21321916  0.84415046  1  0  -0.510752  0  3.15681  0  0  -0.443452  0  3.439476  0  0  -0.468516  0  3.452719  0  0  -0.361953  -0.426321  0  3.429948  0
N  N84  1  0.21322384  0.57478085  0.34415046  1  0  -0.510855  0  3.156784  0  0  -0.443561  0  3.439485  0  0  -0.468625  0  3.452726  0  0  -0.361992  -0.426426  0  3.429953  0
N  N85  1  0.42521683  0.78677623  0.15584740  1  0  -0.510845  0  3.156998  0  0  -0.443489  0  3.439724  0  0  -0.468553  0  3.452969  0  0  -0.36196  -0.426352  0  3.430183  0
O  O86  1  0.97989194  0.07758533  0.63921963  1  0  -0.652715  0  1.975292  0  0  -0.591054  0  2.213236  0  0  -0.619867  0  2.205215  0  0  -0.335202  -0.570845  0  2.217922  0
O  O87  1  0.92241239  0.02011091  0.86078137  1  0  -0.652754  0  1.975317  0  0  -0.591041  0  2.21324  0  0  -0.619851  0  2.205216  0  0  -0.335186  -0.570839  0  2.217929  0
O  O88  1  0.02010883  0.92241130  0.36078396  1  0  -0.652749  0  1.975297  0  0  -0.591055  0  2.213235  0  0  -0.619872  0  2.205223  0  0  -0.335222  -0.570854  0  2.217924  0
O  O89  1  0.07757991  0.97989553  0.13922010  1  0  -0.652644  0  1.9754  0  0  -0.590973  0  2.21334  0  0  -0.619772  0  2.20529  0  0  -0.335173  -0.570767  0  2.218028  0
O  O90  1  0.74431319  0.93946523  0.66158098  1  0  -0.640255  0  1.912235  0  0  -0.582882  0  2.140288  0  0  -0.610184  0  2.132059  0  0  -0.333932  -0.563812  0  2.145219  0
O  O91  1  0.06053386  0.25568850  0.83841963  1  0  -0.640224  0  1.912367  0  0  -0.582829  0  2.140451  0  0  -0.610131  0  2.132222  0  0  -0.333909  -0.563766  0  2.145382  0
O  O92  1  0.25568756  0.06053016  0.33842048  1  0  -0.640248  0  1.912215  0  0  -0.58286  0  2.140298  0  0  -0.610163  0  2.132072  0  0  -0.333932  -0.563797  0  2.145232  0
O  O93  1  0.93946455  0.74431547  0.16158186  1  0  -0.640217  0  1.912109  0  0  -0.582851  0  2.140195  0  0  -0.610156  0  2.131967  0  0  -0.333921  -0.563781  0  2.145128  0
