# generated using pymatgen
data_MnH12C6(N5O3)2
_symmetry_space_group_name_H-M   'P 1'
_cell_length_a   6.42183705
_cell_length_b   9.88662799
_cell_length_c   11.80699445
_cell_angle_alpha   70.80453641
_cell_angle_beta   74.18977499
_cell_angle_gamma   71.05398513
_symmetry_Int_Tables_number   1
_chemical_formula_structural   MnH12C6(N5O3)2
_chemical_formula_sum   'Mn2 H24 C12 N20 O12'
_cell_volume   657.97673171
_cell_formula_units_Z   2
loop_
 _symmetry_equiv_pos_site_id
 _symmetry_equiv_pos_as_xyz
  1  'x, y, z'
loop_
 _atom_site_type_symbol
 _atom_site_label
 _atom_site_symmetry_multiplicity
 _atom_site_fract_x
 _atom_site_fract_y
 _atom_site_fract_z
 _atom_site_occupancy
 _atom_site_hle17_ddec_charge
 _atom_site_hle17_ddec_spin_density
 _atom_site_hle17_ddec_sum_bond_order
 _atom_site_hle17_magmom
 _atom_site_hse06_10hf_ddec_charge
 _atom_site_hse06_10hf_ddec_spin_density
 _atom_site_hse06_10hf_ddec_sum_bond_order
 _atom_site_hse06_10hf_magmom
 _atom_site_hse06_ddec_charge
 _atom_site_hse06_ddec_spin_density
 _atom_site_hse06_ddec_sum_bond_order
 _atom_site_hse06_magmom
 _atom_site_pbe_cm5_charge
 _atom_site_pbe_ddec_charge
 _atom_site_pbe_ddec_spin_density
 _atom_site_pbe_ddec_sum_bond_order
 _atom_site_pbe_magmom
Mn  Mn0  1  0.99999621  0.00000157  0.99999744  1  1.22004  4.798183  1.786808  4.694  1.053145  4.723255  2.30227  4.555  1.108833  4.761263  2.229889  4.61  0.603631  1.009741  4.685707  2.355008  4.502
Mn  Mn1  1  0.99999598  0.50000126  0.50000252  1  1.220012  4.798159  1.787045  4.694  1.052947  4.723288  2.302356  4.555  1.108547  4.761261  2.230194  4.61  0.603717  1.009272  4.685605  2.355193  4.502
H  H2  1  0.69018499  0.91709464  0.21748847  1  0.409821  0.000153  0.879453  0.001  0.374837  0.000805  0.96032  0.002  0.384649  0.000474  0.946008  0.001  0.294711  0.367735  0.001138  0.970663  0.002
H  H3  1  0.82463107  0.58297037  0.28249745  1  0.410261  0.000164  0.878346  0.001  0.375286  0.000821  0.959385  0.002  0.385093  0.000486  0.94511  0.001  0.294799  0.368167  0.001147  0.969743  0.002
H  H4  1  0.30980315  0.08290570  0.78250538  1  0.409803  0.000153  0.879331  0.001  0.374822  0.000805  0.960306  0.002  0.384632  0.000474  0.945996  0.001  0.294713  0.367722  0.001138  0.970646  0.002
H  H5  1  0.17537126  0.41702773  0.71750619  1  0.410255  0.000163  0.878267  0.001  0.375255  0.000822  0.959401  0.002  0.385063  0.000486  0.945125  0.001  0.294798  0.368137  0.001148  0.969759  0.002
H  H6  1  0.59502470  0.89590455  0.11407323  1  0.40355  0.000234  0.901334  0.001  0.360529  0.000866  0.986797  0.002  0.370817  0.000548  0.971855  0.002  0.295454  0.35313  0.001175  0.997503  0.002
H  H7  1  0.60485177  0.60407412  0.38600765  1  0.404824  0.000233  0.899781  0.001  0.361795  0.00086  0.985129  0.002  0.372133  0.000545  0.970105  0.002  0.295653  0.354405  0.001175  0.995841  0.002
H  H8  1  0.40496658  0.10409913  0.88591869  1  0.403606  0.000233  0.901275  0.001  0.360567  0.000866  0.986752  0.002  0.370855  0.000548  0.971811  0.002  0.295451  0.35317  0.001175  0.997457  0.002
H  H9  1  0.39514845  0.39592398  0.61399164  1  0.404832  0.000233  0.899741  0.001  0.361806  0.00086  0.985107  0.002  0.372144  0.000545  0.970083  0.002  0.295635  0.354416  0.001175  0.995819  0.002
H  H10  1  0.34756851  0.14953094  0.55175566  1  0.34041  1.5e-05  0.907085  0.0  0.315106  0.000129  0.98515  0.0  0.3238  7.3e-05  0.976786  0.0  0.302888  0.308845  0.000185  0.991204  0.0
H  H11  1  0.04874237  0.35035734  0.94858646  1  0.340644  -7e-06  0.905964  0.0  0.314955  0.000101  0.985046  0.0  0.323681  5e-05  0.976669  0.0  0.302849  0.308773  0.000192  0.991061  0.0
H  H12  1  0.65243107  0.85046829  0.44824037  1  0.34037  1.4e-05  0.907121  0.0  0.315041  0.000129  0.985221  0.0  0.323736  7.4e-05  0.976856  0.0  0.302855  0.308779  0.000185  0.991276  0.0
H  H13  1  0.95125957  0.64963855  0.05141246  1  0.340629  -6e-06  0.905975  0.0  0.314929  0.000102  0.985066  0.0  0.323654  5e-05  0.976692  0.0  0.302827  0.308747  0.000191  0.991082  0.0
H  H14  1  0.32084485  0.97392712  0.62778630  1  0.346376  1.6e-05  0.921688  0.0  0.324727  6.3e-05  0.989953  0.0  0.333227  3.8e-05  0.982492  0.0  0.299153  0.318787  8.6e-05  0.995058  0.0
H  H15  1  0.92276534  0.52588340  0.87243509  1  0.346321  -2.9e-05  0.92181  0.0  0.324785  6e-06  0.989902  0.0  0.333242  -1.2e-05  0.982498  0.0  0.299175  0.318815  8.3e-05  0.995147  0.0
H  H16  1  0.67915234  0.02607653  0.37221264  1  0.34635  1.5e-05  0.921686  0.0  0.324723  6.3e-05  0.989927  0.0  0.333221  3.8e-05  0.982466  0.0  0.29912  0.318783  8.6e-05  0.995029  0.0
H  H17  1  0.07725074  0.47411804  0.12756251  1  0.346306  -3e-05  0.921818  0.0  0.324837  6e-06  0.989809  0.0  0.333293  -1.1e-05  0.982406  0.0  0.299203  0.318866  8.3e-05  0.995058  0.0
H  H18  1  0.08418648  0.83409717  0.63642586  1  0.125663  -4e-06  0.922851  0.0  0.134182  0.000235  0.988319  0.0  0.136676  0.000133  0.987195  0.0  0.124864  0.132343  0.000335  0.989255  0.0
H  H19  1  0.55616848  0.66570705  0.86362588  1  0.125627  -3.1e-05  0.924301  0.0  0.134608  0.000176  0.989222  0.0  0.137078  9e-05  0.988177  0.0  0.125154  0.132881  0.000281  0.989967  0.0
H  H20  1  0.91581985  0.16590539  0.36356788  1  0.12567  1e-06  0.922823  0.0  0.134141  0.000235  0.988361  0.0  0.136632  0.000134  0.987242  0.0  0.124855  0.132304  0.000335  0.989297  0.0
H  H21  1  0.44384014  0.33429657  0.13638104  1  0.125624  -3.1e-05  0.924343  0.0  0.134587  0.000176  0.989268  0.0  0.137058  9e-05  0.988227  0.0  0.12514  0.13286  0.000281  0.990007  0.0
H  H22  1  0.78855280  0.85904104  0.66238713  1  0.125799  0.000105  0.939235  0.0  0.135242  0.000345  1.003221  0.0  0.137942  0.000237  1.001549  0.0  0.124855  0.133321  0.000447  1.004428  0.0
H  H23  1  0.31065675  0.64122273  0.83816298  1  0.126824  0.000101  0.938426  0.0  0.136324  0.000337  1.00224  0.0  0.139083  0.00023  1.000484  0.0  0.125192  0.134301  0.000446  1.003653  0.0
H  H24  1  0.21145018  0.14095820  0.33760551  1  0.125795  0.00011  0.939245  0.0  0.135238  0.000344  1.003225  0.0  0.137939  0.000238  1.001551  0.0  0.124868  0.133318  0.000447  1.004431  0.0
H  H25  1  0.68933881  0.35878197  0.16185145  1  0.126809  0.000102  0.938341  0.0  0.136268  0.000337  1.002211  0.0  0.139054  0.00023  1.000427  0.0  0.125167  0.134244  0.000446  1.003622  0.0
C  C26  1  0.92179771  0.83793162  0.82101887  1  0.705425  0.005161  3.876588  0.006  0.655173  0.008851  4.180729  0.009  0.688833  0.006804  4.172673  0.008  0.220894  0.631857  0.010999  4.185472  0.011
C  C27  1  0.58097737  0.66199806  0.67916807  1  0.70569  0.00524  3.875257  0.006  0.65541  0.008925  4.179723  0.009  0.689124  0.006874  4.171719  0.008  0.221814  0.632049  0.010997  4.18456  0.011
C  C28  1  0.07820575  0.16206207  0.17897665  1  0.705309  0.005173  3.876777  0.006  0.655124  0.008848  4.180832  0.009  0.688785  0.006803  4.172781  0.008  0.220933  0.631809  0.010997  4.185573  0.011
C  C29  1  0.41903229  0.33798671  0.32084279  1  0.705778  0.005244  3.875437  0.006  0.65564  0.008931  4.179649  0.009  0.689354  0.006877  4.171647  0.008  0.222025  0.632278  0.011002  4.184487  0.011
C  C30  1  0.92102598  0.88942190  0.68308431  1  -0.171147  0.001916  3.605793  0.002  -0.232845  0.002249  3.85879  0.002  -0.232976  0.001675  3.862753  0.002  -0.050721  -0.232742  0.002856  3.856441  0.002
C  C31  1  0.49424075  0.61058886  0.81718124  1  -0.173729  0.001953  3.606158  0.002  -0.235737  0.002288  3.859197  0.002  -0.235967  0.001712  3.863263  0.002  -0.051893  -0.235581  0.002848  3.856863  0.002
C  C32  1  0.07897762  0.11057844  0.31691026  1  -0.171106  0.001898  3.605791  0.002  -0.232787  0.00225  3.858839  0.002  -0.232904  0.001677  3.862773  0.002  -0.050739  -0.232693  0.002855  3.856499  0.002
C  C33  1  0.50575906  0.38941586  0.18282895  1  -0.173637  0.001954  3.605968  0.002  -0.235601  0.002287  3.858916  0.002  -0.235856  0.001716  3.862981  0.002  -0.051886  -0.235436  0.002849  3.856567  0.002
C  C34  1  0.02831089  0.13505321  0.60903470  1  0.532706  0.001662  3.800512  0.003  0.472569  0.003238  4.091587  0.004  0.496138  0.002486  4.100877  0.003  0.355043  0.456533  0.003957  4.085099  0.005
C  C35  1  0.77244751  0.36481145  0.89119976  1  0.532832  0.001528  3.79677  0.002  0.471696  0.003077  4.089341  0.004  0.49515  0.00234  4.098729  0.003  0.35481  0.45586  0.003831  4.082601  0.005
C  C36  1  0.97168748  0.86495045  0.39096146  1  0.53278  0.001651  3.800376  0.003  0.472624  0.003241  4.091483  0.004  0.496192  0.002482  4.100771  0.003  0.355055  0.456587  0.003957  4.084995  0.005
C  C37  1  0.22755572  0.63519219  0.10880124  1  0.532889  0.001537  3.796643  0.003  0.471685  0.003077  4.089293  0.004  0.495141  0.002339  4.098672  0.003  0.3548  0.455848  0.00383  4.082556  0.005
N  N38  1  0.88503022  0.04858816  0.63625840  1  -0.056059  -0.000313  3.513007  0.0  0.023605  0.000333  3.751765  0.0  0.008972  -4.6e-05  3.77378  0.0  -0.134283  0.033087  0.000702  3.73729  0.0
N  N39  1  0.57012392  0.45138334  0.86387082  1  -0.055476  -0.00025  3.509469  0.0  0.024018  0.000383  3.749148  0.0  0.009487  -5e-06  3.771174  0.0  -0.134935  0.033566  0.000784  3.734553  0.001
N  N40  1  0.11497590  0.95141328  0.36373944  1  -0.05615  -0.000302  3.513112  0.0  0.02354  0.00033  3.751837  0.0  0.008906  -4.5e-05  3.773853  0.0  -0.134286  0.033027  0.000702  3.737364  0.0
N  N41  1  0.42987217  0.54862249  0.13613756  1  -0.055456  -0.000254  3.509163  0.0  0.024093  0.000382  3.748804  0.0  0.009561  0.0  3.770837  0.0  -0.134877  0.033639  0.000784  3.734207  0.001
N  N42  1  0.67503168  0.13812470  0.62897467  1  -0.100517  0.001902  2.911242  0.002  -0.102878  0.003444  3.201268  0.003  -0.10054  0.002645  3.209588  0.003  -0.075467  -0.104522  0.004431  3.196174  0.004
N  N43  1  0.44227683  0.36196117  0.87098228  1  -0.09941  0.002043  2.90696  0.002  -0.10149  0.003554  3.196571  0.004  -0.099135  0.002763  3.204858  0.003  -0.074607  -0.103202  0.004436  3.191596  0.004
N  N44  1  0.32497384  0.86187342  0.37102255  1  -0.100618  0.001908  2.911527  0.002  -0.10298  0.003442  3.201537  0.003  -0.100637  0.002653  3.209849  0.003  -0.075513  -0.104624  0.004431  3.196446  0.004
N  N45  1  0.55772255  0.63804579  0.12902054  1  -0.099411  0.002015  2.906888  0.002  -0.101499  0.003553  3.1965  0.004  -0.099144  0.002758  3.204787  0.003  -0.074654  -0.103213  0.004435  3.191528  0.004
N  N46  1  0.69215100  0.27287123  0.59366114  1  -0.038592  -0.000312  3.051446  0.001  -0.02295  0.001159  3.349324  0.002  -0.0195  0.000394  3.357583  0.002  -0.061594  -0.025105  0.001971  3.343801  0.003
N  N47  1  0.55857916  0.22716255  0.90630018  1  -0.037603  -0.000491  3.050246  0.001  -0.02187  0.001007  3.347944  0.002  -0.018484  0.000239  3.356265  0.002  -0.061076  -0.024195  0.001915  3.342504  0.003
N  N48  1  0.30785198  0.72712687  0.40633863  1  -0.038476  -0.000322  3.051481  0.001  -0.022831  0.001161  3.349352  0.002  -0.019379  0.000389  3.357608  0.002  -0.06154  -0.024985  0.00197  3.343827  0.003
N  N49  1  0.44141792  0.77284222  0.09369659  1  -0.037598  -0.000463  3.050334  0.001  -0.021868  0.001006  3.34801  0.002  -0.018481  0.000239  3.356332  0.002  -0.061032  -0.024192  0.001915  3.342571  0.003
N  N50  1  0.90758756  0.27710675  0.57937177  1  -0.395935  0.024744  3.022777  0.013  -0.350379  0.030797  3.331037  0.015  -0.370803  0.028027  3.338899  0.013  -0.220289  -0.336008  0.033471  3.325648  0.017
N  N51  1  0.76390939  0.22278973  0.92073499  1  -0.397854  0.024771  3.022681  0.013  -0.351941  0.030728  3.331391  0.015  -0.372337  0.027985  3.339253  0.013  -0.221093  -0.337571  0.033425  3.325739  0.017
N  N52  1  0.09241200  0.72289356  0.42063006  1  -0.395977  0.024751  3.022653  0.013  -0.350419  0.030798  3.330924  0.015  -0.370845  0.028027  3.338784  0.013  -0.220295  -0.336052  0.033473  3.325548  0.017
N  N53  1  0.23608815  0.77721170  0.07926334  1  -0.397918  0.024771  3.022819  0.013  -0.351971  0.03073  3.331531  0.015  -0.372362  0.027988  3.339377  0.013  -0.221123  -0.337601  0.033426  3.32588  0.017
N  N54  1  0.24762163  0.08620318  0.61533580  1  -0.700098  -0.000106  3.106547  0.0  -0.660183  0.000503  3.352261  0.001  -0.680484  0.000222  3.343744  0.001  -0.571794  -0.646035  0.000932  3.358134  0.001
N  N55  1  0.94927404  0.41359790  0.88492851  1  -0.700528  6.7e-05  3.105987  0.0  -0.6603  0.000766  3.351857  0.001  -0.680595  0.000427  3.343442  0.001  -0.571916  -0.646385  0.000988  3.35768  0.001
N  N56  1  0.75238091  0.91379604  0.38466373  1  -0.700037  -0.000102  3.106583  0.0  -0.660092  0.000502  3.352274  0.001  -0.680393  0.000221  3.343755  0.001  -0.571715  -0.645942  0.000932  3.358145  0.001
N  N57  1  0.05072660  0.58640132  0.11506969  1  -0.700523  6.4e-05  3.105643  0.0  -0.660348  0.000766  3.351556  0.001  -0.680642  0.000424  3.343142  0.001  -0.571937  -0.646433  0.000987  3.357381  0.001
O  O58  1  0.91013032  0.70703662  0.87653020  1  -0.647272  0.002841  1.981575  0.004  -0.59218  0.00507  2.208532  0.006  -0.617845  0.003919  2.200454  0.005  -0.317822  -0.573821  0.006156  2.213517  0.007
O  O59  1  0.49385740  0.79281846  0.62363436  1  -0.646346  0.002687  1.980799  0.003  -0.591641  0.004866  2.207976  0.006  -0.617411  0.003751  2.199964  0.005  -0.318223  -0.5733  0.006134  2.212841  0.007
O  O60  1  0.08988363  0.29295820  0.12345903  1  -0.647173  0.002837  1.981442  0.004  -0.592165  0.00507  2.208425  0.006  -0.617834  0.003917  2.200354  0.005  -0.317879  -0.573816  0.006156  2.213434  0.007
O  O61  1  0.50612889  0.20718295  0.37637196  1  -0.646386  0.002687  1.981361  0.003  -0.591713  0.004866  2.208462  0.006  -0.617477  0.00375  2.200444  0.005  -0.318307  -0.57338  0.006134  2.213333  0.007
O  O62  1  0.94181544  0.93179321  0.86586304  1  -0.659866  0.034728  2.101931  0.021  -0.589632  0.041447  2.377934  0.023  -0.620936  0.03707  2.364491  0.019  -0.317995  -0.566332  0.045618  2.38624  0.027
O  O63  1  0.73957227  0.56809509  0.63424850  1  -0.660238  0.034835  2.101712  0.021  -0.589448  0.041625  2.377098  0.023  -0.620859  0.037191  2.363764  0.02  -0.318339  -0.566176  0.045804  2.385607  0.027
O  O64  1  0.05817622  0.06820268  0.13413806  1  -0.659777  0.03472  2.102064  0.021  -0.589613  0.041448  2.378086  0.023  -0.620916  0.037068  2.364644  0.019  -0.317976  -0.566311  0.045616  2.386392  0.027
O  O65  1  0.26040831  0.43190520  0.36576096  1  -0.660347  0.034845  2.101433  0.021  -0.589665  0.041636  2.376877  0.023  -0.621084  0.037196  2.363541  0.02  -0.318417  -0.566387  0.045817  2.385388  0.027
O  O66  1  0.69998216  0.94016128  0.12890852  1  -0.830266  0.028163  1.937793  0.017  -0.771468  0.038869  2.16189  0.024  -0.792242  0.034714  2.125922  0.021  -0.569312  -0.755729  0.042728  2.187284  0.027
O  O67  1  0.76898807  0.56010592  0.37109986  1  -0.831909  0.028101  1.934761  0.017  -0.772964  0.038794  2.159673  0.024  -0.793727  0.03465  2.12358  0.021  -0.569638  -0.757264  0.042662  2.185264  0.027
O  O68  1  0.30000604  0.05984239  0.87108486  1  -0.830278  0.028165  1.937507  0.017  -0.771452  0.038871  2.161707  0.024  -0.792219  0.034716  2.125738  0.021  -0.569313  -0.755721  0.04273  2.187104  0.027
O  O69  1  0.23101148  0.43989440  0.62890198  1  -0.831919  0.028103  1.934654  0.017  -0.77295  0.038795  2.159692  0.024  -0.793713  0.034649  2.123603  0.021  -0.569614  -0.75725  0.042662  2.185279  0.027
