# generated using pymatgen
data_Mn2H5CSN5O6
_symmetry_space_group_name_H-M   'P 1'
_cell_length_a   6.85929428
_cell_length_b   9.02907964
_cell_length_c   16.13495192
_cell_angle_alpha   90.00052046
_cell_angle_beta   90.00230525
_cell_angle_gamma   90.00140743
_symmetry_Int_Tables_number   1
_chemical_formula_structural   Mn2H5CSN5O6
_chemical_formula_sum   'Mn8 H20 C4 S4 N20 O24'
_cell_volume   999.28781971
_cell_formula_units_Z   4
loop_
 _symmetry_equiv_pos_site_id
 _symmetry_equiv_pos_as_xyz
  1  'x, y, z'
loop_
 _atom_site_type_symbol
 _atom_site_label
 _atom_site_symmetry_multiplicity
 _atom_site_fract_x
 _atom_site_fract_y
 _atom_site_fract_z
 _atom_site_occupancy
 _atom_site_pbe_bader_charge
 _atom_site_pbe_bader_spin_density
 _atom_site_pbe_cm5_charge
 _atom_site_pbe_ddec_charge
 _atom_site_pbe_ddec_spin_density
 _atom_site_pbe_ddec_sum_bond_order
 _atom_site_pbe_magmom
Mn  Mn0  1  0.75008371  0.20468707  0.16398893  1  1.506362  4.617296  0.607373  1.010176  4.711958  2.236168  4.532
Mn  Mn1  1  0.25006867  0.29532574  0.66398755  1  1.506443  4.617262  0.60738  1.010178  4.711888  2.236298  4.532
Mn  Mn2  1  0.24986309  0.79528728  0.83602281  1  1.506189  4.617371  0.607351  1.010109  4.712179  2.236441  4.532
Mn  Mn3  1  0.75002974  0.70467518  0.33600684  1  1.506605  4.617233  0.607377  1.010111  4.711863  2.236313  4.532
Mn  Mn4  1  0.50001567  0.49998440  0.49999038  1  1.478336  4.559882  0.600397  0.87263  4.686803  2.476417  4.488
Mn  Mn5  1  0.49997849  0.00005597  0.99997695  1  1.478261  4.559879  0.600514  0.872781  4.686787  2.476321  4.488
Mn  Mn6  1  0.00002400  0.50002953  0.50000029  1  1.478269  4.559845  0.600429  0.872828  4.686753  2.476397  4.488
Mn  Mn7  1  0.99997892  0.99996960  0.00000442  1  1.478385  4.559878  0.600381  0.872637  4.686815  2.476417  4.488
H  H8  1  0.12594367  0.33510869  0.30642431  1  0.477413  0.000422  0.303906  0.308813  -0.000427  0.980953  0.0
H  H9  1  0.87408348  0.16488759  0.80642938  1  0.477671  0.000421  0.303923  0.309009  -0.000429  0.980675  0.0
H  H10  1  0.62589451  0.66485224  0.69356049  1  0.477212  0.000422  0.303941  0.309018  -0.000429  0.980812  0.0
H  H11  1  0.37408418  0.83514447  0.19357026  1  0.477308  0.000422  0.30387  0.308913  -0.000428  0.980783  0.0
H  H12  1  0.87404832  0.66487230  0.69358186  1  0.477452  0.000422  0.303974  0.308804  -0.000427  0.980976  0.0
H  H13  1  0.12592746  0.83513216  0.19357245  1  0.477463  0.000422  0.303901  0.308919  -0.000428  0.980781  0.0
H  H14  1  0.37409894  0.33512432  0.30643390  1  0.477468  0.000422  0.303943  0.309111  -0.000428  0.980621  0.0
H  H15  1  0.62592821  0.16489078  0.80641545  1  0.477584  0.000422  0.303887  0.308784  -0.000427  0.980905  0.0
H  H16  1  0.75009488  0.21546009  0.99471595  1  0.596301  0.007025  0.312648  0.397926  0.004214  0.886408  0.007
H  H17  1  0.74998661  0.52504859  0.16029343  1  0.650624  0.002319  0.303274  0.414224  0.000403  0.910294  0.003
H  H18  1  0.74998873  0.47230936  0.06751644  1  0.631763  0.005099  0.333365  0.411704  0.003003  0.863615  0.003
H  H19  1  0.24996293  0.28455251  0.49471525  1  0.596528  0.007024  0.312662  0.398134  0.004213  0.886095  0.007
H  H20  1  0.25001960  0.97496309  0.66030288  1  0.650204  0.002321  0.303254  0.414215  0.000403  0.910286  0.003
H  H21  1  0.25000741  0.02768639  0.56752485  1  0.632205  0.005097  0.333398  0.411754  0.003003  0.863535  0.003
H  H22  1  0.25006184  0.78458181  0.00529456  1  0.596585  0.00702  0.312747  0.398178  0.004211  0.886094  0.007
H  H23  1  0.24996019  0.47492686  0.83972141  1  0.664096  0.002244  0.303155  0.414202  0.000403  0.910374  0.003
H  H24  1  0.24998722  0.52766831  0.93249840  1  0.632421  0.005094  0.333279  0.41151  0.003002  0.863487  0.003
H  H25  1  0.74997074  0.71543069  0.50528286  1  0.596315  0.007024  0.312755  0.39824  0.004213  0.886058  0.007
H  H26  1  0.75000446  0.02503562  0.33971444  1  0.650414  0.002319  0.303263  0.414344  0.000403  0.910188  0.003
H  H27  1  0.75000353  0.97229017  0.43248937  1  0.632354  0.005095  0.333393  0.411699  0.003003  0.86346  0.003
C  C28  1  0.25003332  0.24669802  0.20347660  1  1.511422  0.01345  0.339874  0.513896  0.010409  4.079548  0.012
C  C29  1  0.75002360  0.25331099  0.70347192  1  1.510981  0.013452  0.339931  0.514003  0.010409  4.079129  0.012
C  C30  1  0.74993389  0.75327853  0.79652398  1  1.511935  0.013449  0.340083  0.514199  0.010408  4.079172  0.012
C  C31  1  0.25001795  0.74670876  0.29651999  1  1.511388  0.013453  0.339752  0.513507  0.010412  4.080052  0.012
S  S32  1  0.75002326  0.32914981  0.35710107  1  3.824758  0.020377  0.58874  1.404679  0.028612  6.37534  0.018
S  S33  1  0.24996780  0.17084285  0.85710030  1  3.824477  0.020382  0.588892  1.404899  0.028614  6.374902  0.018
S  S34  1  0.24999789  0.67085000  0.64290137  1  3.823929  0.02038  0.588842  1.404553  0.028611  6.374996  0.018
S  S35  1  0.74997316  0.82916140  0.14289595  1  3.824007  0.020381  0.588761  1.404813  0.028611  6.374944  0.018
N  N36  1  0.34498807  0.11948356  0.09885516  1  -0.129958  0.062524  -0.10357  -0.061344  0.043116  3.541102  0.026
N  N37  1  0.41265382  0.19886601  0.16327263  1  -0.724307  0.057917  -0.218711  -0.33204  0.040527  3.284642  0.026
N  N38  1  0.65507368  0.38053927  0.59885195  1  -0.314455  0.063486  -0.103725  -0.061383  0.043112  3.541162  0.026
N  N39  1  0.58740664  0.30116008  0.66326784  1  -0.723419  0.058031  -0.218832  -0.33212  0.040552  3.284976  0.026
N  N40  1  0.84488788  0.88051583  0.90114398  1  -0.313407  0.063491  -0.103688  -0.061382  0.043129  3.541721  0.026
N  N41  1  0.91255238  0.80112801  0.83673202  1  -0.723769  0.058087  -0.219128  -0.332532  0.040568  3.285437  0.026
N  N42  1  0.15506058  0.61948755  0.40114079  1  -0.314583  0.063497  -0.10355  -0.061177  0.043127  3.541583  0.026
N  N43  1  0.08739737  0.69886990  0.33672558  1  -0.72341  0.058008  -0.218808  -0.332024  0.040544  3.285008  0.026
N  N44  1  0.65497038  0.88050961  0.90113799  1  -0.131009  0.062506  -0.103314  -0.060889  0.043111  3.541121  0.026
N  N45  1  0.58731046  0.80111719  0.83672238  1  -0.724063  0.057875  -0.21875  -0.332234  0.040528  3.284694  0.026
N  N46  1  0.34497808  0.61948602  0.40114120  1  -0.129611  0.062507  -0.103493  -0.061266  0.043123  3.541441  0.026
N  N47  1  0.41264074  0.69886854  0.33672593  1  -0.72422  0.057968  -0.218747  -0.331964  0.04054  3.284891  0.026
N  N48  1  0.15507057  0.11947512  0.09885227  1  -0.314368  0.063491  -0.103525  -0.061091  0.043119  3.540807  0.026
N  N49  1  0.08741191  0.19885630  0.16326919  1  -0.723544  0.058046  -0.218941  -0.332322  0.040563  3.285163  0.026
N  N50  1  0.84499118  0.38052667  0.59885298  1  -0.129775  0.062522  -0.103495  -0.0612  0.043126  3.541186  0.026
N  N51  1  0.91264856  0.30113989  0.66326819  1  -0.724364  0.057937  -0.218696  -0.332107  0.040537  3.28483  0.026
N  N52  1  0.25002477  0.33371852  0.27174353  1  -1.270356  0.006612  -0.578816  -0.62815  0.003615  3.268315  0.004
N  N53  1  0.75001081  0.16628495  0.77173716  1  -1.270466  0.006611  -0.578853  -0.628131  0.003614  3.268218  0.004
N  N54  1  0.74995993  0.66625472  0.72825706  1  -1.270447  0.006613  -0.578944  -0.628099  0.003615  3.268434  0.004
N  N55  1  0.25001033  0.83373591  0.22825661  1  -1.270461  0.006613  -0.578718  -0.627968  0.003616  3.26835  0.004
O  O56  1  0.57138036  0.32022295  0.40965063  1  -1.357911  0.065442  -0.34389  -0.659778  0.045735  2.278352  0.032
O  O57  1  0.42861559  0.17978829  0.90965486  1  -1.357849  0.06546  -0.343993  -0.65987  0.045762  2.278298  0.032
O  O58  1  0.07136350  0.67976021  0.59034003  1  -1.357862  0.065459  -0.344023  -0.659813  0.045746  2.278454  0.032
O  O59  1  0.92860994  0.82021712  0.09034325  1  -1.357955  0.065445  -0.343922  -0.659892  0.045737  2.278244  0.032
O  O60  1  0.42862766  0.67976469  0.59034500  1  -1.357764  0.065412  -0.343955  -0.659805  0.045719  2.278346  0.032
O  O61  1  0.57134724  0.82027355  0.09033209  1  -1.358392  0.065415  -0.344011  -0.659972  0.045716  2.278484  0.032
O  O62  1  0.92864744  0.32025290  0.40966675  1  -1.358195  0.065416  -0.344032  -0.659973  0.045731  2.278582  0.032
O  O63  1  0.07134997  0.17975944  0.90966354  1  -1.358166  0.065408  -0.344099  -0.660044  0.045726  2.278514  0.032
O  O64  1  0.75001585  0.46697298  0.30724011  1  -1.360783  0.057576  -0.33119  -0.643123  0.040995  2.327538  0.026
O  O65  1  0.75005345  0.20044741  0.29837668  1  -1.355213  0.071073  -0.336261  -0.65083  0.052755  2.360577  0.036
O  O66  1  0.75001963  0.13307739  0.03372496  1  -1.289728  0.2044  -0.552207  -0.842668  0.155496  2.168163  0.103
O  O67  1  0.75002868  0.43547549  0.12403775  1  -1.270201  0.061239  -0.562501  -0.771958  0.043784  2.101966  0.025
O  O68  1  0.24996618  0.03300669  0.80725164  1  -1.360647  0.057545  -0.331101  -0.643108  0.040972  2.327498  0.026
O  O69  1  0.24995108  0.29953102  0.79836850  1  -1.354988  0.071066  -0.336285  -0.65082  0.052758  2.360545  0.036
O  O70  1  0.25001564  0.36693553  0.53372518  1  -1.289908  0.204395  -0.552141  -0.842923  0.155506  2.168027  0.103
O  O71  1  0.25004708  0.06453003  0.62404386  1  -1.270229  0.061253  -0.562512  -0.771999  0.043788  2.101809  0.025
O  O72  1  0.24999800  0.53302351  0.69276048  1  -1.360466  0.057573  -0.331184  -0.643092  0.040996  2.32746  0.026
O  O73  1  0.24998519  0.79954687  0.70162887  1  -1.355173  0.071047  -0.336346  -0.650784  0.052743  2.360447  0.036
O  O74  1  0.24997527  0.86693904  0.96627253  1  -1.290071  0.204429  -0.552262  -0.84293  0.15551  2.168104  0.103
O  O75  1  0.24994727  0.56450107  0.87597710  1  -1.284169  0.061264  -0.562264  -0.771721  0.043791  2.101875  0.025
O  O76  1  0.75001997  0.96698758  0.19275514  1  -1.360091  0.057551  -0.331108  -0.643076  0.040987  2.327322  0.026
O  O77  1  0.74992427  0.70046437  0.20162403  1  -1.354971  0.07108  -0.336305  -0.650827  0.052761  2.360616  0.036
O  O78  1  0.75000405  0.63305431  0.46626797  1  -1.289822  0.20443  -0.552218  -0.843045  0.15552  2.168187  0.103
O  O79  1  0.74999593  0.93546204  0.37596726  1  -1.270593  0.061254  -0.562502  -0.77203  0.043784  2.101607  0.025
