# generated using pymatgen
data_AlH9C24(OF)6
_symmetry_space_group_name_H-M   'P 1'
_cell_length_a   3.97549116
_cell_length_b   28.68740812
_cell_length_c   28.68735129
_cell_angle_alpha   119.99990007
_cell_angle_beta   89.99967554
_cell_angle_gamma   90.00051621
_symmetry_Int_Tables_number   1
_chemical_formula_structural   AlH9C24(OF)6
_chemical_formula_sum   'Al2 H18 C48 O12 F12'
_cell_volume   2833.37217131
_cell_formula_units_Z   2
loop_
 _symmetry_equiv_pos_site_id
 _symmetry_equiv_pos_as_xyz
  1  'x, y, z'
loop_
 _atom_site_type_symbol
 _atom_site_label
 _atom_site_symmetry_multiplicity
 _atom_site_fract_x
 _atom_site_fract_y
 _atom_site_fract_z
 _atom_site_occupancy
 _atom_site_pbe_bader_charge
 _atom_site_pbe_bader_spin_density
 _atom_site_pbe_cm5_charge
 _atom_site_pbe_ddec_charge
 _atom_site_pbe_ddec_spin_density
 _atom_site_pbe_ddec_sum_bond_order
 _atom_site_pbe_magmom
Al  Al0  1  0.00032516  0.50000152  0.49999977  1  2.503485  0  0.429091  1.596634  0  2.575458  0
Al  Al1  1  0.00033228  0.16666782  0.83333200  1  2.503384  0  0.429149  1.596759  0  2.575235  0
H  H2  1  0.49947169  0.22912485  0.64295803  1  0.065246  0  0.11064  0.134952  0  0.994399  0
H  H3  1  0.50013471  0.37583038  0.79891268  1  0.115987  0  0.111104  0.135942  0  0.98582  0
H  H4  1  0.50016022  0.29082474  0.53439616  1  0.115659  0  0.111138  0.136019  0  0.985654  0
H  H5  1  0.49947498  0.43752005  0.69036032  1  0.06573  0  0.110583  0.134954  0  0.99436  0
H  H6  1  0.50001590  0.38475714  0.72226617  1  0.048478  0  0.101739  0.099076  0  1.001538  0
H  H7  1  0.50003000  0.28188850  0.61104446  1  0.047857  0  0.10179  0.099188  0  1.001382  0
H  H8  1  0.49947628  0.91383602  0.77087504  1  0.064118  0  0.110628  0.135029  0  0.994441  0
H  H9  1  0.50014630  0.92308295  0.62416826  1  0.054882  0  0.111105  0.135947  0  0.985736  0
H  H10  1  0.50015873  0.74357497  0.70917612  1  0.054718  0  0.11115  0.135981  0  0.985619  0
H  H11  1  0.49948803  0.75283987  0.56247926  1  0.063445  0  0.110619  0.134977  0  0.99431  0
H  H12  1  0.50002043  0.83751033  0.61524108  1  0.038949  0  0.101747  0.099035  0  1.001497  0
H  H13  1  0.50003054  0.82915806  0.71811095  1  0.038366  0  0.101805  0.099171  0  1.001262  0
H  H14  1  0.49947266  0.35704076  0.08616432  1  0.025749  0  0.110656  0.135096  0  0.994371  0
H  H15  1  0.50014440  0.20108735  0.07691671  1  0.068739  0  0.111124  0.136009  0  0.985757  0
H  H16  1  0.50015678  0.46560303  0.25642540  1  0.068236  0  0.111157  0.136037  0  0.985563  0
H  H17  1  0.49948780  0.30964230  0.24716001  1  0.026346  0  0.110583  0.134913  0  0.994349  0
H  H18  1  0.50001931  0.27773430  0.16249068  1  0.043671  0  0.101774  0.099108  0  1.001437  0
H  H19  1  0.50002781  0.38895533  0.17084102  1  0.04362  0  0.101756  0.099097  0  1.001403  0
C  C20  1  0.50021612  0.46269069  0.41770782  1  1.647178  0  0.283967  0.701696  0  4.052024  0
C  C21  1  0.50021332  0.45501984  0.53731090  1  1.639781  0  0.284104  0.701843  0  4.051839  0
C  C22  1  0.50021984  0.58229280  0.54498116  1  1.651443  0  0.284018  0.701646  0  4.0521  0
C  C23  1  0.50021241  0.21164439  0.79601671  1  1.64004  0  0.28395  0.701648  0  4.051979  0
C  C24  1  0.50021092  0.08437474  0.78835499  1  1.652343  0  0.283975  0.701706  0  4.052141  0
C  C25  1  0.50021464  0.20398178  0.91562480  1  1.648052  0  0.283964  0.70172  0  4.052168  0
C  C26  1  0.50015370  0.24460177  0.76899700  1  0.034128  0  -0.024045  -0.262102  0  3.948577  0
C  C27  1  0.49435107  0.22111980  0.71277708  1  0.487242  0  0.110064  0.306355  0  4.065918  0
C  C28  1  0.49768300  0.25071776  0.68676038  1  -0.034386  0  -0.106394  -0.284328  0  3.972083  0
C  C29  1  0.49982230  0.30735207  0.71729104  1  0.056607  0  -0.005006  0.166296  0  4.065262  0
C  C30  1  0.50212351  0.33214760  0.77379531  1  0.046309  0  -0.105575  -0.288584  0  3.979597  0
C  C31  1  0.50575674  0.30087781  0.79817439  1  0.480432  0  0.109614  0.308086  0  4.064668  0
C  C32  1  0.49971074  0.34160402  0.69323996  1  -0.087255  0  -0.086413  -0.121988  0  3.97286  0
C  C33  1  0.49971888  0.32504232  0.64007137  1  0.014915  0  -0.086288  -0.121673  0  3.972514  0
C  C34  1  0.50213319  0.33451123  0.55952167  1  0.045767  0  -0.105673  -0.288704  0  3.979701  0
C  C35  1  0.49982113  0.35929683  0.61602123  1  0.056069  0  -0.00495  0.166278  0  4.06559  0
C  C36  1  0.49768424  0.41593244  0.64655965  1  -0.033952  0  -0.106471  -0.284429  0  3.97203  0
C  C37  1  0.49436038  0.44553594  0.62054647  1  0.486952  0  0.110185  0.306361  0  4.06538  0
C  C38  1  0.50016639  0.42205967  0.56432782  1  0.034798  0  -0.023975  -0.261939  0  3.948424  0
C  C39  1  0.50577202  0.36578261  0.53514658  1  0.479442  0  0.109573  0.307973  0  4.064902  0
C  C40  1  0.50015935  0.02439709  0.75539789  1  0.130138  0  -0.024128  -0.262284  0  3.948748  0
C  C41  1  0.49435979  0.99166040  0.77887977  1  0.489511  0  0.110225  0.306608  0  4.065516  0
C  C42  1  0.49768901  0.93604384  0.74928273  1  0.042701  0  -0.106473  -0.284612  0  3.971845  0
C  C43  1  0.49982746  0.90994102  0.69264611  1  -0.062323  0  -0.005016  0.16625  0  4.065318  0
C  C44  1  0.50213315  0.94164892  0.66785262  1  0.114325  0  -0.105613  -0.28863  0  3.979688  0
C  C45  1  0.50576656  0.99729791  0.69912111  1  0.362732  0  0.109667  0.30819  0  4.064411  0
C  C46  1  0.49971812  0.85163599  0.65839633  1  -0.039758  0  -0.08637  -0.121743  0  3.97319  0
C  C47  1  0.49972412  0.81503226  0.67495515  1  0.080426  0  -0.086315  -0.121761  0  3.972957  0
C  C48  1  0.50213365  0.72501332  0.66548884  1  0.114617  0  -0.105624  -0.288578  0  3.979766  0
C  C49  1  0.49982859  0.75672604  0.64070378  1  -0.062615  0  -0.005023  0.166156  0  4.06543  0
C  C50  1  0.49769587  0.73062832  0.58406623  1  0.044504  0  -0.106531  -0.284518  0  3.971859  0
C  C51  1  0.49436428  0.67501023  0.55446444  1  0.488957  0  0.11024  0.306545  0  4.06526  0
C  C52  1  0.50017079  0.64226989  0.57794091  1  0.130449  0  -0.024027  -0.261981  0  3.948564  0
C  C53  1  0.50577230  0.66936725  0.63421882  1  0.362308  0  0.109514  0.307939  0  4.065151  0
C  C54  1  0.50015639  0.23100304  0.97560340  1  0.114997  0  -0.024108  -0.262164  0  3.948837  0
C  C55  1  0.49435317  0.28722168  0.00833958  1  0.296681  0  0.110102  0.306328  0  4.065678  0
C  C56  1  0.49768073  0.31324077  0.06395703  1  0.18083  0  -0.106554  -0.284656  0  3.971877  0
C  C57  1  0.49982230  0.28270785  0.09005954  1  -0.075255  0  -0.005017  0.166269  0  4.065309  0
C  C58  1  0.50213028  0.22620515  0.05835152  1  0.067331  0  -0.105601  -0.288682  0  3.979558  0
C  C59  1  0.50576293  0.20182612  0.00270169  1  0.57367  0  0.109623  0.308139  0  4.06468  0
C  C60  1  0.49971369  0.30676132  0.14836280  1  -0.083139  0  -0.08641  -0.121874  0  3.972864  0
C  C61  1  0.49972219  0.35992742  0.18496841  1  0.009351  0  -0.086205  -0.121579  0  3.972613  0
C  C62  1  0.50213016  0.44047720  0.27498538  1  0.067103  0  -0.105624  -0.288589  0  3.979689  0
C  C63  1  0.49982738  0.38397962  0.24327362  1  -0.074892  0  -0.005054  0.166103  0  4.065863  0
C  C64  1  0.49769527  0.35344077  0.26937021  1  0.180241  0  -0.106433  -0.284337  0  3.971914  0
C  C65  1  0.49436453  0.37945649  0.32499033  1  0.296911  0  0.110117  0.306276  0  4.065213  0
C  C66  1  0.50016370  0.43567332  0.35772951  1  0.115114  0  -0.024002  -0.261818  0  3.948609  0
C  C67  1  0.50576454  0.46485403  0.33063462  1  0.573248  0  0.109522  0.307823  0  4.065147  0
O  O68  1  0.73640853  0.55766341  0.55355561  1  -1.241475  0  -0.22809  -0.586318  0  2.357489  0
O  O69  1  0.73641140  0.49589396  0.44233626  1  -1.242762  0  -0.228067  -0.586334  0  2.357436  0
O  O70  1  0.73641098  0.44644517  0.50410635  1  -1.240811  0  -0.228141  -0.586418  0  2.357464  0
O  O71  1  0.26404777  0.56045042  0.51095850  1  -1.241012  0  -0.227893  -0.585592  0  2.355053  0
O  O72  1  0.26404461  0.48904209  0.54949062  1  -1.23128  0  -0.227949  -0.585667  0  2.35489  0
O  O73  1  0.26404067  0.45051101  0.43955022  1  -1.23864  0  -0.227847  -0.585579  0  2.35493  0
O  O74  1  0.73641131  0.17077812  0.89099767  1  -1.243358  0  -0.22804  -0.58631  0  2.357448  0
O  O75  1  0.73641676  0.22022213  0.82922120  1  -1.241076  0  -0.22805  -0.586349  0  2.357326  0
O  O76  1  0.73641166  0.10900197  0.77977805  1  -1.241688  0  -0.228082  -0.586326  0  2.357422  0
O  O77  1  0.26405349  0.21616039  0.89378044  1  -1.238887  0  -0.227911  -0.585639  0  2.35498  0
O  O78  1  0.26404890  0.10621910  0.82237753  1  -1.241839  0  -0.227919  -0.58563  0  2.355015  0
O  O79  1  0.26405457  0.17762191  0.78383908  1  -1.230961  0  -0.227891  -0.585593  0  2.355156  0
F  F80  1  0.50501184  0.32606075  0.85269124  1  -0.643196  0  -0.093111  -0.127481  0  1.316617  0
F  F81  1  0.49496118  0.16664175  0.68245774  1  -0.622622  0  -0.093733  -0.128363  0  1.316989  0
F  F82  1  0.49495013  0.50001291  0.65087037  1  -0.622265  0  -0.093769  -0.128351  0  1.31672  0
F  F83  1  0.50503786  0.34060417  0.48062941  1  -0.6424  0  -0.093127  -0.127502  0  1.316759  0
F  F84  1  0.50502849  0.02663066  0.67393711  1  -0.634991  0  -0.093122  -0.127499  0  1.316459  0
F  F85  1  0.49496560  0.01581874  0.83335804  1  -0.623667  0  -0.093735  -0.128339  0  1.316907  0
F  F86  1  0.49495829  0.65085861  0.49998712  1  -0.623122  0  -0.093743  -0.128385  0  1.316668  0
F  F87  1  0.50503630  0.64002978  0.65939918  1  -0.63522  0  -0.093082  -0.127452  0  1.316752  0
F  F88  1  0.50502353  0.14730905  0.97336930  1  -0.639646  0  -0.093071  -0.127454  0  1.316592  0
F  F89  1  0.49495968  0.31754161  0.98418232  1  -0.620224  0  -0.093635  -0.128224  0  1.317049  0
F  F90  1  0.49496420  0.34913115  0.34914094  1  -0.619635  0  -0.093725  -0.128323  0  1.316701  0
F  F91  1  0.50502868  0.51937059  0.35997009  1  -0.639954  0  -0.093112  -0.127478  0  1.31683  0
