# generated using pymatgen
data_AgH8C9N7O3
_symmetry_space_group_name_H-M   'P 1'
_cell_length_a   7.11070820
_cell_length_b   9.68403198
_cell_length_c   17.33300000
_cell_angle_alpha   90.00000000
_cell_angle_beta   90.00000000
_cell_angle_gamma   96.21971566
_symmetry_Int_Tables_number   1
_chemical_formula_structural   AgH8C9N7O3
_chemical_formula_sum   'Ag4 H32 C36 N28 O12'
_cell_volume   1186.53044509
_cell_formula_units_Z   4
loop_
 _symmetry_equiv_pos_site_id
 _symmetry_equiv_pos_as_xyz
  1  'x, y, z'
loop_
 _atom_site_type_symbol
 _atom_site_label
 _atom_site_symmetry_multiplicity
 _atom_site_fract_x
 _atom_site_fract_y
 _atom_site_fract_z
 _atom_site_occupancy
 _atom_site_hle17_bader_spin_density
 _atom_site_hle17_ddec_charge
 _atom_site_hle17_ddec_spin_density
 _atom_site_hle17_ddec_sum_bond_order
 _atom_site_hle17_magmom
 _atom_site_hse06_10hf_bader_spin_density
 _atom_site_hse06_10hf_ddec_charge
 _atom_site_hse06_10hf_ddec_spin_density
 _atom_site_hse06_10hf_ddec_sum_bond_order
 _atom_site_hse06_10hf_magmom
 _atom_site_hse06_bader_spin_density
 _atom_site_hse06_ddec_charge
 _atom_site_hse06_ddec_spin_density
 _atom_site_hse06_ddec_sum_bond_order
 _atom_site_hse06_magmom
 _atom_site_pbe_bader_charge
 _atom_site_pbe_bader_spin_density
 _atom_site_pbe_cm5_charge
 _atom_site_pbe_ddec_charge
 _atom_site_pbe_ddec_spin_density
 _atom_site_pbe_ddec_sum_bond_order
 _atom_site_pbe_magmom
Ag  Ag0  1  0.84571594  0.38101993  0.71136330  1  0  0.531053  0  1.41904  0  0  0.385021  0  1.848934  0  0  0.41064  0  1.807145  0  0.602454  0  0.479947  0.367543  0  1.877961  0
Ag  Ag1  1  0.15428704  0.11897855  0.21136330  1  0  0.531079  0  1.419056  0  0  0.385033  0  1.848962  0  0  0.410651  0  1.807173  0  0.602446  0  0.479951  0.36755  0  1.877999  0
Ag  Ag2  1  0.15428882  0.61898015  0.28863670  1  0  0.531075  0  1.419082  0  0  0.385049  0  1.848983  0  0  0.410668  0  1.807194  0  0.602459  0  0.479949  0.367554  0  1.878046  0
Ag  Ag3  1  0.84571631  0.88102152  0.78863728  1  0  0.531046  0  1.419042  0  0  0.385011  0  1.848933  0  0  0.410633  0  1.807149  0  0.602512  0  0.479913  0.367524  0  1.877981  0
H  H4  1  0.89699328  0.53995161  0.88470490  1  0  0.100297  0  0.942534  0  0  0.102824  0  1.015942  0  0  0.105398  0  1.012454  0  0.15778  0  0.134731  0.101122  0  1.018173  0
H  H5  1  0.10301029  0.96004902  0.38470548  1  0  0.10029  0  0.942577  0  0  0.102819  0  1.015982  0  0  0.105396  0  1.012473  0  0.157742  0  0.134739  0.101117  0  1.018211  0
H  H6  1  0.10300726  0.46004846  0.11529510  1  0  0.100271  0  0.942553  0  0  0.102799  0  1.015963  0  0  0.105372  0  1.012473  0  0.157773  0  0.134722  0.101099  0  1.018191  0
H  H7  1  0.89699368  0.03995521  0.61529510  1  0  0.100287  0  0.942555  0  0  0.10282  0  1.015956  0  0  0.1054  0  1.012443  0  0.157744  0  0.134719  0.101116  0  1.018193  0
H  H8  1  0.25032286  0.26771602  0.78135406  1  0  0.117843  0  0.969825  0  0  0.124439  0  1.036638  0  0  0.128691  0  1.030906  0  0.22113  0  0.139585  0.121526  0  1.041344  0
H  H9  1  0.74967841  0.23228038  0.28135349  1  0  0.117789  0  0.969887  0  0  0.124403  0  1.036689  0  0  0.128649  0  1.030959  0  0.22113  0  0.13956  0.12149  0  1.0414  0
H  H10  1  0.74968034  0.73228301  0.21864767  1  0  0.117865  0  0.969805  0  0  0.124455  0  1.03662  0  0  0.128703  0  1.030892  0  0.221127  0  0.139604  0.121548  0  1.041328  0
H  H11  1  0.25032198  0.76771866  0.71864594  1  0  0.117798  0  0.96989  0  0  0.124398  0  1.036709  0  0  0.128651  0  1.030974  0  0.221136  0  0.139565  0.121488  0  1.041416  0
H  H12  1  0.49375506  0.40547607  0.95997750  1  0  0.112551  0  0.893949  0  0  0.121742  0  0.958708  0  0  0.123475  0  0.956019  0  0.14661  0  0.145107  0.120365  0  0.96193  0
H  H13  1  0.50624822  0.09452449  0.45997692  1  0  0.112531  0  0.893964  0  0  0.121738  0  0.958719  0  0  0.123469  0  0.956031  0  0.146608  0  0.145114  0.12036  0  0.961942  0
H  H14  1  0.50624673  0.59452297  0.04002423  1  0  0.11252  0  0.893998  0  0  0.121682  0  0.95879  0  0  0.123413  0  0.956103  0  0.146731  0  0.145117  0.12031  0  0.962015  0
H  H15  1  0.49375357  0.90547455  0.54002308  1  0  0.112526  0  0.893983  0  0  0.121732  0  0.958743  0  0  0.123463  0  0.956055  0  0.14671  0  0.145096  0.120355  0  0.961968  0
H  H16  1  0.49969295  0.27638744  0.88601165  1  0  0.122413  0  0.913468  0  0  0.132876  0  0.977937  0  0  0.13446  0  0.97628  0  0.164314  0  0.142598  0.131512  0  0.980492  0
H  H17  1  0.50031034  0.22361311  0.38601108  1  0  0.122374  0  0.913492  0  0  0.132866  0  0.977926  0  0  0.134446  0  0.976273  0  0.164337  0  0.142629  0.131501  0  0.980483  0
H  H18  1  0.50030900  0.72361263  0.11398892  1  0  0.122336  0  0.913515  0  0  0.132841  0  0.977927  0  0  0.134421  0  0.976274  0  0.164319  0  0.142623  0.131479  0  0.980492  0
H  H19  1  0.49969020  0.77638696  0.61398892  1  0  0.122368  0  0.913511  0  0  0.132866  0  0.977933  0  0  0.134444  0  0.976282  0  0.164317  0  0.142618  0.131501  0  0.980491  0
H  H20  1  0.35630424  0.03232565  0.85090059  1  0  0.116159  0  0.976527  0  0  0.122587  0  1.042006  0  0  0.124758  0  1.041996  0  0.102076  0  0.107545  0.120914  0  1.042104  0
H  H21  1  0.64370186  0.46767490  0.35089944  1  0  0.116155  0  0.976546  0  0  0.122592  0  1.042017  0  0  0.124761  0  1.042009  0  0.102093  0  0.107547  0.120919  0  1.042113  0
H  H22  1  0.64369459  0.96767235  0.14910056  1  0  0.116167  0  0.976609  0  0  0.1226  0  1.042078  0  0  0.124769  0  1.042072  0  0.102064  0  0.107561  0.120926  0  1.042175  0
H  H23  1  0.35629978  0.53232309  0.64909941  1  0  0.116178  0  0.976566  0  0  0.122604  0  1.042045  0  0  0.124775  0  1.042036  0  0.102115  0  0.107529  0.120931  0  1.042143  0
H  H24  1  0.25932601  0.77832214  0.86906941  1  0  0.100614  0  0.967503  0  0  0.10981  0  1.032274  0  0  0.112427  0  1.030593  0  0.123664  0  0.101955  0.107917  0  1.033486  0
H  H25  1  0.74067632  0.72167953  0.36906883  1  0  0.100665  0  0.967451  0  0  0.109817  0  1.032276  0  0  0.112428  0  1.030593  0  0.123627  0  0.101957  0.107924  0  1.033488  0
H  H26  1  0.74067564  0.22167586  0.13093175  1  0  0.100629  0  0.967478  0  0  0.109813  0  1.032266  0  0  0.112422  0  1.030586  0  0.12367  0  0.10196  0.10792  0  1.033479  0
H  H27  1  0.25932548  0.27831950  0.63092944  1  0  0.100654  0  0.967459  0  0  0.109818  0  1.032272  0  0  0.112436  0  1.030587  0  0.123664  0  0.101952  0.107924  0  1.033484  0
H  H28  1  0.14191353  0.68456736  0.99363872  1  0  0.09198  0  0.993332  0  0  0.095522  0  1.067912  0  0  0.097959  0  1.068157  0  0.079136  0  0.097003  0.093978  0  1.067382  0
H  H29  1  0.85808442  0.81543327  0.49363872  1  0  0.091939  0  0.993317  0  0  0.095481  0  1.067906  0  0  0.097918  0  1.068151  0  0.079123  0  0.096981  0.093936  0  1.067377  0
H  H30  1  0.85809217  0.31542960  0.00636301  1  0  0.091944  0  0.993399  0  0  0.095513  0  1.067959  0  0  0.09795  0  1.068204  0  0.079166  0  0.096994  0.093967  0  1.067428  0
H  H31  1  0.14191487  0.18456784  0.50635897  1  0  0.091955  0  0.993364  0  0  0.095468  0  1.067976  0  0  0.097906  0  1.068222  0  0.07913  0  0.096974  0.093924  0  1.067446  0
H  H32  1  0.12641430  0.83937316  0.10969942  1  0  0.1142  0  0.96213  0  0  0.123092  0  1.027204  0  0  0.125886  0  1.025265  0  0.089776  0  0.105132  0.120996  0  1.028713  0
H  H33  1  0.87357818  0.66062851  0.60969999  1  0  0.114236  0  0.962143  0  0  0.123128  0  1.027194  0  0  0.125923  0  1.025255  0  0.089885  0  0.105156  0.121032  0  1.028706  0
H  H34  1  0.87358750  0.16062587  0.89030231  1  0  0.114235  0  0.962129  0  0  0.123128  0  1.027194  0  0  0.125922  0  1.025256  0  0.089829  0  0.105146  0.121031  0  1.028705  0
H  H35  1  0.12641438  0.33937468  0.39029943  1  0  0.114169  0  0.962099  0  0  0.123087  0  1.027155  0  0  0.125882  0  1.025214  0  0.089878  0  0.105128  0.12099  0  1.028666  0
C  C36  1  0.01078091  0.47557038  0.87520395  1  0  0.206182  0  3.667537  0  0  0.159278  0  3.940355  0  0  0.170584  0  3.953279  0  0.978399  0  0.153199  0.151172  0  3.934822  0
C  C37  1  0.98922067  0.02442810  0.37520337  1  0  0.206179  0  3.667519  0  0  0.15929  0  3.940309  0  0  0.17059  0  3.953257  0  0.978395  0  0.153201  0.151183  0  3.934785  0
C  C38  1  0.98922104  0.52442969  0.12479663  1  0  0.206266  0  3.667414  0  0  0.159376  0  3.940211  0  0  0.170677  0  3.953144  0  0.978422  0  0.153226  0.151268  0  3.934703  0
C  C39  1  0.01078003  0.97557302  0.62479605  1  0  0.206198  0  3.667482  0  0  0.159301  0  3.940292  0  0  0.170606  0  3.953226  0  0.978425  0  0.153202  0.151193  0  3.93477  0
C  C40  1  0.18416558  0.33651710  0.82050482  1  0  0.175967  0  3.621729  0  0  0.108805  0  3.886712  0  0  0.123622  0  3.897121  0  1.001441  0  0.16643  0.088753  0  3.875916  0
C  C41  1  0.81583756  0.16348242  0.32050424  1  0  0.176155  0  3.621695  0  0  0.108967  0  3.886668  0  0  0.12379  0  3.897081  0  1.001443  0  0.166527  0.088879  0  3.875859  0
C  C42  1  0.81583637  0.66348297  0.17949576  1  0  0.176089  0  3.621658  0  0  0.10892  0  3.886651  0  0  0.123742  0  3.897061  0  1.001424  0  0.166441  0.088773  0  3.87583  0
C  C43  1  0.18416470  0.83651974  0.67949576  1  0  0.17616  0  3.621717  0  0  0.108987  0  3.886685  0  0  0.12381  0  3.897091  0  1.001459  0  0.166497  0.088884  0  3.875874  0
C  C44  1  0.41129684  0.32026079  0.92971384  1  0  0.070652  0  3.602925  0  0  -0.012  0  3.855876  0  0  -0.002544  0  3.862202  0  0.655514  0  0.07546  -0.028232  0  3.849146  0
C  C45  1  0.58870785  0.17973977  0.42971326  1  0  0.070817  0  3.602884  0  0  -0.011869  0  3.85583  0  0  -0.002401  0  3.86215  0  0.655542  0  0.075451  -0.028134  0  3.849103  0
C  C46  1  0.58870495  0.67973825  0.07028731  1  0  0.070983  0  3.602919  0  0  -0.011675  0  3.855843  0  0  -0.002209  0  3.862165  0  0.655504  0  0.075453  -0.028003  0  3.849118  0
C  C47  1  0.41129410  0.82026031  0.57028731  1  0  0.070745  0  3.602992  0  0  -0.011945  0  3.855934  0  0  -0.002476  0  3.862255  0  0.655552  0  0.075411  -0.028225  0  3.849206  0
C  C48  1  0.29826524  0.07471256  0.97165753  1  0  0.097814  0  3.80264  0  0  0.084138  0  4.046066  0  0  0.088315  0  4.069273  0  0.344953  0  0.104405  0.081089  0  4.030643  0
C  C49  1  0.70173524  0.42528800  0.47165753  1  0  0.097846  0  3.802576  0  0  0.084195  0  4.045975  0  0  0.088368  0  4.069185  0  0.344949  0  0.104426  0.081147  0  4.030553  0
C  C50  1  0.70173766  0.92528440  0.02834305  1  0  0.097801  0  3.802732  0  0  0.084145  0  4.046132  0  0  0.088321  0  4.069341  0  0.344687  0  0.104383  0.081093  0  4.030707  0
C  C51  1  0.29826124  0.57471312  0.52834247  1  0  0.097843  0  3.802599  0  0  0.084194  0  4.045995  0  0  0.088363  0  4.069215  0  0.344723  0  0.104438  0.081148  0  4.030572  0
C  C52  1  0.30697032  0.99040625  0.90638089  1  0  -0.14508  0  3.73247  0  0  -0.161798  0  3.989158  0  0  -0.166147  0  4.009898  0  -0.067612  0  -0.093545  -0.158855  0  3.975265  0
C  C53  1  0.69303200  0.50959542  0.40638032  1  0  -0.145087  0  3.732449  0  0  -0.161824  0  3.989128  0  0  -0.16617  0  4.009863  0  -0.067585  0  -0.093531  -0.15888  0  3.975235  0
C  C54  1  0.69303413  0.00959174  0.09362026  1  0  -0.145085  0  3.73252  0  0  -0.161821  0  3.98921  0  0  -0.16617  0  4.009949  0  -0.067596  0  -0.093534  -0.158877  0  3.975317  0
C  C55  1  0.30696558  0.49040362  0.59361911  1  0  -0.145122  0  3.732539  0  0  -0.161847  0  3.989209  0  0  -0.166195  0  4.00995  0  -0.067565  0  -0.093521  -0.158903  0  3.97531  0
C  C56  1  0.24964157  0.85011791  0.91701148  1  0  -0.048224  0  3.735914  0  0  -0.070538  0  4.000099  0  0  -0.070502  0  4.020308  0  0.02433  0  -0.08778  -0.070576  0  3.98638  0
C  C57  1  0.75035653  0.64988376  0.41701033  1  0  -0.04831  0  3.735885  0  0  -0.070589  0  4.000077  0  0  -0.070553  0  4.020298  0  0.024308  0  -0.087818  -0.070619  0  3.98634  0
C  C58  1  0.75036147  0.14988009  0.08298967  1  0  -0.04816  0  3.735821  0  0  -0.070456  0  4.000005  0  0  -0.070411  0  4.02021  0  0.02434  0  -0.087759  -0.070493  0  3.98628  0
C  C59  1  0.24964245  0.35011527  0.58298737  1  0  -0.048229  0  3.735898  0  0  -0.07051  0  4.000058  0  0  -0.070482  0  4.020289  0  0.024357  0  -0.087765  -0.070551  0  3.986354  0
C  C60  1  0.18372614  0.79582286  0.98923960  1  0  -0.068249  0  3.731288  0  0  -0.088557  0  3.991847  0  0  -0.092462  0  4.015333  0  -0.024191  0  -0.096819  -0.085923  0  3.975407  0
C  C61  1  0.81626915  0.70417881  0.48923960  1  0  -0.068196  0  3.731271  0  0  -0.088503  0  3.991818  0  0  -0.092409  0  4.015302  0  -0.024209  0  -0.096823  -0.085868  0  3.975379  0
C  C62  1  0.81627706  0.20417617  0.01076098  1  0  -0.068253  0  3.731427  0  0  -0.088594  0  3.991984  0  0  -0.0925  0  4.01547  0  -0.024203  0  -0.096835  -0.085957  0  3.975543  0
C  C63  1  0.18372718  0.29582127  0.51075867  1  0  -0.068208  0  3.731286  0  0  -0.088485  0  3.991838  0  0  -0.092391  0  4.015322  0  -0.024253  0  -0.096781  -0.085852  0  3.975396  0
C  C64  1  0.17320951  0.87991630  0.05351122  1  0  -0.118664  0  3.708041  0  0  -0.138739  0  3.959811  0  0  -0.139487  0  3.979651  0  0.047732  0  -0.087717  -0.137754  0  3.946017  0
C  C65  1  0.82678171  0.62008641  0.55351180  1  0  -0.118707  0  3.708103  0  0  -0.138776  0  3.959874  0  0  -0.139525  0  3.979713  0  0.048278  0  -0.087729  -0.137794  0  3.946082  0
C  C66  1  0.82679384  0.12008377  0.94649051  1  0  -0.118697  0  3.708076  0  0  -0.138765  0  3.959838  0  0  -0.139515  0  3.979679  0  0.047711  0  -0.087707  -0.137781  0  3.946045  0
C  C67  1  0.17321070  0.37991575  0.44648762  1  0  -0.118657  0  3.707967  0  0  -0.138756  0  3.959732  0  0  -0.139504  0  3.979568  0  0.047598  0  -0.087724  -0.137769  0  3.945936  0
C  C68  1  0.23279524  0.02173983  0.04363584  1  0  0.103771  0  3.843158  0  0  0.102755  0  4.084946  0  0  0.102494  0  4.109933  0  0.355752  0  0.090607  0.102752  0  4.067939  0
C  C69  1  0.76719851  0.47826280  0.54363584  1  0  0.103759  0  3.843105  0  0  0.10274  0  4.084902  0  0  0.102483  0  4.109888  0  0.35505  0  0.090616  0.102737  0  4.067895  0
C  C70  1  0.76720780  0.97825817  0.95636589  1  0  0.10379  0  3.843158  0  0  0.102769  0  4.084948  0  0  0.102514  0  4.109938  0  0.355786  0  0.090566  0.102765  0  4.067942  0
C  C71  1  0.23279250  0.52173935  0.45636416  1  0  0.103757  0  3.843112  0  0  0.102723  0  4.084924  0  0  0.102466  0  4.109911  0  0.355655  0  0.090558  0.102719  0  4.067915  0
N  N72  1  0.02925511  0.40039247  0.80910518  1  0  -0.366302  0  3.311524  0  0  -0.278124  0  3.609645  0  0  -0.300158  0  3.621516  0  -1.19537  0  -0.366374  -0.26368  0  3.604955  0
N  N73  1  0.97074631  0.09960497  0.30910518  1  0  -0.366314  0  3.311522  0  0  -0.278124  0  3.60965  0  0  -0.300163  0  3.621522  0  -1.195427  0  -0.366394  -0.26368  0  3.60497  0
N  N74  1  0.97074528  0.59960657  0.19089540  1  0  -0.366377  0  3.311515  0  0  -0.278198  0  3.609656  0  0  -0.300236  0  3.621526  0  -1.195435  0  -0.366408  -0.263752  0  3.604994  0
N  N75  1  0.02925594  0.90039718  0.69089482  1  0  -0.366341  0  3.311508  0  0  -0.278169  0  3.609636  0  0  -0.300207  0  3.621508  0  -1.19542  0  -0.366384  -0.263724  0  3.604961  0
N  N76  1  0.14477133  0.46026971  0.92673167  1  0  -0.261995  0  2.857211  0  0  -0.252941  0  3.137449  0  0  -0.26083  0  3.151111  0  -0.684373  0  -0.216635  -0.257639  0  3.122346  0
N  N77  1  0.85523055  0.03973084  0.42673224  1  0  -0.261972  0  2.857224  0  0  -0.252932  0  3.137466  0  0  -0.260819  0  3.151127  0  -0.684354  0  -0.216668  -0.257665  0  3.122347  0
N  N78  1  0.85522936  0.53973140  0.07326833  1  0  -0.261935  0  2.857137  0  0  -0.252891  0  3.137354  0  0  -0.260779  0  3.151017  0  -0.684331  0  -0.216666  -0.257678  0  3.122213  0
N  N79  1  0.14477170  0.96027131  0.57326776  1  0  -0.261961  0  2.857145  0  0  -0.25291  0  3.137361  0  0  -0.260796  0  3.151021  0  -0.684366  0  -0.216665  -0.257656  0  3.122234  0
N  N80  1  0.25272876  0.37179486  0.89093059  1  0  0.022302  0  3.592536  0  0  0.105056  0  3.828245  0  0  0.092325  0  3.854089  0  -0.81096  0  -0.135399  0.143647  0  3.773021  0
N  N81  1  0.74727453  0.12820570  0.39093002  1  0  0.022114  0  3.592592  0  0  0.104893  0  3.828301  0  0  0.092153  0  3.854148  0  -0.810918  0  -0.135406  0.143586  0  3.772963  0
N  N82  1  0.74727193  0.62820625  0.10907114  1  0  0.02201  0  3.592616  0  0  0.104813  0  3.828287  0  0  0.092072  0  3.854134  0  -0.810983  0  -0.135345  0.143657  0  3.772793  0
N  N83  1  0.25272898  0.87179542  0.60906998  1  0  0.022094  0  3.592707  0  0  0.104875  0  3.828408  0  0  0.092134  0  3.854254  0  -0.810967  0  -0.135388  0.143604  0  3.773032  0
N  N84  1  0.34578941  0.21363080  0.98518433  1  0  -0.020971  0  3.527188  0  0  0.058047  0  3.760802  0  0  0.044651  0  3.786221  0  -0.793477  0  -0.125246  0.066651  0  3.746049  0
N  N85  1  0.65421232  0.28636871  0.48518318  1  0  -0.021055  0  3.527219  0  0  0.057938  0  3.76088  0  0  0.044542  0  3.786295  0  -0.793445  0  -0.125314  0.066537  0  3.74614  0
N  N86  1  0.65420942  0.78636719  0.01481682  1  0  -0.021234  0  3.527475  0  0  0.057767  0  3.761145  0  0  0.044368  0  3.786561  0  -0.793271  0  -0.125314  0.066382  0  3.746394  0
N  N87  1  0.34578666  0.71363032  0.51481625  1  0  -0.021001  0  3.527157  0  0  0.057998  0  3.760797  0  0  0.044602  0  3.786215  0  -0.793238  0  -0.125251  0.066599  0  3.746052  0
N  N88  1  0.31048223  0.24666696  0.05926499  1  0  -0.044757  0  2.830053  0  0  -0.056292  0  3.110173  0  0  -0.048509  0  3.120533  0  -0.050501  0  -0.068171  -0.060971  0  3.102564  0
N  N89  1  0.68951699  0.25333464  0.55926383  1  0  -0.044828  0  2.830155  0  0  -0.056347  0  3.110275  0  0  -0.048564  0  3.120635  0  -0.050475  0  -0.068175  -0.061024  0  3.102666  0
N  N90  1  0.68951550  0.75333312  0.94073617  1  0  -0.044635  0  2.830184  0  0  -0.056156  0  3.110294  0  0  -0.048366  0  3.12066  0  -0.050501  0  -0.068115  -0.060836  0  3.102679  0
N  N91  1  0.31048385  0.74666751  0.44073617  1  0  -0.04469  0  2.830054  0  0  -0.056219  0  3.11017  0  0  -0.048435  0  3.12053  0  -0.050503  0  -0.068138  -0.060896  0  3.10256  0
N  N92  1  0.24397429  0.13189323  0.09453759  1  0  -0.223531  0  3.30188  0  0  -0.15887  0  3.619913  0  0  -0.170967  0  3.631348  0  -0.593169  0  -0.230261  -0.150359  0  3.611666  0
N  N93  1  0.75602196  0.36810733  0.59453759  1  0  -0.223404  0  3.301723  0  0  -0.158769  0  3.619777  0  0  -0.170866  0  3.63121  0  -0.593139  0  -0.230225  -0.150256  0  3.611527  0
N  N94  1  0.75602594  0.86810477  0.90546357  1  0  -0.223569  0  3.301957  0  0  -0.15892  0  3.620019  0  0  -0.171034  0  3.631473  0  -0.593159  0  -0.23027  -0.150408  0  3.611769  0
N  N95  1  0.24397467  0.63189483  0.40546241  1  0  -0.223555  0  3.301795  0  0  -0.158898  0  3.619846  0  0  -0.170995  0  3.631281  0  -0.593085  0  -0.230265  -0.150386  0  3.611598  0
N  N96  1  0.54496287  0.59477954  0.76818958  1  0  0.684448  0  4.168898  0  0  0.730349  0  4.445495  0  0  0.745413  0  4.469567  0  0.811051  0  0.08691  0.710912  0  4.441745  0
N  N97  1  0.45503508  0.90522110  0.26819362  1  0  0.684471  0  4.169023  0  0  0.730401  0  4.445613  0  0  0.745502  0  4.469644  0  0.810845  0  0.086983  0.710965  0  4.44186  0
N  N98  1  0.45502501  0.40522054  0.23180696  1  0  0.684463  0  4.168935  0  0  0.730465  0  4.445451  0  0  0.745544  0  4.469491  0  0.810982  0  0.086994  0.711029  0  4.441698  0
N  N99  1  0.54497124  0.09478002  0.73180753  1  0  0.684644  0  4.168715  0  0  0.730514  0  4.445362  0  0  0.745613  0  4.469385  0  0.810858  0  0.087071  0.711077  0  4.441611  0
O  O100  1  0.60829475  0.49406726  0.80272024  1  0  -0.478801  0  1.808743  0  0  -0.46916  0  2.048992  0  0  -0.480296  0  2.045121  0  -0.547252  0  -0.201527  -0.458  0  2.055748  0
O  O101  1  0.39169588  0.00593329  0.30272140  1  0  -0.478887  0  1.808781  0  0  -0.469216  0  2.049044  0  0  -0.48037  0  2.045161  0  -0.547305  0  -0.201597  -0.458056  0  2.055801  0
O  O102  1  0.39169048  0.50593385  0.19727802  1  0  -0.478803  0  1.808809  0  0  -0.469221  0  2.049072  0  0  -0.480375  0  2.045198  0  -0.547384  0  -0.201581  -0.45806  0  2.055831  0
O  O103  1  0.60831215  0.99406990  0.69727860  1  0  -0.478928  0  1.808695  0  0  -0.469282  0  2.048971  0  0  -0.480433  0  2.045083  0  -0.547301  0  -0.201631  -0.458121  0  2.055731  0
O  O104  1  0.37888440  0.62428293  0.78191888  1  0  -0.474885  0  1.772139  0  0  -0.46942  0  1.983264  0  0  -0.479922  0  1.983071  0  -0.566312  0  -0.20002  -0.458895  0  1.987323  0
O  O105  1  0.62111089  0.87571875  0.28192869  1  0  -0.474816  0  1.77219  0  0  -0.469415  0  1.983284  0  0  -0.479909  0  1.983057  0  -0.566152  0  -0.20002  -0.45889  0  1.987341  0
O  O106  1  0.62109725  0.37571299  0.21807189  1  0  -0.474868  0  1.772069  0  0  -0.469513  0  1.983159  0  0  -0.479979  0  1.982916  0  -0.566104  0  -0.200096  -0.45899  0  1.98722  0
O  O107  1  0.37889543  0.12428237  0.71807246  1  0  -0.474929  0  1.772055  0  0  -0.469473  0  1.983186  0  0  -0.479983  0  1.982978  0  -0.566035  0  -0.200093  -0.458948  0  1.987245  0
O  O108  1  0.64774942  0.66502966  0.71854266  1  0  -0.516804  0  1.800263  0  0  -0.509915  0  2.049565  0  0  -0.519285  0  2.042283  0  -0.572969  0  -0.221114  -0.49997  0  2.058431  0
O  O109  1  0.35225697  0.83497097  0.21854324  1  0  -0.516799  0  1.800324  0  0  -0.509918  0  2.049619  0  0  -0.519304  0  2.042332  0  -0.57287  0  -0.221129  -0.499972  0  2.058483  0
O  O110  1  0.35224736  0.33497353  0.28145791  1  0  -0.516814  0  1.800348  0  0  -0.509912  0  2.049665  0  0  -0.519296  0  2.042382  0  -0.572971  0  -0.22108  -0.499962  0  2.058528  0
O  O111  1  0.64774920  0.16502910  0.78145907  1  0  -0.516821  0  1.800235  0  0  -0.509917  0  2.049571  0  0  -0.519301  0  2.042279  0  -0.573005  0  -0.221108  -0.499972  0  2.058437  0
