# generated using pymatgen
data_ZnH16C22(SN)6
_symmetry_space_group_name_H-M   'P 1'
_cell_length_a   9.03986431
_cell_length_b   10.25539060
_cell_length_c   10.29642047
_cell_angle_alpha   104.72227479
_cell_angle_beta   96.87157710
_cell_angle_gamma   108.64584926
_symmetry_Int_Tables_number   1
_chemical_formula_structural   ZnH16C22(SN)6
_chemical_formula_sum   'Zn1 H16 C22 S6 N6'
_cell_volume   853.47959006
_cell_formula_units_Z   1
loop_
 _symmetry_equiv_pos_site_id
 _symmetry_equiv_pos_as_xyz
  1  'x, y, z'
loop_
 _atom_site_type_symbol
 _atom_site_label
 _atom_site_symmetry_multiplicity
 _atom_site_fract_x
 _atom_site_fract_y
 _atom_site_fract_z
 _atom_site_occupancy
 _atom_site_hle17_bader_spin_density
 _atom_site_hle17_ddec_charge
 _atom_site_hle17_ddec_spin_density
 _atom_site_hle17_ddec_sum_bond_order
 _atom_site_hle17_magmom
 _atom_site_hse06_10hf_bader_spin_density
 _atom_site_hse06_10hf_ddec_charge
 _atom_site_hse06_10hf_ddec_spin_density
 _atom_site_hse06_10hf_ddec_sum_bond_order
 _atom_site_hse06_10hf_magmom
 _atom_site_hse06_bader_spin_density
 _atom_site_hse06_ddec_charge
 _atom_site_hse06_ddec_spin_density
 _atom_site_hse06_ddec_sum_bond_order
 _atom_site_hse06_magmom
 _atom_site_pbe_bader_spin_density
 _atom_site_pbe_cm5_charge
 _atom_site_pbe_ddec_charge
 _atom_site_pbe_ddec_spin_density
 _atom_site_pbe_ddec_sum_bond_order
 _atom_site_pbe_magmom
Zn  Zn0  1  0.99999922  0.00000060  0.00000043  1  0  0.898013  0  2.031619  0  0  0.69677  0  2.491254  0  0  0.73996  0  2.450432  0  0  0.697974  0.667421  0  2.518528  0
H  H1  1  0.03887984  0.20104081  0.29708236  1  0  0.080039  0  0.945129  0  0  0.087817  0  1.007272  0  0  0.090329  0  1.004632  0  0  0.113487  0.085954  0  1.009225  0
H  H2  1  0.96112608  0.79896362  0.70292236  1  0  0.080023  0  0.94516  0  0  0.087821  0  1.007286  0  0  0.090333  0  1.004646  0  0  0.113472  0.085956  0  1.009241  0
H  H3  1  0.23843094  0.33335289  0.52076303  1  0  0.105344  0  0.973003  0  0  0.11294  0  1.035106  0  0  0.116384  0  1.034452  0  0  0.099413  0.110495  0  1.035686  0
H  H4  1  0.76157429  0.66664718  0.47924145  1  0  0.105369  0  0.972962  0  0  0.112954  0  1.035083  0  0  0.116395  0  1.03443  0  0  0.099422  0.11051  0  1.035662  0
H  H5  1  0.21553802  0.98040039  0.78227565  1  0  0.075378  0  0.950172  0  0  0.085301  0  1.011229  0  0  0.08718  0  1.00941  0  0  0.113538  0.083851  0  1.012615  0
H  H6  1  0.78445900  0.01959872  0.21772582  1  0  0.075358  0  0.950207  0  0  0.085268  0  1.011268  0  0  0.087156  0  1.00944  0  0  0.113533  0.083818  0  1.012654  0
H  H7  1  0.36085104  0.04789589  0.11621368  1  0  0.077255  0  0.98653  0  0  0.081245  0  1.059222  0  0  0.082728  0  1.0584  0  0  0.106073  0.0801  0  1.05988  0
H  H8  1  0.63915196  0.95210424  0.88378768  1  0  0.077261  0  0.986518  0  0  0.081244  0  1.059223  0  0  0.082727  0  1.0584  0  0  0.106044  0.080099  0  1.05988  0
H  H9  1  0.57575710  0.17940688  0.32511712  1  0  0.114432  0  0.93422  0  0  0.127335  0  0.987758  0  0  0.130674  0  0.986568  0  0  0.106471  0.124928  0  0.988783  0
H  H10  1  0.42424302  0.82059439  0.67488328  1  0  0.114373  0  0.934291  0  0  0.127301  0  0.987804  0  0  0.130641  0  0.986613  0  0  0.10643  0.124894  0  0.988828  0
H  H11  1  0.12433337  0.32083511  0.02583349  1  0  0.087795  0  0.944123  0  0  0.095564  0  1.005455  0  0  0.09798  0  1.0033  0  0  0.116071  0.09379  0  1.007029  0
H  H12  1  0.87566074  0.67916516  0.97416412  1  0  0.087819  0  0.944084  0  0  0.095562  0  1.005439  0  0  0.097977  0  1.003286  0  0  0.116079  0.093788  0  1.007013  0
H  H13  1  0.39727488  0.14135095  0.67598449  1  0  0.102903  0  0.972797  0  0  0.110878  0  1.034791  0  0  0.11428  0  1.033863  0  0  0.098115  0.108503  0  1.035513  0
H  H14  1  0.60272233  0.85864600  0.32401450  1  0  0.10291  0  0.972836  0  0  0.110866  0  1.034845  0  0  0.114268  0  1.033917  0  0  0.098102  0.108491  0  1.035568  0
H  H15  1  0.30557284  0.49944173  0.93499010  1  0  0.106225  0  1.011021  0  0  0.11126  0  1.081779  0  0  0.115338  0  1.079998  0  0  0.08675  0.108336  0  1.083184  0
H  H16  1  0.69442081  0.50055748  0.06500427  1  0  0.106231  0  1.011012  0  0  0.111269  0  1.081768  0  0  0.115344  0  1.079989  0  0  0.086756  0.108346  0  1.083173  0
C  C17  1  0.42294644  0.26440652  0.44258073  1  0  0.081699  0  3.808423  0  0  0.095243  0  4.068911  0  0  0.101636  0  4.090311  0  0  -0.002568  0.091032  0  4.054386  0
C  C18  1  0.57705677  0.73559142  0.55742104  1  0  0.081718  0  3.808433  0  0  0.095318  0  4.068849  0  0  0.101711  0  4.090248  0  0  -0.002604  0.091098  0  4.054336  0
C  C19  1  0.78455810  0.19081570  0.04540272  1  0  0.287756  0  4.083034  0  0  0.271768  0  4.384452  0  0  0.295763  0  4.395836  0  0  0.13301  0.255608  0  4.376037  0
C  C20  1  0.21543375  0.80917917  0.95459228  1  0  0.287798  0  4.083099  0  0  0.271806  0  4.384521  0  0  0.295804  0  4.395904  0  0  0.133066  0.255646  0  4.376105  0
C  C21  1  0.15786554  0.19511544  0.30989335  1  0  0.138213  0  3.713729  0  0  0.110681  0  3.963567  0  0  0.118274  0  3.980707  0  0  0.043892  0.105811  0  3.951853  0
C  C22  1  0.84213722  0.80488142  0.69010810  1  0  0.138302  0  3.713608  0  0  0.110749  0  3.963428  0  0  0.118343  0  3.980566  0  0  0.043943  0.105879  0  3.951712  0
C  C23  1  0.26957207  0.27003506  0.43367553  1  0  -0.187719  0  3.779889  0  0  -0.205572  0  4.030502  0  0  -0.214116  0  4.052237  0  0  -0.102062  -0.200078  0  4.015949  0
C  C24  1  0.73043339  0.72996831  0.56632595  1  0  -0.187756  0  3.779971  0  0  -0.20564  0  4.03061  0  0  -0.214183  0  4.052344  0  0  -0.102064  -0.200145  0  4.016059  0
C  C25  1  0.23609490  0.09567730  0.81056553  1  0  0.140044  0  3.710346  0  0  0.110415  0  3.960595  0  0  0.117864  0  3.978393  0  0  0.044557  0.105663  0  3.948488  0
C  C26  1  0.76390322  0.90432180  0.18943605  1  0  0.140105  0  3.710323  0  0  0.110512  0  3.960547  0  0  0.117954  0  3.97834  0  0  0.044584  0.10576  0  3.948441  0
C  C27  1  0.33633587  0.11073072  0.20768459  1  0  0.145279  0  3.702879  0  0  0.114288  0  3.955672  0  0  0.122328  0  3.973313  0  0  0.045533  0.109074  0  3.943745  0
C  C28  1  0.66366867  0.88926501  0.79231868  1  0  0.145259  0  3.703034  0  0  0.114247  0  3.955831  0  0  0.122287  0  3.973472  0  0  0.045569  0.109033  0  3.943899  0
C  C29  1  0.45697177  0.18378999  0.32616993  1  0  -0.173167  0  3.733822  0  0  -0.191093  0  3.984244  0  0  -0.199173  0  4.003968  0  0  -0.0947  -0.185945  0  3.971134  0
C  C30  1  0.54303306  0.81621994  0.67383030  1  0  -0.173151  0  3.733771  0  0  -0.19111  0  3.984166  0  0  -0.199189  0  4.003891  0  0  -0.094659  -0.185957  0  3.971056  0
C  C31  1  0.18783610  0.28615884  0.94830110  1  0  0.138862  0  3.699062  0  0  0.108213  0  3.949451  0  0  0.115684  0  3.96703  0  0  0.045286  0.103402  0  3.937461  0
C  C32  1  0.81216135  0.71384138  0.05169682  1  0  0.138829  0  3.699046  0  0  0.108206  0  3.949443  0  0  0.115677  0  3.96702  0  0  0.045257  0.103396  0  3.937453  0
C  C33  1  0.33787926  0.18564813  0.75210340  1  0  -0.173376  0  3.770638  0  0  -0.189798  0  4.018187  0  0  -0.197641  0  4.039013  0  0  -0.098013  -0.184807  0  4.004242  0
C  C34  1  0.66211683  0.81434884  0.24789451  1  0  -0.173368  0  3.770652  0  0  -0.189784  0  4.018197  0  0  -0.197629  0  4.039026  0  0  -0.097982  -0.184795  0  4.004254  0
C  C35  1  0.28880981  0.38490891  0.89733515  1  0  -0.170266  0  3.719753  0  0  -0.183327  0  3.961937  0  0  -0.191864  0  3.982439  0  0  -0.096822  -0.17784  0  3.948284  0
C  C36  1  0.71118451  0.61508919  0.10266094  1  0  -0.170259  0  3.719697  0  0  -0.183325  0  3.961886  0  0  -0.191861  0  3.982389  0  0  -0.09681  -0.17784  0  3.948233  0
C  C37  1  0.36536791  0.33357425  0.79631273  1  0  0.087452  0  3.770251  0  0  0.103165  0  4.024737  0  0  0.109334  0  4.045678  0  0  0.002667  0.099104  0  4.01057  0
C  C38  1  0.63462909  0.66642489  0.20368583  1  0  0.087427  0  3.770271  0  0  0.103148  0  4.024754  0  0  0.109316  0  4.045696  0  0  0.00265  0.099087  0  4.010588  0
S  S39  1  0.57904522  0.35087200  0.59200133  1  0  0.008793  0  2.405199  0  0  0.006297  0  2.739297  0  0  0.004004  0  2.73815  0  0  0.045438  0.008111  0  2.739925  0
S  S40  1  0.42096179  0.64912695  0.40800497  1  0  0.008769  0  2.405329  0  0  0.006255  0  2.73941  0  0  0.003962  0  2.738264  0  0  0.045432  0.008073  0  2.740042  0
S  S41  1  0.62914735  0.23362372  0.01927978  1  0  -0.366165  0  2.073197  0  0  -0.35443  0  2.361482  0  0  -0.370348  0  2.358238  0  0  -0.179814  -0.342983  0  2.363245  0
S  S42  1  0.37084450  0.76637116  0.98071328  1  0  -0.366133  0  2.073157  0  0  -0.354399  0  2.36145  0  0  -0.370319  0  2.358206  0  0  -0.179813  -0.342952  0  2.363212  0
S  S43  1  0.48946430  0.46416483  0.73272517  1  0  0.045333  0  2.45808  0  0  0.040883  0  2.816546  0  0  0.037893  0  2.817362  0  0  0.065556  0.043074  0  2.815912  0
S  S44  1  0.51053780  0.53583313  0.26727553  1  0  0.045356  0  2.458044  0  0  0.04091  0  2.816487  0  0  0.037924  0  2.817303  0  0  0.065564  0.043103  0  2.815856  0
N  N45  1  0.89639352  0.15477640  0.06298285  1  0  -0.579383  0  2.984672  0  0  -0.522777  0  3.274306  0  0  -0.544302  0  3.276961  0  0  -0.406772  -0.508003  0  3.272084  0
N  N46  1  0.10360060  0.84522385  0.93701670  1  0  -0.579478  0  2.984827  0  0  -0.522871  0  3.274473  0  0  -0.544398  0  3.277127  0  0  -0.406823  -0.508097  0  3.272252  0
N  N47  1  0.18839986  0.11495595  0.19849748  1  0  -0.310996  0  3.226528  0  0  -0.239428  0  3.488458  0  0  -0.257053  0  3.506227  0  0  -0.315669  -0.227631  0  3.476268  0
N  N48  1  0.81160604  0.88504852  0.80150239  1  0  -0.311022  0  3.226388  0  0  -0.239394  0  3.48825  0  0  -0.25702  0  3.50602  0  0  -0.315696  -0.227597  0  3.476057  0
N  N49  1  0.16053417  0.14349057  0.90615365  1  0  -0.310719  0  3.255536  0  0  -0.235244  0  3.517912  0  0  -0.253147  0  3.535939  0  0  -0.318423  -0.223252  0  3.505525  0
N  N50  1  0.83946173  0.85650857  0.09384578  1  0  -0.310768  0  3.25558  0  0  -0.235306  0  3.517948  0  0  -0.253207  0  3.535977  0  0  -0.31844  -0.223313  0  3.50556  0
