# generated using pymatgen
data_Mn2H10C8O13
_symmetry_space_group_name_H-M   'P 1'
_cell_length_a   7.53455432
_cell_length_b   8.86759102
_cell_length_c   10.82041222
_cell_angle_alpha   89.98267483
_cell_angle_beta   89.98676383
_cell_angle_gamma   95.75687843
_symmetry_Int_Tables_number   1
_chemical_formula_structural   Mn2H10C8O13
_chemical_formula_sum   'Mn4 H20 C16 O26'
_cell_volume   719.30169023
_cell_formula_units_Z   2
loop_
 _symmetry_equiv_pos_site_id
 _symmetry_equiv_pos_as_xyz
  1  'x, y, z'
loop_
 _atom_site_type_symbol
 _atom_site_label
 _atom_site_symmetry_multiplicity
 _atom_site_fract_x
 _atom_site_fract_y
 _atom_site_fract_z
 _atom_site_occupancy
 _atom_site_hle17_ddec_charge
 _atom_site_hle17_ddec_spin_density
 _atom_site_hle17_ddec_sum_bond_order
 _atom_site_hle17_magmom
 _atom_site_hse06_10hf_ddec_charge
 _atom_site_hse06_10hf_ddec_spin_density
 _atom_site_hse06_10hf_ddec_sum_bond_order
 _atom_site_hse06_10hf_magmom
 _atom_site_hse06_ddec_charge
 _atom_site_hse06_ddec_spin_density
 _atom_site_hse06_ddec_sum_bond_order
 _atom_site_hse06_magmom
 _atom_site_pbe_cm5_charge
 _atom_site_pbe_ddec_charge
 _atom_site_pbe_ddec_spin_density
 _atom_site_pbe_ddec_sum_bond_order
 _atom_site_pbe_magmom
Mn  Mn0  1  0.17041636  0.26449687  0.80688698  1  1.213265  -4.799224  1.721818  -4.68  1.049844  -4.725322  2.219555  -4.545  1.110244  -4.76949  2.145178  -4.604  0.594264  1.001561  -4.680465  2.275227  -4.489
Mn  Mn1  1  0.82986841  0.73529688  0.30684544  1  1.212691  4.809044  1.719253  4.681  1.049037  4.738643  2.216357  4.547  1.109512  4.778191  2.14208  4.605  0.593958  1.000914  4.699607  2.271556  4.493
Mn  Mn2  1  0.27437114  0.26357976  0.29706649  1  1.222022  4.801417  1.649892  4.689  1.057328  4.734798  2.135523  4.558  1.119455  4.773265  2.062108  4.615  0.598685  1.00804  4.696137  2.189351  4.504
Mn  Mn3  1  0.72547492  0.73635288  0.79709091  1  1.221782  4.800846  1.653597  4.689  1.056871  4.733064  2.140129  4.557  1.11913  4.772491  2.0665  4.614  0.598359  1.007372  4.692404  2.194341  4.5
H  H4  1  0.41889387  0.05166549  0.74376302  1  0.398848  -2.9e-05  0.843482  0.0  0.372569  -0.000466  0.917209  -0.001  0.384291  -0.000364  0.903484  -0.001  0.316469  0.364204  -0.000611  0.926934  -0.001
H  H5  1  0.58077934  0.94770225  0.24385786  1  0.398752  -0.000232  0.843433  0.001  0.372385  0.000443  0.917169  0.001  0.384087  8.6e-05  0.90345  0.001  0.316446  0.364058  0.000809  0.926833  0.002
H  H6  1  0.12586800  0.22169410  0.53597544  1  0.389504  0.000181  0.864108  0.001  0.364215  0.000596  0.937038  0.001  0.373498  0.000452  0.926459  0.001  0.317878  0.357486  0.000731  0.944625  0.001
H  H7  1  0.87432264  0.77851310  0.03604559  1  0.389612  -0.000176  0.864273  0.0  0.364495  0.000534  0.937113  0.001  0.373739  0.000207  0.926554  0.001  0.317869  0.357779  0.000846  0.944739  0.001
H  H8  1  0.99226239  0.44493260  0.67739975  1  0.392446  -0.000363  0.871677  0.0  0.36717  -0.000834  0.941211  0.0  0.37885  -0.000727  0.928095  0.0  0.311778  0.358894  -0.00101  0.950416  0.0
H  H9  1  0.00808379  0.55537247  0.17738313  1  0.392215  -0.000131  0.871662  0.0  0.367019  0.0006  0.940998  0.001  0.378722  0.000273  0.92786  0.001  0.311799  0.35868  0.000886  0.950303  0.001
H  H10  1  0.50036107  0.46247398  0.40626659  1  0.381942  -0.000487  0.902339  0.0  0.357659  0.000103  0.971279  0.001  0.36896  -0.00017  0.958968  0.001  0.306663  0.349555  0.000373  0.979998  0.001
H  H11  1  0.49993068  0.53663925  0.90620420  1  0.381774  0.00056  0.90264  0.0  0.358006  0.001075  0.970888  0.0  0.369319  0.000929  0.958559  0.0  0.306776  0.349881  0.001213  0.979618  0.0
H  H12  1  0.27301307  0.87485928  0.64508020  1  0.092963  -0.000227  0.92907  0.0  0.097404  -0.000387  0.995841  0.0  0.10004  -0.000348  0.993898  0.0  0.125025  0.095044  -0.000403  0.997994  0.0
H  H13  1  0.72579742  0.12486170  0.14500016  1  0.093373  -0.000139  0.929144  0.0  0.09731  0.00028  0.996469  0.001  0.099944  6.1e-05  0.994525  0.001  0.124907  0.094974  0.000513  0.998582  0.001
H  H14  1  0.09811095  0.92059065  0.46218961  1  0.093511  -0.000616  0.940155  0.0  0.098848  -0.000592  1.00815  0.0  0.101036  -0.000669  1.007025  0.0  0.126097  0.097278  -0.00051  1.009168  0.0
H  H15  1  0.90145600  0.07950337  0.96218905  1  0.09352  0.000384  0.939408  0.0  0.098558  0.000557  1.00777  0.0  0.100736  0.000471  1.00665  0.0  0.125929  0.097041  0.000643  1.008742  0.0
H  H16  1  0.15146344  0.63824724  0.62418462  1  0.092873  -0.000279  0.920067  0.0  0.095202  -0.000306  0.991478  0.0  0.09794  -0.000358  0.98898  0.0  0.127089  0.093132  -0.000186  0.993645  0.001
H  H17  1  0.84924903  0.36195483  0.12434536  1  0.09364  -0.000198  0.919524  0.0  0.095298  0.000165  0.991625  0.0  0.098071  -2e-05  0.989168  0.0  0.127135  0.093215  0.000314  0.993735  0.001
H  H18  1  0.37550700  0.64873025  0.47040344  1  0.106359  -0.000307  0.962722  0.0  0.110227  -6.8e-05  1.02955  0.0  0.11313  -0.000203  1.027702  0.0  0.128866  0.108174  -7.1e-05  1.031056  0.0
H  H19  1  0.62574067  0.35090834  0.97048653  1  0.10638  7.6e-05  0.96357  0.0  0.110181  0.000154  1.029964  0.0  0.113099  7.8e-05  1.02808  0.0  0.128437  0.108095  0.000142  1.031523  0.0
H  H20  1  0.17825385  0.16118129  0.04520266  1  0.427434  -0.000782  0.874857  -0.002  0.399492  -0.000947  0.933751  -0.003  0.409532  -0.000773  0.919082  -0.003  0.302674  0.392372  -0.001069  0.944135  -0.003
H  H21  1  0.82133843  0.83902256  0.54506264  1  0.427985  0.000337  0.874378  0.002  0.399724  0.001552  0.93365  0.003  0.409766  0.001057  0.918989  0.003  0.302729  0.392599  0.001993  0.944049  0.003
H  H22  1  0.36115964  0.13119569  0.96928981  1  0.433826  -0.000529  0.878203  -0.001  0.400212  -0.001448  0.945244  -0.002  0.411905  -0.001109  0.928436  -0.002  0.295388  0.391916  -0.001722  0.957112  -0.003
H  H23  1  0.63850677  0.86862994  0.46903659  1  0.43362  0.000472  0.878476  0.001  0.399909  0.001503  0.945553  0.002  0.411612  0.001107  0.928739  0.002  0.295275  0.391608  0.001861  0.957429  0.003
C  C24  1  0.02862954  0.97004781  0.69475683  1  0.672985  -0.000418  3.803192  0.0  0.615658  -0.001015  4.106865  -0.001  0.650715  -0.000842  4.099565  -0.001  0.232547  0.590851  -0.000947  4.111319  -0.001
C  C25  1  0.97067605  0.03055268  0.19473088  1  0.671651  0.007873  3.804336  0.008  0.615193  0.01511  4.107167  0.014  0.650201  0.011137  4.099729  0.011  0.232321  0.590573  0.01918  4.111569  0.017
C  C26  1  0.21473230  0.98279843  0.63589249  1  0.045362  0.000385  3.618216  0.0  0.01536  -0.000184  3.876184  0.0  0.017059  -9.5e-05  3.882281  0.0  -0.000326  0.014187  -0.000393  3.872499  0.0
C  C27  1  0.78456543  0.01713372  0.13587058  1  0.044905  0.001702  3.619637  0.002  0.014953  0.003369  3.877316  0.003  0.016628  0.002236  3.883395  0.002  -0.000542  0.013772  0.004536  3.873598  0.004
C  C28  1  0.19549495  0.01139558  0.49691152  1  0.060377  0.000861  3.607232  0.001  0.031121  0.001914  3.863607  0.002  0.032166  0.001364  3.871251  0.001  0.000916  0.030012  0.002445  3.858501  0.002
C  C29  1  0.80404860  0.98863698  0.99690535  1  0.06082  0.000868  3.605943  0.001  0.032173  0.00231  3.861901  0.002  0.033236  0.001578  3.869572  0.001  0.001412  0.031034  0.003071  3.856782  0.002
C  C30  1  0.36692005  0.98726937  0.42655978  1  0.662622  0.002251  3.844017  0.002  0.606142  0.005428  4.151342  0.005  0.640184  0.003896  4.14416  0.004  0.22531  0.5827  0.006603  4.155006  0.006
C  C31  1  0.63270253  0.01272408  0.92646671  1  0.662816  0.002  3.843035  0.002  0.605981  0.005019  4.150642  0.005  0.640032  0.00366  4.143431  0.004  0.225383  0.58252  0.005873  4.154321  0.005
C  C32  1  0.37576638  0.54761981  0.70485341  1  0.674597  0.001199  3.796111  0.001  0.616623  0.001797  4.10064  0.001  0.651638  0.00156  4.094041  0.001  0.237185  0.592018  0.001922  4.104167  0.001
C  C33  1  0.62467488  0.45206381  0.20500877  1  0.675734  0.005346  3.793628  0.007  0.617001  0.011806  4.099238  0.012  0.651951  0.008592  4.092708  0.01  0.237619  0.59247  0.015015  4.102768  0.014
C  C34  1  0.22198798  0.53623771  0.61137147  1  0.065643  0.000822  3.598062  0.001  0.037472  0.000274  3.853719  0.0  0.0392  0.000203  3.860111  0.0  0.003306  0.035979  0.000478  3.849841  0.001
C  C35  1  0.77847198  0.46382524  0.11149132  1  0.064639  0.001937  3.597751  0.002  0.036904  0.00331  3.852535  0.003  0.038434  0.002258  3.859266  0.002  0.002981  0.035557  0.004377  3.848411  0.004
C  C36  1  0.29086271  0.54046548  0.47907294  1  0.040653  0.002223  3.642211  0.002  0.012012  0.003437  3.898223  0.003  0.012417  0.00251  3.90614  0.002  -0.007949  0.01122  0.004445  3.893402  0.003
C  C37  1  0.70979860  0.45945971  0.97919531  1  0.039639  -0.000462  3.642811  0.0  0.012718  0.001123  3.896266  0.001  0.013127  0.000669  3.904258  0.001  -0.007417  0.011935  0.001414  3.891441  0.001
C  C38  1  0.14103250  0.55252948  0.38550368  1  0.668159  0.005762  3.818892  0.006  0.611295  0.011965  4.123954  0.011  0.646305  0.008906  4.117301  0.009  0.230754  0.586894  0.015696  4.127771  0.014
C  C39  1  0.85984045  0.44793134  0.88567179  1  0.668928  -0.002713  3.81855  -0.003  0.610163  -0.003847  4.125439  -0.004  0.645267  -0.003266  4.118722  -0.003  0.23011  0.585513  -0.003391  4.129415  -0.003
O  O40  1  0.93530346  0.84139701  0.68355176  1  -0.665153  0.028873  2.054318  0.014  -0.59371  0.033809  2.319815  0.014  -0.624132  0.031051  2.30237  0.012  -0.308809  -0.571416  0.036144  2.331114  0.016
O  O41  1  0.06333693  0.15954823  0.18351167  1  -0.664462  0.034251  2.052287  0.02  -0.59388  0.042924  2.317485  0.023  -0.624284  0.038081  2.300146  0.02  -0.308577  -0.571639  0.047573  2.328628  0.027
O  O42  1  0.97698976  0.08621308  0.74467759  1  -0.603074  -0.027039  2.028211  -0.016  -0.539153  -0.02923  2.279192  -0.015  -0.568993  -0.026918  2.267224  -0.013  -0.289587  -0.517183  -0.031649  2.286658  -0.018
O  O43  1  0.02293406  0.91462413  0.24465189  1  -0.602953  0.030863  2.026693  0.021  -0.538962  0.036905  2.27677  0.025  -0.568686  0.032605  2.264772  0.021  -0.289629  -0.517083  0.041386  2.284101  0.029
O  O44  1  0.33066960  0.10120792  0.69385725  1  -0.552194  -0.022495  2.083829  -0.013  -0.495045  -0.031293  2.322245  -0.019  -0.513403  -0.028316  2.304359  -0.017  -0.371951  -0.481153  -0.033859  2.334653  -0.021
O  O45  1  0.66904200  0.89838870  0.19382747  1  -0.552218  0.023449  2.083809  0.014  -0.494667  0.032979  2.322111  0.021  -0.513099  0.029367  2.304355  0.018  -0.371764  -0.48081  0.036178  2.334453  0.024
O  O46  1  0.12882383  0.15246810  0.46509462  1  -0.550067  0.023807  2.122381  0.015  -0.494213  0.031489  2.363914  0.021  -0.51285  0.028102  2.350078  0.018  -0.373244  -0.479635  0.034476  2.372812  0.023
O  O47  1  0.87071918  0.84758897  0.96508789  1  -0.55023  0.023923  2.122264  0.015  -0.494924  0.031768  2.363856  0.021  -0.513531  0.028319  2.350003  0.018  -0.373211  -0.480394  0.034854  2.372863  0.024
O  O48  1  0.42104066  0.07634440  0.33852014  1  -0.640395  0.032783  2.006007  0.023  -0.574255  0.037435  2.260236  0.024  -0.605445  0.033514  2.244916  0.02  -0.30485  -0.550911  0.041825  2.269792  0.028
O  O49  1  0.57858213  0.92351921  0.83858423  1  -0.640615  0.03285  2.005847  0.022  -0.574274  0.037135  2.260191  0.023  -0.6055  0.033453  2.244859  0.02  -0.304852  -0.550858  0.041058  2.269777  0.027
O  O50  1  0.43921353  0.87129014  0.45790180  1  -0.609753  0.002388  2.056354  0.003  -0.55246  0.004146  2.284502  0.005  -0.578103  0.002916  2.274185  0.004  -0.303459  -0.534346  0.005608  2.291024  0.006
O  O51  1  0.56045888  0.12879828  0.95756961  1  -0.609625  0.002698  2.056279  0.003  -0.552177  0.004114  2.284494  0.005  -0.577791  0.0031  2.274127  0.004  -0.30335  -0.534033  0.005298  2.291028  0.006
O  O52  1  0.50174199  0.64978551  0.68694515  1  -0.611061  0.028931  2.022644  0.016  -0.549603  0.034044  2.288489  0.017  -0.579156  0.030797  2.272668  0.014  -0.293653  -0.527691  0.037127  2.298944  0.019
O  O53  1  0.49875653  0.34991307  0.18690916  1  -0.611433  0.034393  2.021344  0.022  -0.549644  0.043119  2.287162  0.027  -0.579128  0.037857  2.271432  0.022  -0.29366  -0.527918  0.048458  2.297624  0.031
O  O54  1  0.36229871  0.45784598  0.79828348  1  -0.641681  -0.030712  2.056168  -0.016  -0.568503  -0.035283  2.308703  -0.016  -0.599754  -0.032606  2.292645  -0.014  -0.29542  -0.545377  -0.037707  2.319331  -0.018
O  O55  1  0.63811733  0.54139930  0.29867145  1  -0.641882  0.032422  2.053034  0.019  -0.568584  0.039858  2.305922  0.022  -0.599722  0.035669  2.289881  0.019  -0.295861  -0.54562  0.044072  2.316547  0.026
O  O56  1  0.09636129  0.40545191  0.63415367  1  -0.570845  -0.02271  2.116436  -0.013  -0.509453  -0.031013  2.347701  -0.019  -0.52895  -0.028287  2.331512  -0.017  -0.368443  -0.494723  -0.033419  2.358897  -0.021
O  O57  1  0.90382601  0.59479225  0.13428964  1  -0.570607  0.023877  2.116705  0.015  -0.508832  0.033109  2.347312  0.022  -0.528285  0.029619  2.331163  0.019  -0.368318  -0.494159  0.036242  2.358564  0.025
O  O58  1  0.39325317  0.41670262  0.45326600  1  -0.560822  0.026142  2.117792  0.019  -0.506567  0.033947  2.353676  0.025  -0.526541  0.029916  2.339561  0.021  -0.382399  -0.491371  0.037767  2.363092  0.028
O  O59  1  0.60672349  0.58275364  0.95325571  1  -0.560526  0.024052  2.118071  0.016  -0.506998  0.03109  2.352723  0.022  -0.527014  0.027748  2.338565  0.019  -0.382338  -0.491724  0.034228  2.362191  0.025
O  O60  1  0.13728031  0.47145819  0.28736249  1  -0.639285  0.027976  2.014196  0.018  -0.56931  0.035441  2.258899  0.022  -0.600166  0.03168  2.244716  0.019  -0.293448  -0.546739  0.039264  2.267721  0.026
O  O61  1  0.86306584  0.52888685  0.78743604  1  -0.63881  0.02567  2.014008  0.015  -0.568406  0.029769  2.25964  0.015  -0.599254  0.027696  2.24536  0.014  -0.293254  -0.545784  0.031635  2.268559  0.017
O  O62  1  0.03408475  0.64924890  0.40970164  1  -0.624621  0.03706  2.064024  0.026  -0.560261  0.044472  2.335416  0.029  -0.591145  0.03931  2.32088  0.025  -0.302867  -0.537865  0.049724  2.345021  0.034
O  O63  1  0.96730909  0.35162344  0.90987855  1  -0.625888  -0.03285  2.065559  -0.02  -0.56051  -0.03713  2.337249  -0.021  -0.591445  -0.033867  2.322615  -0.018  -0.302714  -0.538003  -0.040472  2.347074  -0.024
O  O64  1  0.22910922  0.14355950  0.96302909  1  -0.865789  -0.040406  1.900231  -0.027  -0.802759  -0.048268  2.115796  -0.03  -0.829482  -0.043249  2.078416  -0.025  -0.584127  -0.782395  -0.052807  2.141822  -0.034
O  O65  1  0.77052474  0.85609554  0.46278302  1  -0.865878  0.040564  1.899936  0.027  -0.80258  0.049144  2.116595  0.03  -0.829318  0.043636  2.079227  0.026  -0.58432  -0.782275  0.054242  2.14254  0.035
