# generated using pymatgen
data_CdH34C32(NO)4
_symmetry_space_group_name_H-M   'P 1'
_cell_length_a   10.14029310
_cell_length_b   12.11372240
_cell_length_c   13.28705965
_cell_angle_alpha   105.49386547
_cell_angle_beta   98.27701830
_cell_angle_gamma   108.09424958
_symmetry_Int_Tables_number   1
_chemical_formula_structural   CdH34C32(NO)4
_chemical_formula_sum   'Cd2 H68 C64 N8 O8'
_cell_volume   1448.44007554
_cell_formula_units_Z   2
loop_
 _symmetry_equiv_pos_site_id
 _symmetry_equiv_pos_as_xyz
  1  'x, y, z'
loop_
 _atom_site_type_symbol
 _atom_site_label
 _atom_site_symmetry_multiplicity
 _atom_site_fract_x
 _atom_site_fract_y
 _atom_site_fract_z
 _atom_site_occupancy
 _atom_site_hle17_bader_spin_density
 _atom_site_hle17_ddec_charge
 _atom_site_hle17_ddec_spin_density
 _atom_site_hle17_ddec_sum_bond_order
 _atom_site_hle17_magmom
 _atom_site_hse06_10hf_bader_spin_density
 _atom_site_hse06_10hf_ddec_charge
 _atom_site_hse06_10hf_ddec_spin_density
 _atom_site_hse06_10hf_ddec_sum_bond_order
 _atom_site_hse06_10hf_magmom
 _atom_site_hse06_bader_spin_density
 _atom_site_hse06_ddec_charge
 _atom_site_hse06_ddec_spin_density
 _atom_site_hse06_ddec_sum_bond_order
 _atom_site_hse06_magmom
 _atom_site_pbe_bader_spin_density
 _atom_site_pbe_cm5_charge
 _atom_site_pbe_ddec_charge
 _atom_site_pbe_ddec_spin_density
 _atom_site_pbe_ddec_sum_bond_order
 _atom_site_pbe_magmom
Cd  Cd0  1  0.24093979  0.47332911  0.73981227  1  0  1.086641  0  1.695747  0  0  0.894398  0  2.144289  0  0  0.952754  0  2.093443  0  0  0.766947  0.853431  0  2.178487  0
Cd  Cd1  1  0.75906110  0.52667196  0.26018742  1  0  1.08666  0  1.695764  0  0  0.894428  0  2.144313  0  0  0.952784  0  2.093465  0  0  0.766965  0.85346  0  2.178508  0
H  H2  1  0.21519104  0.86180589  0.88243111  1  0  0.063778  0  0.935149  0  0  0.083065  0  0.99519  0  0  0.083391  0  0.996535  0  0  0.087429  0.082718  0  0.994416  0
H  H3  1  0.78480646  0.13819426  0.11757024  1  0  0.063761  0  0.935195  0  0  0.083052  0  0.995212  0  0  0.083378  0  0.996555  0  0  0.087411  0.08271  0  0.994432  0
H  H4  1  0.38247944  0.85516904  0.86906943  1  0  0.07354  0  0.951978  0  0  0.092444  0  1.011478  0  0  0.092963  0  1.012783  0  0  0.089768  0.092033  0  1.010605  0
H  H5  1  0.61751867  0.14483018  0.13093176  1  0  0.073554  0  0.951975  0  0  0.092443  0  1.011482  0  0  0.092961  0  1.012787  0  0  0.089768  0.092029  0  1.010615  0
H  H6  1  0.30246356  0.07407088  0.84821946  1  0  0.053751  0  0.949148  0  0  0.075213  0  1.007057  0  0  0.075473  0  1.00809  0  0  0.08514  0.074964  0  1.006366  0
H  H7  1  0.69753733  0.92593019  0.15178098  1  0  0.053733  0  0.949171  0  0  0.0752  0  1.007079  0  0  0.075459  0  1.008112  0  0  0.085137  0.074951  0  1.006388  0
H  H8  1  0.37556760  0.06988468  0.97413385  1  0  0.06029  0  0.954557  0  0  0.076892  0  1.022301  0  0  0.077398  0  1.022815  0  0  0.086358  0.076364  0  1.022215  0
H  H9  1  0.62443289  0.93011546  0.02586707  1  0  0.060294  0  0.954563  0  0  0.076896  0  1.02231  0  0  0.077402  0  1.022823  0  0  0.086365  0.076369  0  1.022222  0
H  H10  1  0.52505609  0.04890145  0.78873110  1  0  0.061807  0  0.947106  0  0  0.080183  0  1.009987  0  0  0.081015  0  1.010088  0  0  0.088993  0.079538  0  1.009974  0
H  H11  1  0.47494262  0.95109685  0.21126992  1  0  0.061814  0  0.947114  0  0  0.080202  0  1.009982  0  0  0.081036  0  1.010081  0  0  0.089024  0.079558  0  1.009969  0
H  H12  1  0.59345385  0.05477008  0.92076840  1  0  0.067796  0  0.943584  0  0  0.08873  0  1.004214  0  0  0.08883  0  1.005413  0  0  0.0927  0.0886  0  1.003393  0
H  H13  1  0.40654665  0.94523006  0.07923177  1  0  0.067792  0  0.943597  0  0  0.088732  0  1.004228  0  0  0.088833  0  1.005429  0  0  0.092688  0.088606  0  1.003398  0
H  H14  1  0.57084327  0.26485347  0.99201268  1  0  0.100617  0  0.946245  0  0  0.116999  0  1.006851  0  0  0.118566  0  1.00594  0  0  0.118237  0.11577  0  1.007636  0
H  H15  1  0.42915683  0.73514576  0.00798647  1  0  0.10062  0  0.946233  0  0  0.11698  0  1.006866  0  0  0.118548  0  1.005956  0  0  0.118237  0.115758  0  1.007642  0
H  H16  1  0.70103833  0.26031527  0.91679870  1  0  0.069594  0  0.913525  0  0  0.088151  0  0.972532  0  0  0.088581  0  0.97217  0  0  0.109832  0.087642  0  0.973048  0
H  H17  1  0.29896177  0.73968395  0.08320121  1  0  0.069601  0  0.913513  0  0  0.088155  0  0.972526  0  0  0.088585  0  0.972165  0  0  0.109847  0.08765  0  0.973041  0
H  H18  1  0.70065579  0.18004329  0.71726632  1  0  0.097653  0  0.974746  0  0  0.106625  0  1.039383  0  0  0.109033  0  1.039183  0  0  0.099208  0.104815  0  1.039705  0
H  H19  1  0.29934431  0.81995594  0.28273208  1  0  0.097687  0  0.974722  0  0  0.106614  0  1.039405  0  0  0.109023  0  1.039203  0  0  0.099213  0.104812  0  1.039723  0
H  H20  1  0.71698490  0.21176488  0.54221295  1  0  0.085057  0  0.980961  0  0  0.09348  0  1.044789  0  0  0.095814  0  1.045038  0  0  0.093451  0.09184  0  1.044722  0
H  H21  1  0.28301460  0.78823527  0.45778560  1  0  0.085057  0  0.980978  0  0  0.093465  0  1.044824  0  0  0.0958  0  1.045072  0  0  0.093443  0.091828  0  1.044757  0
H  H22  1  0.58226178  0.32395624  0.46830920  1  0  0.099607  0  0.99912  0  0  0.107324  0  1.062693  0  0  0.110972  0  1.060765  0  0  0.09441  0.104646  0  1.064155  0
H  H23  1  0.41773872  0.67604390  0.53169022  1  0  0.099606  0  0.999125  0  0  0.10732  0  1.062698  0  0  0.110967  0  1.06077  0  0  0.094415  0.104641  0  1.064155  0
H  H24  1  0.41971378  0.40240972  0.56529587  1  0  0.111658  0  0.960224  0  0  0.122479  0  1.020092  0  0  0.125494  0  1.018705  0  0  0.103278  0.120225  0  1.021298  0
H  H25  1  0.58028671  0.59759042  0.43470430  1  0  0.111636  0  0.960217  0  0  0.122462  0  1.020082  0  0  0.125476  0  1.018695  0  0  0.103263  0.120206  0  1.021285  0
H  H26  1  0.30749518  0.41692401  0.94840690  1  0  0.144892  0  0.944552  0  0  0.166125  0  1.000141  0  0  0.168262  0  0.999295  0  0  0.103558  0.164527  0  1.000852  0
H  H27  1  0.69250670  0.58307706  0.05159290  1  0  0.144933  0  0.94456  0  0  0.166156  0  1.000142  0  0  0.168293  0  0.999296  0  0  0.103575  0.164553  0  1.000857  0
H  H28  1  0.44787208  0.38884358  0.02450011  1  0  0.147347  0  0.955752  0  0  0.164345  0  1.018719  0  0  0.16685  0  1.01812  0  0  0.10213  0.162537  0  1.019221  0
H  H29  1  0.55212941  0.61115656  0.97549942  1  0  0.147352  0  0.95574  0  0  0.164359  0  1.018686  0  0  0.166866  0  1.018081  0  0  0.102117  0.162549  0  1.019193  0
H  H30  1  0.28815967  0.26684921  0.94878310  1  0  0.129984  0  0.969  0  0  0.148669  0  1.033448  0  0  0.150013  0  1.03495  0  0  0.097813  0.147718  0  1.032426  0
H  H31  1  0.71184281  0.73315093  0.05121729  1  0  0.130013  0  0.968975  0  0  0.148694  0  1.033416  0  0  0.150039  0  1.034917  0  0  0.097826  0.147744  0  1.032389  0
H  H32  1  0.32137690  0.88422799  0.68123729  1  0  0.062504  0  0.935688  0  0  0.083951  0  0.993292  0  0  0.084533  0  0.993815  0  0  0.088645  0.083529  0  0.99293  0
H  H33  1  0.67862081  0.11577032  0.31876363  1  0  0.062518  0  0.935597  0  0  0.083965  0  0.993205  0  0  0.084547  0  0.993727  0  0  0.088656  0.083541  0  0.992849  0
H  H34  1  0.22758068  0.74135307  0.69489660  1  0  0.085652  0  0.941795  0  0  0.10236  0  1.003755  0  0  0.103402  0  1.004003  0  0  0.09529  0.101527  0  1.003727  0
H  H35  1  0.77241782  0.25864707  0.30510411  1  0  0.085654  0  0.941765  0  0  0.102383  0  1.003704  0  0  0.103425  0  1.003952  0  0  0.095297  0.101547  0  1.003682  0
H  H36  1  0.11109546  0.95080070  0.71845714  1  0  0.063069  0  0.937647  0  0  0.078196  0  1.004186  0  0  0.078726  0  1.004151  0  0  0.105696  0.077767  0  1.004223  0
H  H37  1  0.88890186  0.04919668  0.28154351  1  0  0.063011  0  0.937658  0  0  0.07816  0  1.004205  0  0  0.07869  0  1.004171  0  0  0.10568  0.077727  0  1.004245  0
H  H38  1  0.02164277  0.80200454  0.72295104  1  0  0.080501  0  0.923276  0  0  0.097386  0  0.98501  0  0  0.097327  0  0.986477  0  0  0.114832  0.09726  0  0.98419  0
H  H39  1  0.97835455  0.19799285  0.27704810  1  0  0.080545  0  0.923231  0  0  0.097449  0  0.984972  0  0  0.09739  0  0.98644  0  0  0.114858  0.097318  0  0.984147  0
H  H40  1  0.24545655  0.05689041  0.60392634  1  0  0.105888  0  0.948363  0  0  0.116293  0  1.008505  0  0  0.119145  0  1.007834  0  0  0.10386  0.114318  0  1.00896  0
H  H41  1  0.75454195  0.94310974  0.39607512  1  0  0.105923  0  0.948347  0  0  0.11633  0  1.008481  0  0  0.119182  0  1.007811  0  0  0.103869  0.114353  0  1.00894  0
H  H42  1  0.27309527  0.12526566  0.44578423  1  0  0.082805  0  0.974603  0  0  0.091807  0  1.040733  0  0  0.093662  0  1.041278  0  0  0.093202  0.090521  0  1.040332  0
H  H43  1  0.72690562  0.87473540  0.55421847  1  0  0.082819  0  0.974573  0  0  0.091823  0  1.040701  0  0  0.093677  0  1.041247  0  0  0.093208  0.090533  0  1.0403  0
H  H44  1  0.13140262  0.98937615  0.26114491  1  0  0.078296  0  0.963342  0  0  0.090941  0  1.023136  0  0  0.093239  0  1.022652  0  0  0.092568  0.089295  0  1.023509  0
H  H45  1  0.86860125  0.01062490  0.73885585  1  0  0.078289  0  0.963311  0  0  0.090939  0  1.023105  0  0  0.093233  0  1.022626  0  0  0.092565  0.08929  0  1.023482  0
H  H46  1  0.95890444  0.77626124  0.22844786  1  0  0.111567  0  0.959925  0  0  0.121418  0  1.02215  0  0  0.124264  0  1.021042  0  0  0.103122  0.119421  0  1.022941  0
H  H47  1  0.04109904  0.22373890  0.77155189  1  0  0.111616  0  0.959904  0  0  0.121426  0  1.022187  0  0  0.124283  0  1.021056  0  0  0.103134  0.119426  0  1.022986  0
H  H48  1  0.95728174  0.58504730  0.60970871  1  0  0.156986  0  0.949228  0  0  0.174723  0  1.008948  0  0  0.178188  0  1.006893  0  0  0.104975  0.172246  0  1.010419  0
H  H49  1  0.04271876  0.41495284  0.39029146  1  0  0.156932  0  0.949246  0  0  0.174652  0  1.008993  0  0  0.178116  0  1.00694  0  0  0.104949  0.172176  0  1.010463  0
H  H50  1  0.80609563  0.62708503  0.60232491  1  0  0.127878  0  0.944981  0  0  0.147269  0  1.009511  0  0  0.149134  0  1.00919  0  0  0.100361  0.145994  0  1.00966  0
H  H51  1  0.19390447  0.37291419  0.39767500  1  0  0.127869  0  0.944993  0  0  0.147262  0  1.009515  0  0  0.149127  0  1.009195  0  0  0.100359  0.145986  0  1.009665  0
H  H52  1  0.81425484  0.51441366  0.48915661  1  0  0.147711  0  0.950104  0  0  0.168271  0  1.006498  0  0  0.170621  0  1.005348  0  0  0.105256  0.166576  0  1.007289  0
H  H53  1  0.18574387  0.48558465  0.51084291  1  0  0.147717  0  0.950116  0  0  0.168264  0  1.006519  0  0  0.170613  0  1.005369  0  0  0.105266  0.166566  0  1.007316  0
H  H54  1  0.81015896  0.44485399  0.81539416  1  0  0.10836  0  0.952608  0  0  0.121514  0  1.016678  0  0  0.123493  0  1.017022  0  0  0.099759  0.120189  0  1.01641  0
H  H55  1  0.18984133  0.55514799  0.18460869  1  0  0.108345  0  0.952618  0  0  0.121485  0  1.016691  0  0  0.123466  0  1.017036  0  0  0.099749  0.120159  0  1.016422  0
H  H56  1  0.91024895  0.50539616  0.95163941  1  0  0.116997  0  0.95987  0  0  0.127174  0  1.027062  0  0  0.130319  0  1.024825  0  0  0.098593  0.124922  0  1.028725  0
H  H57  1  0.08975372  0.49460674  0.04836168  1  0  0.116999  0  0.959863  0  0  0.127165  0  1.027048  0  0  0.130309  0  1.024813  0  0  0.098593  0.124911  0  1.028715  0
H  H58  1  0.03562711  0.73856570  0.03803630  1  0  0.091205  0  0.948324  0  0  0.104236  0  1.007414  0  0  0.107452  0  1.005732  0  0  0.098761  0.10188  0  1.008797  0
H  H59  1  0.96437517  0.26143628  0.96196452  1  0  0.09123  0  0.948339  0  0  0.10428  0  1.007398  0  0  0.1075  0  1.005719  0  0  0.098773  0.10194  0  1.008774  0
H  H60  1  0.98724806  0.93248487  0.06371842  1  0  0.076333  0  0.982872  0  0  0.088978  0  1.042708  0  0  0.091166  0  1.042272  0  0  0.094029  0.087459  0  1.042951  0
H  H61  1  0.01274985  0.06751620  0.93628169  1  0  0.07633  0  0.98283  0  0  0.088971  0  1.042671  0  0  0.091159  0  1.042234  0  0  0.094037  0.087451  0  1.042921  0
H  H62  1  0.79868699  0.94259497  0.92920662  1  0  0.079448  0  0.972634  0  0  0.091086  0  1.036947  0  0  0.093906  0  1.035556  0  0  0.094722  0.089101  0  1.037987  0
H  H63  1  0.20131191  0.05740610  0.07079285  1  0  0.079409  0  0.972712  0  0  0.091056  0  1.037007  0  0  0.093875  0  1.035617  0  0  0.094699  0.08907  0  1.038044  0
H  H64  1  0.70690316  0.56606574  0.74208564  1  0  0.096264  0  0.961294  0  0  0.109492  0  1.021163  0  0  0.111602  0  1.021933  0  0  0.099767  0.107939  0  1.020751  0
H  H65  1  0.29309635  0.43393441  0.25791442  1  0  0.096259  0  0.961268  0  0  0.109487  0  1.021137  0  0  0.111598  0  1.021905  0  0  0.099749  0.107932  0  1.020719  0
H  H66  1  0.63365292  0.73264616  0.66335848  1  0  0.10367  0  0.939362  0  0  0.119931  0  0.999457  0  0  0.122101  0  0.998222  0  0  0.099548  0.118408  0  1.000285  0
H  H67  1  0.36634659  0.26735398  0.33664083  1  0  0.10367  0  0.939383  0  0  0.119935  0  0.99947  0  0  0.122105  0  0.998234  0  0  0.099545  0.118407  0  1.000301  0
H  H68  1  0.61558375  0.85044864  0.76685646  1  0  0.106272  0  0.924876  0  0  0.123987  0  0.982589  0  0  0.126408  0  0.981226  0  0  0.102634  0.122253  0  0.983536  0
H  H69  1  0.38441576  0.14955151  0.23314285  1  0  0.106283  0  0.924897  0  0  0.123971  0  0.982635  0  0  0.126392  0  0.981273  0  0  0.102626  0.122232  0  0.983588  0
C  C70  1  0.30334004  0.89400917  0.84491896  1  0  -0.108902  0  3.669376  0  0  -0.145026  0  3.926224  0  0  -0.146383  0  3.941261  0  0  -0.168351  -0.143893  0  3.915771  0
C  C71  1  0.69665846  0.10599098  0.15508174  1  0  -0.108921  0  3.669456  0  0  -0.145016  0  3.926267  0  0  -0.14637  0  3.941301  0  0  -0.168327  -0.143884  0  3.915815  0
C  C72  1  0.37098704  0.03492275  0.88778715  1  0  -0.109817  0  3.692687  0  0  -0.148986  0  3.954037  0  0  -0.149915  0  3.969349  0  0  -0.170288  -0.148173  0  3.943343  0
C  C73  1  0.62901345  0.96507740  0.11221302  1  0  -0.109788  0  3.692667  0  0  -0.14897  0  3.954025  0  0  -0.1499  0  3.969339  0  0  -0.170295  -0.148159  0  3.943328  0
C  C74  1  0.52258861  0.08559156  0.87348858  1  0  -0.129586  0  3.687814  0  0  -0.173977  0  3.954725  0  0  -0.175214  0  3.968699  0  0  -0.164163  -0.172933  0  3.944942  0
C  C75  1  0.47741149  0.91440767  0.12651207  1  0  -0.129576  0  3.687782  0  0  -0.17398  0  3.954721  0  0  -0.175218  0  3.968696  0  0  -0.164163  -0.17294  0  3.944948  0
C  C76  1  0.58535525  0.22636964  0.91150561  1  0  0.012351  0  3.610243  0  0  -0.050416  0  3.870698  0  0  -0.04578  0  3.881202  0  0  -0.05125  -0.053433  0  3.86361  0
C  C77  1  0.41464485  0.77362959  0.08849429  1  0  0.012322  0  3.610167  0  0  -0.050453  0  3.870649  0  0  -0.045817  0  3.881153  0  0  -0.051291  -0.05348  0  3.863566  0
C  C78  1  0.54722707  0.27208115  0.73806346  1  0  0.086619  0  3.820031  0  0  0.074639  0  4.0677  0  0  0.078227  0  4.089746  0  0  0.084299  0.072077  0  4.052984  0
C  C79  1  0.45277343  0.72791899  0.26193671  1  0  0.086684  0  3.820126  0  0  0.074698  0  4.067747  0  0  0.078288  0  4.089794  0  0  0.084332  0.072127  0  4.053045  0
C  C80  1  0.63783349  0.22647488  0.68447739  1  0  -0.159204  0  3.795444  0  0  -0.176187  0  4.047427  0  0  -0.179033  0  4.067501  0  0  -0.101022  -0.17432  0  4.034214  0
C  C81  1  0.36216761  0.77352435  0.31552111  1  0  -0.15927  0  3.795561  0  0  -0.176218  0  4.047544  0  0  -0.179064  0  4.067618  0  0  -0.101071  -0.174357  0  4.034345  0
C  C82  1  0.64667743  0.24509333  0.58616894  1  0  -0.065601  0  3.780119  0  0  -0.07905  0  4.028706  0  0  -0.080742  0  4.050954  0  0  -0.099605  -0.078046  0  4.013789  0
C  C83  1  0.35332208  0.75490682  0.41382962  1  0  -0.065604  0  3.780165  0  0  -0.079043  0  4.02874  0  0  -0.080734  0  4.050987  0  0  -0.09958  -0.078045  0  4.013832  0
C  C84  1  0.56861333  0.30712049  0.54346915  1  0  -0.091454  0  3.788562  0  0  -0.106437  0  4.041792  0  0  -0.109358  0  4.063497  0  0  -0.10597  -0.104199  0  4.026866  0
C  C85  1  0.43138678  0.69287874  0.45653000  1  0  -0.091421  0  3.788613  0  0  -0.106398  0  4.041849  0  0  -0.109319  0  4.063554  0  0  -0.105971  -0.104156  0  4.026914  0
C  C86  1  0.47692233  0.35119557  0.59672518  1  0  -0.150989  0  3.747324  0  0  -0.169904  0  4.001039  0  0  -0.172519  0  4.020569  0  0  -0.098403  -0.168116  0  3.987828  0
C  C87  1  0.52307817  0.64880458  0.40327424  1  0  -0.150977  0  3.747453  0  0  -0.169911  0  4.001174  0  0  -0.172526  0  4.020706  0  0  -0.098385  -0.16812  0  3.987953  0
C  C88  1  0.46612007  0.33265411  0.69525525  1  0  0.148758  0  3.85769  0  0  0.144113  0  4.110405  0  0  0.148319  0  4.133891  0  0  0.079115  0.14107  0  4.09463  0
C  C89  1  0.53388042  0.66734603  0.30474417  1  0  0.148742  0  3.857768  0  0  0.144127  0  4.110445  0  0  0.148331  0  4.133933  0  0  0.07913  0.141086  0  4.094667  0
C  C90  1  0.42400918  0.33457254  0.85294032  1  0  0.416971  0  3.694581  0  0  0.388981  0  3.968858  0  0  0.409112  0  3.980216  0  0  0.233251  0.375649  0  3.960704  0
C  C91  1  0.57599192  0.66542668  0.14705969  1  0  0.416977  0  3.69457  0  0  0.388972  0  3.968843  0  0  0.4091  0  3.980205  0  0  0.233243  0.375644  0  3.960683  0
C  C92  1  0.36493850  0.35395257  0.94892296  1  0  -0.412893  0  3.697906  0  0  -0.493137  0  3.935392  0  0  -0.498661  0  3.941582  0  0  -0.237526  -0.489107  0  3.931003  0
C  C93  1  0.63506299  0.64604758  0.05107657  1  0  -0.412995  0  3.697927  0  0  -0.493242  0  3.935436  0  0  -0.498766  0  3.941624  0  0  -0.237561  -0.489209  0  3.931049  0
C  C94  1  0.24437155  0.83967712  0.72223690  1  0  -0.127579  0  3.659745  0  0  -0.171417  0  3.92363  0  0  -0.172868  0  3.937022  0  0  -0.165265  -0.170336  0  3.914411  0
C  C95  1  0.75562617  0.16032119  0.27776327  1  0  -0.127571  0  3.659661  0  0  -0.171405  0  3.923564  0  0  -0.172857  0  3.936958  0  0  -0.165282  -0.170322  0  3.914347  0
C  C96  1  0.10158184  0.85412494  0.68858055  1  0  0.017079  0  3.631186  0  0  -0.044527  0  3.893013  0  0  -0.039761  0  3.904398  0  0  -0.051473  -0.04758  0  3.885198  0
C  C97  1  0.89841548  0.14587245  0.31142010  1  0  0.017118  0  3.631169  0  0  -0.044574  0  3.893132  0  0  -0.03981  0  3.904518  0  0  -0.051499  -0.047611  0  3.885295  0
C  C98  1  0.08516279  0.87773156  0.50396642  1  0  0.097597  0  3.805647  0  0  0.08607  0  4.054567  0  0  0.090282  0  4.07622  0  0  0.091691  0.083163  0  4.040028  0
C  C99  1  0.91483611  0.12226951  0.49603456  1  0  0.097673  0  3.805663  0  0  0.086135  0  4.054584  0  0  0.090352  0  4.07623  0  0  0.091749  0.083224  0  4.040049  0
C  C100  1  0.18267628  0.99605224  0.52328259  1  0  -0.141739  0  3.760113  0  0  -0.160875  0  4.017405  0  0  -0.163637  0  4.037178  0  0  -0.094459  -0.158893  0  4.00396  0
C  C101  1  0.81732322  0.00394790  0.47671822  1  0  -0.141859  0  3.760096  0  0  -0.160993  0  4.0174  0  0  -0.163756  0  4.037171  0  0  -0.094515  -0.159003  0  4.003951  0
C  C102  1  0.19706618  0.03375166  0.43370790  1  0  -0.069574  0  3.784389  0  0  -0.088072  0  4.042518  0  0  -0.089526  0  4.065124  0  0  -0.100629  -0.086961  0  4.027102  0
C  C103  1  0.80293371  0.96624940  0.56629469  1  0  -0.069581  0  3.784304  0  0  -0.088088  0  4.042445  0  0  -0.089541  0  4.065049  0  0  -0.100663  -0.086971  0  4.02702  0
C  C104  1  0.11649007  0.95604304  0.32888714  1  0  -0.094652  0  3.814535  0  0  -0.109957  0  4.072055  0  0  -0.112519  0  4.094383  0  0  -0.107584  -0.108189  0  4.056893  0
C  C105  1  0.88351281  0.04395802  0.67111427  1  0  -0.094597  0  3.81447  0  0  -0.109901  0  4.071974  0  0  -0.112462  0  4.094306  0  0  -0.107551  -0.108136  0  4.056811  0
C  C106  1  0.01910750  0.83767676  0.30963216  1  0  -0.149141  0  3.743333  0  0  -0.168218  0  3.99515  0  0  -0.170744  0  4.015023  0  0  -0.097278  -0.166445  0  3.981718  0
C  C107  1  0.98089438  0.16232430  0.69036914  1  0  -0.14925  0  3.743388  0  0  -0.168311  0  3.99521  0  0  -0.170839  0  4.015081  0  0  -0.097322  -0.166533  0  3.981778  0
C  C108  1  0.00416093  0.79869862  0.39889024  1  0  0.154239  0  3.848145  0  0  0.149769  0  4.098969  0  0  0.153875  0  4.122336  0  0  0.083212  0.146977  0  4.083084  0
C  C109  1  0.99584056  0.20130152  0.60110929  1  0  0.154282  0  3.848219  0  0  0.149841  0  4.098998  0  0  0.153944  0  4.122368  0  0  0.083238  0.147044  0  4.083117  0
C  C110  1  0.94595593  0.69734578  0.50980233  1  0  0.420655  0  3.688553  0  0  0.393622  0  3.962012  0  0  0.413324  0  3.974225  0  0  0.236298  0.38059  0  3.953183  0
C  C111  1  0.05404417  0.30265345  0.49019682  1  0  0.420775  0  3.688434  0  0  0.393678  0  3.961977  0  0  0.413378  0  3.974192  0  0  0.236309  0.380653  0  3.953142  0
C  C112  1  0.87825059  0.60046548  0.55464257  1  0  -0.411265  0  3.689169  0  0  -0.488965  0  3.922296  0  0  -0.494061  0  3.926453  0  0  -0.233633  -0.485215  0  3.919179  0
C  C113  1  0.12174991  0.39953466  0.44535685  1  0  -0.411239  0  3.689151  0  0  -0.488894  0  3.922308  0  0  -0.493988  0  3.926468  0  0  -0.233625  -0.485143  0  3.919193  0
C  C114  1  0.03243541  0.51751114  0.83248051  1  0  0.68819  0  3.864659  0  0  0.646289  0  4.155077  0  0  0.679577  0  4.149971  0  0  0.192518  0.62382  0  4.157427  0
C  C115  1  0.96756310  0.48248901  0.16751644  1  0  0.688193  0  3.864639  0  0  0.646281  0  4.155053  0  0  0.679568  0  4.14995  0  0  0.192527  0.62381  0  4.157406  0
C  C116  1  0.90154383  0.52255780  0.87431005  1  0  -0.311741  0  3.695393  0  0  -0.352689  0  3.932299  0  0  -0.358998  0  3.938585  0  0  -0.16389  -0.348282  0  3.927789  0
C  C117  1  0.09845667  0.47744235  0.12569012  1  0  -0.311741  0  3.695439  0  0  -0.352628  0  3.932298  0  0  -0.358948  0  3.938581  0  0  -0.163875  -0.348218  0  3.92779  0
C  C118  1  0.87639688  0.64058758  0.88662146  1  0  0.14699  0  3.753432  0  0  0.168973  0  3.985647  0  0  0.171497  0  4.008499  0  0  -0.003463  0.167159  0  3.97027  0
C  C119  1  0.12360501  0.35941348  0.11337834  1  0  0.147011  0  3.75351  0  0  0.168955  0  3.985753  0  0  0.171506  0  4.008572  0  0  -0.003459  0.167142  0  3.970376  0
C  C120  1  0.95590269  0.74466784  0.97730396  1  0  -0.130723  0  3.741926  0  0  -0.153681  0  3.990722  0  0  -0.156955  0  4.010801  0  0  -0.095928  -0.151574  0  3.97742  0
C  C121  1  0.04409661  0.25533415  0.02269578  1  0  -0.13075  0  3.741937  0  0  -0.153718  0  3.990733  0  0  -0.157009  0  4.010815  0  0  -0.095921  -0.151629  0  3.977443  0
C  C122  1  0.92832463  0.85270203  0.99194032  1  0  -0.078592  0  3.836743  0  0  -0.089275  0  4.085499  0  0  -0.090121  0  4.107018  0  0  -0.100697  -0.088446  0  4.070695  0
C  C123  1  0.07167566  0.14729996  0.00805953  1  0  -0.078589  0  3.836697  0  0  -0.089262  0  4.085446  0  0  -0.090108  0  4.10697  0  0  -0.100726  -0.088436  0  4.070658  0
C  C124  1  0.82207828  0.85860115  0.91605388  1  0  -0.149824  0  3.787802  0  0  -0.173491  0  4.039114  0  0  -0.177046  0  4.060257  0  0  -0.103445  -0.171219  0  4.024949  0
C  C125  1  0.17791924  0.14139900  0.08394446  1  0  -0.149773  0  3.787761  0  0  -0.173445  0  4.039067  0  0  -0.177001  0  4.060209  0  0  -0.103401  -0.171172  0  4.024901  0
C  C126  1  0.74224999  0.75636092  0.82499972  1  0  0.119982  0  3.787172  0  0  0.142145  0  4.024177  0  0  0.143574  0  4.048458  0  0  -0.01305  0.141114  0  4.007816  0
C  C127  1  0.25774912  0.24363830  0.17499857  1  0  0.119954  0  3.787025  0  0  0.142122  0  4.024038  0  0  0.143553  0  4.048318  0  0  -0.013059  0.141095  0  4.007667  0
C  C128  1  0.77109858  0.64802292  0.81136283  1  0  -0.172729  0  3.676004  0  0  -0.198669  0  3.91472  0  0  -0.202681  0  3.935311  0  0  -0.092059  -0.195827  0  3.900874  0
C  C129  1  0.22889993  0.35197723  0.18863637  1  0  -0.172742  0  3.675973  0  0  -0.198672  0  3.914696  0  0  -0.202693  0  3.935274  0  0  -0.092075  -0.19583  0  3.900837  0
C  C130  1  0.62058567  0.75779965  0.74609566  1  0  -0.298489  0  3.693962  0  0  -0.345787  0  3.937899  0  0  -0.350882  0  3.944252  0  0  -0.158543  -0.341995  0  3.933161  0
C  C131  1  0.37941383  0.24220050  0.25390365  1  0  -0.298477  0  3.694027  0  0  -0.345758  0  3.937972  0  0  -0.350855  0  3.944324  0  0  -0.158525  -0.341959  0  3.933231  0
C  C132  1  0.47721827  0.66809552  0.74837692  1  0  0.686984  0  3.861117  0  0  0.643949  0  4.156389  0  0  0.676825  0  4.151413  0  0  0.197567  0.621755  0  4.158769  0
C  C133  1  0.52278023  0.33190463  0.25162228  1  0  0.686966  0  3.861142  0  0  0.643927  0  4.156427  0  0  0.676803  0  4.151451  0  0  0.197562  0.621731  0  4.158812  0
N  N134  1  0.91891124  0.68764931  0.40579953  1  0  -0.498369  0  3.146512  0  0  -0.434246  0  3.425753  0  0  -0.458656  0  3.440033  0  0  -0.358353  -0.417526  0  3.415357  0
N  N135  1  0.08108847  0.31234899  0.59419935  1  0  -0.498396  0  3.14648  0  0  -0.434253  0  3.425734  0  0  -0.458662  0  3.440016  0  0  -0.358343  -0.417538  0  3.415344  0
N  N136  1  0.04518993  0.81097954  0.57201656  1  0  -0.176825  0  3.474184  0  0  -0.092844  0  3.69774  0  0  -0.110654  0  3.720884  0  0  -0.240622  -0.08101  0  3.681905  0
N  N137  1  0.95480818  0.18901969  0.42798313  1  0  -0.176941  0  3.474263  0  0  -0.092933  0  3.6979  0  0  -0.110745  0  3.721044  0  0  -0.240633  -0.081105  0  3.682065  0
N  N138  1  0.39006883  0.36926897  0.76847578  1  0  -0.501729  0  3.150238  0  0  -0.437085  0  3.430229  0  0  -0.461634  0  3.444529  0  0  -0.359235  -0.420428  0  3.42015  0
N  N139  1  0.60993266  0.63073117  0.23152375  1  0  -0.501716  0  3.150234  0  0  -0.437088  0  3.430231  0  0  -0.461635  0  3.444532  0  0  -0.359245  -0.420433  0  3.420145  0
N  N140  1  0.51930236  0.27580386  0.83804564  1  0  -0.173603  0  3.461852  0  0  -0.086537  0  3.682422  0  0  -0.103912  0  3.704969  0  0  -0.242187  -0.074893  0  3.666956  0
N  N141  1  0.48069813  0.72419629  0.16195453  1  0  -0.173635  0  3.461828  0  0  -0.086518  0  3.682346  0  0  -0.103891  0  3.704894  0  0  -0.242177  -0.074871  0  3.666882  0
O  O142  1  0.09898820  0.45367928  0.86413293  1  0  -0.666065  0  1.938286  0  0  -0.600777  0  2.176731  0  0  -0.630064  0  2.167311  0  0  -0.34243  -0.580289  0  2.182178  0
O  O143  1  0.90101329  0.54632086  0.13586660  1  0  -0.666043  0  1.938308  0  0  -0.600754  0  2.176749  0  0  -0.630037  0  2.167327  0  0  -0.34244  -0.580268  0  2.182197  0
O  O144  1  0.06807690  0.57133154  0.76516164  1  0  -0.644615  0  1.936037  0  0  -0.581754  0  2.167064  0  0  -0.609897  0  2.158981  0  0  -0.331625  -0.562145  0  2.171793  0
O  O145  1  0.93192082  0.42866677  0.23483627  1  0  -0.644639  0  1.935985  0  0  -0.58179  0  2.167045  0  0  -0.609929  0  2.158958  0  0  -0.331635  -0.562181  0  2.171775  0
O  O146  1  0.45016338  0.66928576  0.83877108  1  0  -0.647147  0  1.953933  0  0  -0.589433  0  2.191987  0  0  -0.616112  0  2.183554  0  0  -0.327952  -0.570842  0  2.197218  0
O  O147  1  0.54983552  0.33071531  0.16122839  1  0  -0.647107  0  1.953924  0  0  -0.589404  0  2.192007  0  0  -0.616081  0  2.183575  0  0  -0.327931  -0.570812  0  2.197238  0
O  O148  1  0.39139348  0.59313258  0.65845530  1  0  -0.658998  0  1.973778  0  0  -0.591254  0  2.21224  0  0  -0.620371  0  2.202937  0  0  -0.332438  -0.571007  0  2.217834  0
O  O149  1  0.60860662  0.40686664  0.34154385  1  0  -0.659019  0  1.97382  0  0  -0.591287  0  2.212301  0  0  -0.620404  0  2.202998  0  0  -0.332454  -0.571042  0  2.217899  0
