# generated using pymatgen
data_ZnH6C7(BrN2)2
_symmetry_space_group_name_H-M   'P 1'
_cell_length_a   6.61196038
_cell_length_b   8.64138520
_cell_length_c   18.56374045
_cell_angle_alpha   90.00018533
_cell_angle_beta   89.99978313
_cell_angle_gamma   102.40480430
_symmetry_Int_Tables_number   1
_chemical_formula_structural   ZnH6C7(BrN2)2
_chemical_formula_sum   'Zn4 H24 C28 Br8 N16'
_cell_volume   1035.90504409
_cell_formula_units_Z   4
loop_
 _symmetry_equiv_pos_site_id
 _symmetry_equiv_pos_as_xyz
  1  'x, y, z'
loop_
 _atom_site_type_symbol
 _atom_site_label
 _atom_site_symmetry_multiplicity
 _atom_site_fract_x
 _atom_site_fract_y
 _atom_site_fract_z
 _atom_site_occupancy
 _atom_site_hle17_bader_spin_density
 _atom_site_hle17_ddec_charge
 _atom_site_hle17_ddec_spin_density
 _atom_site_hle17_ddec_sum_bond_order
 _atom_site_hle17_magmom
 _atom_site_hse06_10hf_bader_spin_density
 _atom_site_hse06_10hf_ddec_charge
 _atom_site_hse06_10hf_ddec_spin_density
 _atom_site_hse06_10hf_ddec_sum_bond_order
 _atom_site_hse06_10hf_magmom
 _atom_site_hse06_bader_spin_density
 _atom_site_hse06_ddec_charge
 _atom_site_hse06_ddec_spin_density
 _atom_site_hse06_ddec_sum_bond_order
 _atom_site_hse06_magmom
 _atom_site_pbe_bader_spin_density
 _atom_site_pbe_cm5_charge
 _atom_site_pbe_ddec_charge
 _atom_site_pbe_ddec_spin_density
 _atom_site_pbe_ddec_sum_bond_order
 _atom_site_pbe_magmom
Zn  Zn0  1  0.59915604  0.31832889  0.36025587  1  0  0.784667  0  2.14823  0  0  0.608381  0  2.636519  0  0  0.650572  0  2.590213  0  0  0.522601  0.579487  0  2.667886  0
Zn  Zn1  1  0.40085478  0.18167239  0.86025859  1  0  0.784634  0  2.148367  0  0  0.608442  0  2.636521  0  0  0.650629  0  2.590216  0  0  0.5226  0.579543  0  2.667892  0
Zn  Zn2  1  0.40084655  0.68167378  0.63974521  1  0  0.784628  0  2.148254  0  0  0.608378  0  2.636452  0  0  0.650598  0  2.59016  0  0  0.522595  0.579491  0  2.667829  0
Zn  Zn3  1  0.59914200  0.81832550  0.13974411  1  0  0.784688  0  2.148255  0  0  0.608457  0  2.636461  0  0  0.650642  0  2.590155  0  0  0.522606  0.579557  0  2.667837  0
H  H4  1  0.26221315  0.89194094  0.41440833  1  0  0.10922  0  0.952405  0  0  0.11549  0  1.022029  0  0  0.118583  0  1.019034  0  0  0.101759  0.113166  0  1.0242  0
H  H5  1  0.73778947  0.60806479  0.91440778  1  0  0.109217  0  0.952452  0  0  0.115452  0  1.022107  0  0  0.118542  0  1.019114  0  0  0.101762  0.113123  0  1.024306  0
H  H6  1  0.73779431  0.10806296  0.58558898  1  0  0.109246  0  0.952418  0  0  0.115499  0  1.02206  0  0  0.118595  0  1.019064  0  0  0.101766  0.113168  0  1.024251  0
H  H7  1  0.26219822  0.39193301  0.08559223  1  0  0.109225  0  0.952366  0  0  0.115444  0  1.022069  0  0  0.118515  0  1.01912  0  0  0.101743  0.113126  0  1.024229  0
H  H8  1  0.31924155  0.61764324  0.44308227  1  0  0.105247  0  0.974747  0  0  0.111032  0  1.0422  0  0  0.114212  0  1.041555  0  0  0.095731  0.108661  0  1.042966  0
H  H9  1  0.68076872  0.88236391  0.94307950  1  0  0.105236  0  0.974875  0  0  0.111006  0  1.042303  0  0  0.114184  0  1.04166  0  0  0.09573  0.108638  0  1.043071  0
H  H10  1  0.68076806  0.38236304  0.55691828  1  0  0.105266  0  0.974813  0  0  0.111041  0  1.042241  0  0  0.114221  0  1.041594  0  0  0.095748  0.108668  0  1.043007  0
H  H11  1  0.31922200  0.11763392  0.05691996  1  0  0.105179  0  0.974983  0  0  0.110964  0  1.042363  0  0  0.114141  0  1.041723  0  0  0.095723  0.108596  0  1.043135  0
H  H12  1  0.03231107  0.38477969  0.41994095  1  0  0.081659  0  0.967064  0  0  0.084382  0  1.040194  0  0  0.086905  0  1.038444  0  0  0.105717  0.082444  0  1.041625  0
H  H13  1  0.96770391  0.11523379  0.91994062  1  0  0.081627  0  0.9671  0  0  0.08436  0  1.040211  0  0  0.086877  0  1.038466  0  0  0.105732  0.082424  0  1.041638  0
H  H14  1  0.96770063  0.61522306  0.58006229  1  0  0.081626  0  0.967181  0  0  0.084369  0  1.040282  0  0  0.08688  0  1.038547  0  0  0.105736  0.082435  0  1.04171  0
H  H15  1  0.03228630  0.88477349  0.08005777  1  0  0.081589  0  0.967205  0  0  0.084306  0  1.04031  0  0  0.086822  0  1.038564  0  0  0.105729  0.08237  0  1.041737  0
H  H16  1  0.65047743  0.67079144  0.33973383  1  0  0.097606  0  0.954909  0  0  0.100621  0  1.030265  0  0  0.103976  0  1.02671  0  0  0.110354  0.098065  0  1.033015  0
H  H17  1  0.34953273  0.82920566  0.83973845  1  0  0.097577  0  0.954855  0  0  0.100603  0  1.030218  0  0  0.10396  0  1.026662  0  0  0.110351  0.098049  0  1.032969  0
H  H18  1  0.34952997  0.32920655  0.66026618  1  0  0.09759  0  0.954843  0  0  0.100607  0  1.030212  0  0  0.103963  0  1.026654  0  0  0.110357  0.098052  0  1.032965  0
H  H19  1  0.65045162  0.17079093  0.16026209  1  0  0.09757  0  0.954788  0  0  0.100575  0  1.030188  0  0  0.103933  0  1.026631  0  0  0.110332  0.098021  0  1.032941  0
H  H20  1  0.13151419  0.02082743  0.26978338  1  0  0.114429  0  0.953296  0  0  0.120096  0  1.021616  0  0  0.123238  0  1.018091  0  0  0.126384  0.117723  0  1.024314  0
H  H21  1  0.86849009  0.47916854  0.76978965  1  0  0.114411  0  0.953317  0  0  0.120077  0  1.021669  0  0  0.123217  0  1.018143  0  0  0.126413  0.117705  0  1.024366  0
H  H22  1  0.86849295  0.97917528  0.73021501  1  0  0.114369  0  0.953406  0  0  0.120041  0  1.021737  0  0  0.12318  0  1.018215  0  0  0.126386  0.117667  0  1.024433  0
H  H23  1  0.13150544  0.52082461  0.23021036  1  0  0.114331  0  0.9535  0  0  0.120005  0  1.021811  0  0  0.12314  0  1.018293  0  0  0.12641  0.117632  0  1.024508  0
H  H24  1  0.67022410  0.97445654  0.43144724  1  0  0.105557  0  0.965972  0  0  0.111544  0  1.038627  0  0  0.114594  0  1.034595  0  0  0.124325  0.109173  0  1.041681  0
H  H25  1  0.32979044  0.52554349  0.93145198  1  0  0.105603  0  0.965927  0  0  0.111605  0  1.038559  0  0  0.114656  0  1.034525  0  0  0.124342  0.109228  0  1.041617  0
H  H26  1  0.32977964  0.02553904  0.56855008  1  0  0.105517  0  0.965988  0  0  0.111557  0  1.038589  0  0  0.114618  0  1.034542  0  0  0.124331  0.109168  0  1.04166  0
H  H27  1  0.67020028  0.47445434  0.06854587  1  0  0.105651  0  0.965708  0  0  0.111633  0  1.03839  0  0  0.114692  0  1.034348  0  0  0.124397  0.109242  0  1.041461  0
C  C28  1  0.14294125  0.78536015  0.40477127  1  0  -0.051622  0  3.665138  0  0  -0.078928  0  3.911226  0  0  -0.074683  0  3.927816  0  0  -0.059338  -0.081412  0  3.900126  0
C  C29  1  0.85706474  0.71464084  0.90477178  1  0  -0.051447  0  3.665019  0  0  -0.078757  0  3.911125  0  0  -0.07451  0  3.927714  0  0  -0.059337  -0.081252  0  3.900028  0
C  C30  1  0.85706470  0.21464374  0.59522712  1  0  -0.051617  0  3.66531  0  0  -0.078956  0  3.911393  0  0  -0.074714  0  3.927986  0  0  -0.059403  -0.081441  0  3.900284  0
C  C31  1  0.14293053  0.28535704  0.09522984  1  0  -0.051397  0  3.66503  0  0  -0.07871  0  3.911098  0  0  -0.074462  0  3.927673  0  0  -0.059292  -0.081196  0  3.900006  0
C  C32  1  0.17328429  0.63436351  0.42054005  1  0  -0.101361  0  3.723096  0  0  -0.109743  0  3.967962  0  0  -0.118595  0  3.990804  0  0  -0.080108  -0.104227  0  3.952924  0
C  C33  1  0.82672288  0.86564821  0.92054029  1  0  -0.101585  0  3.723159  0  0  -0.109935  0  3.968037  0  0  -0.118789  0  3.990878  0  0  -0.080191  -0.104422  0  3.953002  0
C  C34  1  0.82671925  0.36564271  0.57945888  1  0  -0.101406  0  3.723109  0  0  -0.109763  0  3.968007  0  0  -0.118612  0  3.990842  0  0  -0.080121  -0.104243  0  3.952965  0
C  C35  1  0.17326695  0.13435198  0.07945810  1  0  -0.101578  0  3.72355  0  0  -0.109935  0  3.96839  0  0  -0.118782  0  3.991224  0  0  -0.080226  -0.104427  0  3.953362  0
C  C36  1  0.01255789  0.50423019  0.40840782  1  0  0.136112  0  3.664232  0  0  0.102667  0  3.911353  0  0  0.110501  0  3.929788  0  0  0.050336  0.097686  0  3.898888  0
C  C37  1  0.98745722  0.99577680  0.90840802  1  0  0.136333  0  3.664502  0  0  0.102867  0  3.911553  0  0  0.110707  0  3.929983  0  0  0.050429  0.097886  0  3.899085  0
C  C38  1  0.98745898  0.49577497  0.59159327  1  0  0.136276  0  3.664408  0  0  0.102781  0  3.911501  0  0  0.110623  0  3.929916  0  0  0.05043  0.097797  0  3.899038  0
C  C39  1  0.01253141  0.00422455  0.09159037  1  0  0.136513  0  3.664731  0  0  0.103098  0  3.911718  0  0  0.110938  0  3.930141  0  0  0.050547  0.098117  0  3.899253  0
C  C40  1  0.79749867  0.66304786  0.36483642  1  0  0.072799  0  3.660815  0  0  0.03  0  3.913837  0  0  0.037437  0  3.929625  0  0  0.053899  0.02517  0  3.903492  0
C  C41  1  0.20250552  0.83695051  0.86484126  1  0  0.072972  0  3.660532  0  0  0.030107  0  3.913568  0  0  0.037543  0  3.929358  0  0  0.053899  0.025276  0  3.903223  0
C  C42  1  0.20250570  0.33695010  0.63516412  1  0  0.07304  0  3.660554  0  0  0.030159  0  3.913572  0  0  0.037598  0  3.929352  0  0  0.053953  0.025329  0  3.903231  0
C  C43  1  0.79748280  0.16304966  0.13515820  1  0  0.072998  0  3.660717  0  0  0.030121  0  3.913726  0  0  0.037557  0  3.929511  0  0  0.053862  0.025292  0  3.903383  0
C  C44  1  0.95214319  0.79802419  0.37638311  1  0  0.140218  0  3.745598  0  0  0.137768  0  3.991931  0  0  0.137135  0  4.014079  0  0  0.103103  0.13769  0  3.977322  0
C  C45  1  0.04786090  0.70197424  0.87638474  1  0  0.139938  0  3.745697  0  0  0.137534  0  3.992018  0  0  0.136899  0  4.014166  0  0  0.103022  0.137459  0  3.977406  0
C  C46  1  0.04785695  0.20197491  0.62361581  1  0  0.140024  0  3.745778  0  0  0.137685  0  3.992  0  0  0.137046  0  4.014157  0  0  0.103104  0.13761  0  3.977387  0
C  C47  1  0.95212736  0.29802002  0.12361472  1  0  0.139914  0  3.745613  0  0  0.137546  0  3.991864  0  0  0.136912  0  4.014007  0  0  0.103031  0.13747  0  3.977256  0
C  C48  1  0.00834406  0.04779163  0.30312428  1  0  0.174153  0  3.607962  0  0  0.114105  0  3.889816  0  0  0.12568  0  3.900219  0  0  0.15888  0.106506  0  3.8828  0
C  C49  1  0.99166966  0.45220698  0.80312980  1  0  0.174286  0  3.608377  0  0  0.114226  0  3.890218  0  0  0.125792  0  3.900652  0  0  0.158917  0.106628  0  3.883202  0
C  C50  1  0.99165974  0.95220987  0.69687411  1  0  0.174284  0  3.608181  0  0  0.114222  0  3.890027  0  0  0.125792  0  3.900446  0  0  0.158903  0.106624  0  3.883011  0
C  C51  1  0.00833225  0.54778741  0.19687182  1  0  0.174362  0  3.608251  0  0  0.114349  0  3.890039  0  0  0.125917  0  3.900472  0  0  0.15891  0.10675  0  3.883028  0
C  C52  1  0.76989947  0.02137385  0.38646146  1  0  0.175699  0  3.637233  0  0  0.106895  0  3.901923  0  0  0.121396  0  3.912889  0  0  0.157102  0.097566  0  3.894409  0
C  C53  1  0.23010898  0.47862519  0.88646701  1  0  0.175641  0  3.637207  0  0  0.106897  0  3.901902  0  0  0.121396  0  3.912864  0  0  0.157136  0.097571  0  3.894384  0
C  C54  1  0.23010307  0.97862290  0.61353639  1  0  0.175836  0  3.637234  0  0  0.107032  0  3.9019  0  0  0.121525  0  3.91286  0  0  0.157196  0.097712  0  3.894401  0
C  C55  1  0.76989822  0.52138343  0.11353838  1  0  0.175413  0  3.637804  0  0  0.106686  0  3.902497  0  0  0.121178  0  3.913461  0  0  0.157002  0.097369  0  3.894995  0
Br  Br56  1  0.36527465  0.23226294  0.45840753  1  0  -0.534468  0  0.95496  0  0  -0.472651  0  1.251252  0  0  -0.489336  0  1.228095  0  0  -0.277991  -0.460509  0  1.26708  0
Br  Br57  1  0.63473104  0.26773414  0.95840843  1  0  -0.534441  0  0.955043  0  0  -0.472647  0  1.251323  0  0  -0.489324  0  1.228157  0  0  -0.277982  -0.460506  0  1.26716  0
Br  Br58  1  0.63472940  0.76773384  0.54159248  1  0  -0.534458  0  0.954958  0  0  -0.472667  0  1.251266  0  0  -0.48935  0  1.228103  0  0  -0.277988  -0.460528  0  1.267105  0
Br  Br59  1  0.36526695  0.73226258  0.04159104  1  0  -0.534476  0  0.954974  0  0  -0.472676  0  1.251253  0  0  -0.489343  0  1.228078  0  0  -0.277995  -0.460536  0  1.267086  0
Br  Br60  1  0.44256874  0.36673296  0.25081256  1  0  -0.521652  0  1.044807  0  0  -0.466322  0  1.367954  0  0  -0.484531  0  1.345372  0  0  -0.274902  -0.453091  0  1.383372  0
Br  Br61  1  0.55744031  0.13326885  0.75081122  1  0  -0.521639  0  1.044767  0  0  -0.466296  0  1.367853  0  0  -0.484517  0  1.345288  0  0  -0.274891  -0.453065  0  1.383276  0
Br  Br62  1  0.55743511  0.63327445  0.74919230  1  0  -0.521646  0  1.044754  0  0  -0.466318  0  1.367885  0  0  -0.484541  0  1.345313  0  0  -0.274905  -0.453087  0  1.383307  0
Br  Br63  1  0.44256855  0.86672324  0.24919041  1  0  -0.521656  0  1.044841  0  0  -0.466308  0  1.367945  0  0  -0.48453  0  1.345378  0  0  -0.274893  -0.453078  0  1.383366  0
N  N64  1  0.77845495  0.15657402  0.35224216  1  0  -0.258593  0  3.31614  0  0  -0.17787  0  3.613854  0  0  -0.195454  0  3.62856  0  0  -0.252962  -0.166191  0  3.60384  0
N  N65  1  0.22155778  0.34342841  0.85224644  1  0  -0.258536  0  3.316232  0  0  -0.178009  0  3.614167  0  0  -0.195582  0  3.628864  0  0  -0.253042  -0.166309  0  3.604132  0
N  N66  1  0.22155005  0.84342631  0.64775785  1  0  -0.258576  0  3.316154  0  0  -0.177958  0  3.613994  0  0  -0.19554  0  3.628706  0  0  -0.253023  -0.16626  0  3.603962  0
N  N67  1  0.77844628  0.65656836  0.14775249  1  0  -0.258456  0  3.31642  0  0  -0.1779  0  3.614297  0  0  -0.195475  0  3.629003  0  0  -0.253002  -0.166199  0  3.604255  0
N  N68  1  0.92798808  0.17410877  0.29940196  1  0  -0.214656  0  2.931563  0  0  -0.201696  0  3.22067  0  0  -0.209827  0  3.23653  0  0  -0.22359  -0.19612  0  3.20996  0
N  N69  1  0.07202264  0.32588979  0.79940697  1  0  -0.214786  0  2.931791  0  0  -0.201747  0  3.220931  0  0  -0.209881  0  3.236787  0  0  -0.223618  -0.196176  0  3.210215  0
N  N70  1  0.07201692  0.82589156  0.70059751  1  0  -0.214711  0  2.931642  0  0  -0.201715  0  3.22078  0  0  -0.209849  0  3.236639  0  0  -0.223578  -0.196145  0  3.210066  0
N  N71  1  0.92798084  0.67411052  0.20059358  1  0  -0.214748  0  2.931488  0  0  -0.20175  0  3.220646  0  0  -0.209884  0  3.236499  0  0  -0.223582  -0.196178  0  3.209932  0
N  N72  1  0.91375776  0.94878596  0.35713067  1  0  -0.121222  0  3.584081  0  0  -0.031559  0  3.799838  0  0  -0.04775  0  3.823985  0  0  -0.215663  -0.020819  0  3.78343  0
N  N73  1  0.08625073  0.55121123  0.85713525  1  0  -0.121197  0  3.584577  0  0  -0.031556  0  3.800368  0  0  -0.047747  0  3.82451  0  0  -0.21566  -0.020818  0  3.78396  0
N  N74  1  0.08624964  0.05121203  0.64286719  1  0  -0.121305  0  3.584502  0  0  -0.031687  0  3.800288  0  0  -0.047875  0  3.824431  0  0  -0.21573  -0.020949  0  3.783878  0
N  N75  1  0.91373424  0.44878773  0.14286421  1  0  -0.121111  0  3.584443  0  0  -0.031488  0  3.800184  0  0  -0.047675  0  3.82432  0  0  -0.215604  -0.020752  0  3.783778  0
N  N76  1  0.82769687  0.51849688  0.38158615  1  0  -0.293766  0  3.317283  0  0  -0.204218  0  3.583831  0  0  -0.224045  0  3.600315  0  0  -0.325645  -0.190973  0  3.572448  0
N  N77  1  0.17230811  0.98150514  0.88158855  1  0  -0.29383  0  3.317361  0  0  -0.204222  0  3.583867  0  0  -0.224044  0  3.600335  0  0  -0.325613  -0.190976  0  3.572487  0
N  N78  1  0.17231173  0.48149993  0.61841547  1  0  -0.293984  0  3.317411  0  0  -0.204319  0  3.583863  0  0  -0.224168  0  3.600394  0  0  -0.325754  -0.191077  0  3.57249  0
N  N79  1  0.82767477  0.01849735  0.11841199  1  0  -0.294046  0  3.317629  0  0  -0.204409  0  3.58405  0  0  -0.224242  0  3.600546  0  0  -0.325692  -0.191163  0  3.572669  0
