# generated using pymatgen
data_SmH13(C4O3)4
_symmetry_space_group_name_H-M   'P 1'
_cell_length_a   8.90115211
_cell_length_b   9.79464260
_cell_length_c   12.12315868
_cell_angle_alpha   100.45045772
_cell_angle_beta   103.95615367
_cell_angle_gamma   108.42775993
_symmetry_Int_Tables_number   1
_chemical_formula_structural   SmH13(C4O3)4
_chemical_formula_sum   'Sm2 H26 C32 O24'
_cell_volume   934.27216626
_cell_formula_units_Z   2
loop_
 _symmetry_equiv_pos_site_id
 _symmetry_equiv_pos_as_xyz
  1  'x, y, z'
loop_
 _atom_site_type_symbol
 _atom_site_label
 _atom_site_symmetry_multiplicity
 _atom_site_fract_x
 _atom_site_fract_y
 _atom_site_fract_z
 _atom_site_occupancy
 _atom_site_hle17_bader_spin_density
 _atom_site_hle17_ddec_charge
 _atom_site_hle17_ddec_spin_density
 _atom_site_hle17_ddec_sum_bond_order
 _atom_site_hle17_magmom
 _atom_site_hse06_10hf_bader_spin_density
 _atom_site_hse06_10hf_ddec_charge
 _atom_site_hse06_10hf_ddec_spin_density
 _atom_site_hse06_10hf_ddec_sum_bond_order
 _atom_site_hse06_10hf_magmom
 _atom_site_hse06_bader_spin_density
 _atom_site_hse06_ddec_charge
 _atom_site_hse06_ddec_spin_density
 _atom_site_hse06_ddec_sum_bond_order
 _atom_site_hse06_magmom
 _atom_site_pbe_bader_spin_density
 _atom_site_pbe_cm5_charge
 _atom_site_pbe_ddec_charge
 _atom_site_pbe_ddec_spin_density
 _atom_site_pbe_ddec_sum_bond_order
 _atom_site_pbe_magmom
Sm  Sm0  1  0.27193885  0.03840561  0.96124224  1  0  2.301691  0  1.610472  0  0  2.212056  0  1.954814  0  0  2.255979  0  1.912691  0  0  1.493814  2.1136  0  2.107478  0
Sm  Sm1  1  0.72806497  0.96159559  0.03875076  1  0  2.301657  0  1.610534  0  0  2.212027  0  1.954883  0  0  2.255948  0  1.912756  0  0  1.493796  2.113516  0  2.10765  0
H  H2  1  0.68353562  0.42675838  0.32538755  1  0  0.10435  0  0.956894  0  0  0.112019  0  1.023149  0  0  0.116589  0  1.018746  0  0  0.103979  0.108489  0  1.026885  0
H  H3  1  0.31646020  0.57324273  0.67461397  1  0  0.104354  0  0.956838  0  0  0.112031  0  1.0231  0  0  0.116604  0  1.018688  0  0  0.104  0.1085  0  1.026837  0
H  H4  1  0.67937628  0.46319570  0.68470056  1  0  0.114213  0  0.985831  0  0  0.119378  0  1.056299  0  0  0.121733  0  1.056864  0  0  0.105018  0.117573  0  1.056165  0
H  H5  1  0.32062009  0.53679868  0.31529834  1  0  0.114313  0  0.985776  0  0  0.119445  0  1.056281  0  0  0.121791  0  1.056852  0  0  0.105052  0.117639  0  1.05615  0
H  H6  1  0.27860307  0.11420721  0.39509665  1  0  0.127723  0  0.925749  0  0  0.13832  0  0.983798  0  0  0.142823  0  0.980193  0  0  0.11531  0.134887  0  0.986661  0
H  H7  1  0.72137948  0.88580074  0.60490452  1  0  0.127718  0  0.92582  0  0  0.13827  0  0.983903  0  0  0.142772  0  0.980295  0  0  0.115269  0.134839  0  0.986767  0
H  H8  1  0.65778878  0.50532951  0.95076034  1  0  0.129141  0  0.929411  0  0  0.137057  0  0.990287  0  0  0.141909  0  0.986298  0  0  0.115198  0.133355  0  0.993816  0
H  H9  1  0.34221556  0.49467272  0.04923868  1  0  0.129066  0  0.929455  0  0  0.137  0  0.990314  0  0  0.141852  0  0.986326  0  0  0.115192  0.133299  0  0.993842  0
H  H10  1  0.77406534  0.13486204  0.79446113  1  0  0.131313  0  0.965845  0  0  0.141057  0  1.025577  0  0  0.14497  0  1.023309  0  0  0.116935  0.138249  0  1.027189  0
H  H11  1  0.22594362  0.86514015  0.20553867  1  0  0.131315  0  0.965839  0  0  0.141081  0  1.025557  0  0  0.145  0  1.023287  0  0  0.116919  0.138273  0  1.027173  0
H  H12  1  0.09562995  0.59105605  0.84194935  1  0  0.12116  0  0.941659  0  0  0.131321  0  1.00347  0  0  0.135243  0  1.00038  0  0  0.114401  0.128272  0  1.006164  0
H  H13  1  0.90437256  0.40894732  0.15804954  1  0  0.121163  0  0.941732  0  0  0.131321  0  1.003535  0  0  0.135242  0  1.000444  0  0  0.114395  0.128272  0  1.006228  0
H  H14  1  0.93095002  0.97043643  0.79338881  1  0  0.435101  0  0.863869  0  0  0.404318  0  0.928783  0  0  0.414863  0  0.913141  0  0  0.300664  0.396829  0  0.939541  0
H  H15  1  0.06904847  0.02956019  0.20660998  1  0  0.435075  0  0.863898  0  0  0.404285  0  0.92883  0  0  0.414828  0  0.91319  0  0  0.300657  0.396796  0  0.939587  0
H  H16  1  0.14328705  0.79158071  0.73908405  1  0  0.431456  0  0.86572  0  0  0.400691  0  0.930244  0  0  0.411302  0  0.914332  0  0  0.29692  0.393028  0  0.941558  0
H  H17  1  0.85671337  0.20842037  0.26091742  1  0  0.431431  0  0.865755  0  0  0.40066  0  0.930289  0  0  0.411271  0  0.914376  0  0  0.296918  0.392997  0  0.941603  0
H  H18  1  0.01832462  0.72314590  0.50578136  1  0  0.420488  0  0.7736  0  0  0.407349  0  0.821424  0  0  0.416757  0  0.811683  0  0  0.355574  0.400501  0  0.828709  0
H  H19  1  0.98167665  0.27683833  0.49421594  1  0  0.420446  0  0.773575  0  0  0.407319  0  0.821382  0  0  0.416727  0  0.811647  0  0  0.355612  0.400472  0  0.828662  0
H  H20  1  0.43984541  0.27187671  0.70380000  1  0  0.388298  0  0.851382  0  0  0.364513  0  0.924338  0  0  0.37339  0  0.914358  0  0  0.315196  0.357923  0  0.931988  0
H  H21  1  0.56014876  0.72812331  0.29619942  1  0  0.388275  0  0.851506  0  0  0.364495  0  0.924441  0  0  0.373375  0  0.914455  0  0  0.315189  0.357904  0  0.932095  0
H  H22  1  0.12545242  0.37406581  0.74278819  1  0  0.401018  0  0.805159  0  0  0.386414  0  0.856383  0  0  0.394108  0  0.847966  0  0  0.342126  0.380868  0  0.862584  0
H  H23  1  0.87455722  0.62593521  0.25721401  1  0  0.40101  0  0.805179  0  0  0.386386  0  0.856424  0  0  0.394077  0  0.84801  0  0  0.342107  0.380841  0  0.862621  0
H  H24  1  0.05044179  0.11438978  0.77383263  1  0  0.4298  0  0.861252  0  0  0.402475  0  0.918149  0  0  0.412137  0  0.903878  0  0  0.304368  0.395631  0  0.928015  0
H  H25  1  0.94955786  0.88560680  0.22616800  1  0  0.429829  0  0.861241  0  0  0.402494  0  0.918157  0  0  0.412156  0  0.903885  0  0  0.304371  0.395647  0  0.928027  0
H  H26  1  0.33353896  0.80753589  0.80019722  1  0  0.422201  0  0.885793  0  0  0.392494  0  0.948974  0  0  0.402663  0  0.934057  0  0  0.294229  0.385317  0  0.959175  0
H  H27  1  0.66646357  0.19246744  0.19980415  1  0  0.42213  0  0.885886  0  0  0.392448  0  0.949033  0  0  0.402617  0  0.934115  0  0  0.294211  0.385272  0  0.959232  0
C  C28  1  0.47498543  0.26211138  0.34717159  1  0  -0.043588  0  3.772331  0  0  -0.016858  0  4.008419  0  0  -0.024176  0  4.031046  0  0  -0.016544  -0.012895  0  3.99424  0
C  C29  1  0.52500539  0.73789425  0.65283062  1  0  -0.043556  0  3.772351  0  0  -0.016816  0  4.008426  0  0  -0.024136  0  4.031054  0  0  -0.016556  -0.012854  0  3.994247  0
C  C30  1  0.62578931  0.38611625  0.38848349  1  0  -0.087678  0  3.717034  0  0  -0.13306  0  3.975946  0  0  -0.131195  0  3.994538  0  0  -0.089665  -0.134285  0  3.964253  0
C  C31  1  0.37420323  0.61388265  0.61151629  1  0  -0.087848  0  3.716939  0  0  -0.133216  0  3.975845  0  0  -0.13135  0  3.994435  0  0  -0.089722  -0.134441  0  3.964152  0
C  C32  1  0.69877220  0.45739623  0.50979128  1  0  -0.065118  0  3.817132  0  0  -0.0416  0  4.058846  0  0  -0.050513  0  4.084206  0  0  -0.022612  -0.036043  0  4.041932  0
C  C33  1  0.30122302  0.54259817  0.49020660  1  0  -0.064805  0  3.817006  0  0  -0.041327  0  4.058745  0  0  -0.050239  0  4.084096  0  0  -0.022548  -0.035771  0  4.041829  0
C  C34  1  0.62158042  0.40522426  0.59052291  1  0  -0.18708  0  3.686225  0  0  -0.220241  0  3.9353  0  0  -0.222848  0  3.957566  0  0  -0.090322  -0.218102  0  3.920147  0
C  C35  1  0.37840952  0.59477129  0.40947508  1  0  -0.18728  0  3.686326  0  0  -0.220392  0  3.935423  0  0  -0.223005  0  3.957729  0  0  -0.090295  -0.218251  0  3.920266  0
C  C36  1  0.46965702  0.28134676  0.54868361  1  0  0.324117  0  3.830331  0  0  0.321128  0  4.096107  0  0  0.32936  0  4.113608  0  0  0.083711  0.315319  0  4.083333  0
C  C37  1  0.53033342  0.71864987  0.45131793  1  0  0.324086  0  3.830481  0  0  0.321051  0  4.096286  0  0  0.329283  0  4.113781  0  0  0.083614  0.315242  0  4.083514  0
C  C38  1  0.39693805  0.21007421  0.42669755  1  0  -0.143759  0  3.627103  0  0  -0.181204  0  3.876012  0  0  -0.182169  0  3.892681  0  0  -0.080289  -0.179864  0  3.864231  0
C  C39  1  0.60304720  0.78992920  0.57330418  1  0  -0.143812  0  3.627243  0  0  -0.181192  0  3.876135  0  0  -0.182154  0  3.892805  0  0  -0.080214  -0.179857  0  3.86436  0
C  C40  1  0.40119741  0.18651177  0.21742914  1  0  0.664382  0  3.880414  0  0  0.615045  0  4.171829  0  0  0.648795  0  4.163972  0  0  0.211093  0.593028  0  4.170887  0
C  C41  1  0.59879890  0.81349043  0.78257429  1  0  0.664374  0  3.880329  0  0  0.614986  0  4.171807  0  0  0.648737  0  4.163952  0  0  0.211052  0.592969  0  4.170859  0
C  C42  1  0.85732118  0.59028409  0.55493827  1  0  0.65161  0  3.789961  0  0  0.59935  0  4.094489  0  0  0.63236  0  4.085881  0  0  0.237862  0.57683  0  4.10005  0
C  C43  1  0.14268377  0.40971130  0.44506472  1  0  0.651678  0  3.789589  0  0  0.59939  0  4.094185  0  0  0.632403  0  4.085568  0  0  0.237843  0.57687  0  4.099746  0
C  C44  1  0.88098866  0.56371946  0.90064792  1  0  -0.043652  0  3.756958  0  0  -0.017175  0  3.986207  0  0  -0.024343  0  4.009415  0  0  -0.013284  -0.013293  0  3.972444  0
C  C45  1  0.11901451  0.43628282  0.09934843  1  0  -0.043677  0  3.757073  0  0  -0.017176  0  3.986273  0  0  -0.024346  0  4.009481  0  0  -0.013215  -0.013293  0  3.97251  0
C  C46  1  0.73718633  0.46266274  0.91092600  1  0  -0.112684  0  3.714598  0  0  -0.152038  0  3.96758  0  0  -0.151341  0  3.985184  0  0  -0.088355  -0.152797  0  3.957618  0
C  C47  1  0.26281405  0.53733844  0.08906970  1  0  -0.1126  0  3.714687  0  0  -0.151981  0  3.967677  0  0  -0.151283  0  3.98528  0  0  -0.088387  -0.15274  0  3.957715  0
C  C48  1  0.70120026  0.30885905  0.87448572  1  0  -0.055945  0  3.801085  0  0  -0.030642  0  4.038371  0  0  -0.03684  0  4.059346  0  0  -0.01645  -0.027285  0  4.02582  0
C  C49  1  0.29880544  0.69114089  0.12551482  1  0  -0.055882  0  3.800936  0  0  -0.030577  0  4.038228  0  0  -0.036773  0  4.059201  0  0  -0.016443  -0.027222  0  4.025678  0
C  C50  1  0.80212832  0.25484073  0.82184421  1  0  -0.167028  0  3.65711  0  0  -0.201394  0  3.906384  0  0  -0.202939  0  3.923642  0  0  -0.08765  -0.200718  0  3.895843  0
C  C51  1  0.19787672  0.74516032  0.17815804  1  0  -0.167099  0  3.657034  0  0  -0.201465  0  3.906368  0  0  -0.203014  0  3.923626  0  0  -0.087679  -0.200789  0  3.895829  0
C  C52  1  0.94088857  0.35647954  0.80671655  1  0  0.320255  0  3.806997  0  0  0.312354  0  4.079651  0  0  0.320191  0  4.096658  0  0  0.080707  0.306556  0  4.068696  0
C  C53  1  0.05912042  0.64352258  0.19328737  1  0  0.320353  0  3.806831  0  0  0.312321  0  4.079655  0  0  0.320159  0  4.096661  0  0  0.080713  0.306524  0  4.068701  0
C  C54  1  0.98371908  0.51079706  0.84887337  1  0  -0.18269  0  3.712291  0  0  -0.218268  0  3.968146  0  0  -0.219615  0  3.986468  0  0  -0.089248  -0.216991  0  3.956497  0
C  C55  1  0.01628826  0.48920397  0.15112927  1  0  -0.182779  0  3.712371  0  0  -0.218311  0  3.968255  0  0  -0.219654  0  3.986577  0  0  -0.089286  -0.217034  0  3.956606  0
C  C56  1  0.92246417  0.72844674  0.94746926  1  0  0.73312  0  3.850615  0  0  0.686228  0  4.142661  0  0  0.721328  0  4.131425  0  0  0.237125  0.66223  0  4.14545  0
C  C57  1  0.07754508  0.27155881  0.05253194  1  0  0.733126  0  3.850675  0  0  0.686249  0  4.142687  0  0  0.721351  0  4.131455  0  0  0.237155  0.66225  0  4.145478  0
C  C58  1  0.55408740  0.20491937  0.89498529  1  0  0.686903  0  3.873346  0  0  0.642703  0  4.164119  0  0  0.677121  0  4.153528  0  0  0.218915  0.619803  0  4.162917  0
C  C59  1  0.44591879  0.79508168  0.10501633  1  0  0.686699  0  3.873271  0  0  0.642529  0  4.163997  0  0  0.676946  0  4.153407  0  0  0.21886  0.619631  0  4.162789  0
O  O60  1  0.25664049  0.08185816  0.17440599  1  0  -0.693982  0  2.060764  0  0  -0.643773  0  2.29816  0  0  -0.668655  0  2.288321  0  0  -0.33716  -0.620103  0  2.303114  0
O  O61  1  0.74336061  0.91814177  0.82559706  1  0  -0.693968  0  2.060682  0  0  -0.643783  0  2.298171  0  0  -0.668653  0  2.288302  0  0  -0.337172  -0.620107  0  2.303127  0
O  O62  1  0.48784279  0.22691576  0.15010020  1  0  -0.700805  0  2.005143  0  0  -0.650513  0  2.23133  0  0  -0.674986  0  2.221695  0  0  -0.360086  -0.627083  0  2.237442  0
O  O63  1  0.51215717  0.77308415  0.84990430  1  0  -0.700795  0  2.005144  0  0  -0.65045  0  2.231336  0  0  -0.674924  0  2.221701  0  0  -0.360088  -0.627014  0  2.237446  0
O  O64  1  0.91808748  0.63123909  0.46808948  1  0  -0.550767  0  2.066359  0  0  -0.510011  0  2.280353  0  0  -0.529293  0  2.26454  0  0  -0.330315  -0.496481  0  2.291055  0
O  O65  1  0.08191658  0.36874623  0.53190929  1  0  -0.550732  0  2.066233  0  0  -0.509985  0  2.280262  0  0  -0.529267  0  2.264446  0  0  -0.330371  -0.496453  0  2.290961  0
O  O66  1  0.93005021  0.65911712  0.65993307  1  0  -0.530661  0  2.006379  0  0  -0.478192  0  2.223049  0  0  -0.499806  0  2.21611  0  0  -0.256334  -0.463755  0  2.22803  0
O  O67  1  0.06994911  0.34087618  0.34006203  1  0  -0.530775  0  2.005983  0  0  -0.478247  0  2.222615  0  0  -0.499864  0  2.215671  0  0  -0.256309  -0.463811  0  2.227597  0
O  O68  1  0.38261783  0.22421654  0.61864560  1  0  -0.502635  0  2.088304  0  0  -0.457207  0  2.282688  0  0  -0.47401  0  2.274139  0  0  -0.353346  -0.445182  0  2.288316  0
O  O69  1  0.61736828  0.77578351  0.38135493  1  0  -0.502535  0  2.088477  0  0  -0.457094  0  2.282864  0  0  -0.473897  0  2.27431  0  0  -0.353286  -0.44507  0  2.288495  0
O  O70  1  0.05321095  0.82027862  0.93839142  1  0  -0.758972  0  2.081867  0  0  -0.719034  0  2.354844  0  0  -0.742814  0  2.340305  0  0  -0.420718  -0.691023  0  2.364828  0
O  O71  1  0.94679302  0.17972808  0.06160990  1  0  -0.758996  0  2.081772  0  0  -0.719091  0  2.354785  0  0  -0.742853  0  2.340199  0  0  -0.420758  -0.691068  0  2.36477  0
O  O72  1  0.82314494  0.76545876  0.99426235  1  0  -0.744913  0  2.090456  0  0  -0.705009  0  2.350502  0  0  -0.72921  0  2.338443  0  0  -0.402046  -0.678895  0  2.359593  0
O  O73  1  0.17686181  0.23454906  0.00573879  1  0  -0.744854  0  2.090532  0  0  -0.704947  0  2.350541  0  0  -0.729151  0  2.338488  0  0  -0.402043  -0.678847  0  2.359633  0
O  O74  1  0.56679045  0.09930476  0.94117138  1  0  -0.787284  0  2.093696  0  0  -0.744585  0  2.349761  0  0  -0.769957  0  2.33945  0  0  -0.4085  -0.712197  0  2.356299  0
O  O75  1  0.43321228  0.90069629  0.05883130  1  0  -0.787184  0  2.093615  0  0  -0.744512  0  2.349696  0  0  -0.769885  0  2.339389  0  0  -0.408487  -0.712127  0  2.356232  0
O  O76  1  0.41756444  0.22613073  0.86849584  1  0  -0.672573  0  1.9112  0  0  -0.630394  0  2.134484  0  0  -0.652911  0  2.123022  0  0  -0.360194  -0.608031  0  2.142805  0
O  O77  1  0.58244288  0.77387036  0.13150268  1  0  -0.672508  0  1.911206  0  0  -0.630339  0  2.134467  0  0  -0.652856  0  2.123004  0  0  -0.360141  -0.60797  0  2.14279  0
O  O78  1  0.03197258  0.29586225  0.75059858  1  0  -0.51654  0  2.110945  0  0  -0.460647  0  2.306835  0  0  -0.476967  0  2.296542  0  0  -0.338431  -0.449015  0  2.314004  0
O  O79  1  0.96803108  0.70414111  0.24940050  1  0  -0.516513  0  2.110944  0  0  -0.460547  0  2.306886  0  0  -0.476864  0  2.296596  0  0  -0.338376  -0.448915  0  2.314054  0
O  O80  1  0.04207664  0.01503564  0.78347542  1  0  -0.883316  0  1.837695  0  0  -0.844716  0  2.012589  0  0  -0.86206  0  1.981275  0  0  -0.633779  -0.824632  0  2.03784  0
O  O81  1  0.95792350  0.98496204  0.21652712  1  0  -0.883333  0  1.837691  0  0  -0.84473  0  2.012593  0  0  -0.862075  0  1.981284  0  0  -0.633792  -0.82464  0  2.037855  0
O  O82  1  0.25857692  0.86292173  0.78314348  1  0  -0.906664  0  1.87441  0  0  -0.869692  0  2.055003  0  0  -0.886972  0  2.023051  0  0  -0.647791  -0.849584  0  2.081425  0
O  O83  1  0.74142463  0.13707938  0.21685572  1  0  -0.90657  0  1.874483  0  0  -0.869624  0  2.055059  0  0  -0.886901  0  2.023101  0  0  -0.647788  -0.849509  0  2.081483  0
