# generated using pymatgen
data_ZnH15C25NO4
_symmetry_space_group_name_H-M   'P 1'
_cell_length_a   16.16403824
_cell_length_b   18.26811917
_cell_length_c   19.67679591
_cell_angle_alpha   90.03448403
_cell_angle_beta   89.73430196
_cell_angle_gamma   90.08280077
_symmetry_Int_Tables_number   1
_chemical_formula_structural   ZnH15C25NO4
_chemical_formula_sum   'Zn2 H30 C50 N2 O8'
_cell_volume   5810.22413777
_cell_formula_units_Z   2
loop_
 _symmetry_equiv_pos_site_id
 _symmetry_equiv_pos_as_xyz
  1  'x, y, z'
loop_
 _atom_site_type_symbol
 _atom_site_label
 _atom_site_symmetry_multiplicity
 _atom_site_fract_x
 _atom_site_fract_y
 _atom_site_fract_z
 _atom_site_occupancy
 _atom_site_pbe_bader_charge
 _atom_site_pbe_bader_spin_density
 _atom_site_pbe_cm5_charge
 _atom_site_pbe_ddec_charge
 _atom_site_pbe_ddec_spin_density
 _atom_site_pbe_ddec_sum_bond_order
 _atom_site_pbe_magmom
Zn  Zn0  1  0.50016917  0.57639896  0.50003514  1  1.260761  0  0.662938  0.811995  0  2.439113  0
Zn  Zn1  1  0.49983250  0.42359802  0.49994868  1  1.279661  0  0.662974  0.812073  0  2.438739  0
H  H2  1  0.94918398  0.43174909  0.40126593  1  0.090382  0  0.100516  0.087374  0  0.9909  0
H  H3  1  0.05081454  0.56824572  0.59875500  1  0.090201  0  0.100627  0.087558  0  0.99097  0
H  H4  1  0.41488654  0.69236287  0.57856837  1  0.137515  0  0.131128  0.106889  0  0.965317  0
H  H5  1  0.58513302  0.30763688  0.42145910  1  0.137658  0  0.131215  0.107073  0  0.965151  0
H  H6  1  0.41161667  0.82942032  0.58291489  1  0.072728  0  0.112174  0.117579  0  0.99395  0
H  H7  1  0.58839361  0.17057888  0.41710803  1  0.073331  0  0.112097  0.117506  0  0.994074  0
H  H8  1  0.58828648  0.82963362  0.41701746  1  0.072174  0  0.112015  0.117402  0  0.993608  0
H  H9  1  0.41172566  0.17036668  0.58300597  1  0.072363  0  0.111971  0.11738  0  0.993819  0
H  H10  1  0.58527913  0.69257267  0.42140080  1  0.132186  0  0.131258  0.107079  0  0.965165  0
H  H11  1  0.41473981  0.30742873  0.57862667  1  0.13215  0  0.131196  0.10691  0  0.965276  0
H  H12  1  0.63067343  0.93262384  0.47758858  1  0.030621  0  0.107032  0.106166  0  0.995008  0
H  H13  1  0.36933811  0.06737864  0.52242215  1  0.030673  0  0.107071  0.106306  0  0.994816  0
H  H14  1  0.63075532  0.06756860  0.47761969  1  0.027496  0  0.107131  0.106367  0  0.995168  0
H  H15  1  0.36925559  0.93243333  0.52239408  1  0.073303  0  0.107127  0.106311  0  0.994963  0
H  H16  1  0.50104618  0.38264898  0.71695336  1  0.075428  0  0.101859  0.105457  0  1.004571  0
H  H17  1  0.49906192  0.61736450  0.28302456  1  0.075338  0  0.101793  0.105223  0  1.004829  0
H  H18  1  0.50137724  0.38207132  0.84403716  1  0.076734  0  0.097856  0.096559  0  1.006769  0
H  H19  1  0.49879396  0.61794768  0.15594566  1  0.076873  0  0.097978  0.096716  0  1.006889  0
H  H20  1  0.49829084  0.61717051  0.71706626  1  0.078623  0  0.101618  0.104795  0  1.005512  0
H  H21  1  0.50185315  0.38284463  0.28290546  1  0.078381  0  0.1016  0.104585  0  1.005688  0
H  H22  1  0.40369530  0.58104491  0.06352795  1  0.065149  0  0.100323  0.099853  0  1.001215  0
H  H23  1  0.59652297  0.41901024  0.93643797  1  0.063837  0  0.100365  0.099962  0  1.001336  0
H  H24  1  0.05315107  0.55708879  0.39577598  1  0.066806  0  0.101199  0.088606  0  0.989597  0
H  H25  1  0.94684993  0.44290602  0.60424646  1  0.066216  0  0.101165  0.088609  0  0.989434  0
H  H26  1  0.04997120  0.37331228  0.50615182  1  0.042656  0  0.099239  0.08643  0  0.994033  0
H  H27  1  0.95002979  0.62668034  0.49387063  1  0.043297  0  0.09926  0.086474  0  0.993949  0
H  H28  1  0.49831534  0.61779418  0.84414547  1  0.076096  0  0.098152  0.096927  0  1.006567  0
H  H29  1  0.50187011  0.38222427  0.15582816  1  0.074268  0  0.098111  0.096797  0  1.006608  0
H  H30  1  0.40325185  0.58091270  0.93760512  1  0.057699  0  0.099718  0.098928  0  1.001971  0
H  H31  1  0.59698314  0.41915506  0.06236126  1  0.054714  0  0.099835  0.09881  0  1.00201  0
C  C32  1  0.50116692  0.50010468  0.36659860  1  1.583379  0  0.213468  0.591643  0  4.172823  0
C  C33  1  0.49888363  0.49990000  0.63338304  1  1.582688  0  0.213235  0.591292  0  4.172866  0
C  C34  1  0.50135162  0.43378099  0.81627752  1  -0.033777  0  -0.095438  -0.142114  0  4.000274  0
C  C35  1  0.49880102  0.56623636  0.18370637  1  -0.033163  0  -0.095514  -0.142081  0  4.000032  0
C  C36  1  0.49961177  0.49993647  0.85287671  1  -0.070495  0  -0.006474  0.072997  0  4.00979  0
C  C37  1  0.50056873  0.50008964  0.14709795  1  -0.073146  0  -0.006371  0.07365  0  4.009548  0
C  C38  1  0.49780630  0.56607356  0.81634471  1  -0.029977  0  -0.095524  -0.141855  0  4.001471  0
C  C39  1  0.50235626  0.43394597  0.18362238  1  -0.027489  0  -0.095726  -0.141906  0  4.000581  0
C  C40  1  0.49808196  0.56607365  0.74562656  1  -0.064856  0  -0.087078  -0.088595  0  3.996797  0
C  C41  1  0.50206017  0.43393930  0.25434720  1  -0.063982  0  -0.086735  -0.087789  0  3.996184  0
C  C42  1  0.49912015  0.49990536  0.70954065  1  -0.032021  0  -0.020799  -0.034156  0  3.967529  0
C  C43  1  0.50098980  0.50010428  0.29043777  1  -0.031792  0  -0.020967  -0.034594  0  3.96785  0
C  C44  1  0.44682975  0.54624723  0.96493508  1  -0.139312  0  -0.093688  -0.131398  0  4.004249  0
C  C45  1  0.55338726  0.45380136  0.03503644  1  -0.138418  0  -0.093416  -0.12953  0  4.004342  0
C  C46  1  0.44706154  0.54631472  0.03568638  1  0.000565  0  -0.093573  -0.130593  0  4.004279  0
C  C47  1  0.55315239  0.45373167  0.96428413  1  -0.000773  0  -0.093792  -0.132097  0  4.003451  0
C  C48  1  0.50035665  0.50007778  0.07205224  1  0.072285  0  -0.011159  0.06303  0  4.015154  0
C  C49  1  0.49985170  0.49996806  0.92792031  1  0.070875  0  -0.010481  0.066519  0  4.01178  0
C  C50  1  0.45209126  0.72563347  0.54396798  1  0.406763  0  0.062856  0.109297  0  3.919857  0
C  C51  1  0.54792397  0.27436465  0.45605696  1  0.407364  0  0.062732  0.109184  0  3.91979  0
C  C52  1  0.45030940  0.80163651  0.54548831  1  0.087712  0  -0.080858  -0.181858  0  3.953462  0
C  C53  1  0.54970582  0.19836270  0.45453866  1  0.087329  0  -0.080866  -0.181832  0  3.9538  0
C  C54  1  0.66252649  0.49961643  0.49893217  1  1.649008  0  0.214004  0.668373  0  4.246228  0
C  C55  1  0.33747700  0.50035922  0.50106282  1  1.648489  0  0.213937  0.668305  0  4.246672  0
C  C56  1  0.49996070  0.84171461  0.49998359  1  -0.141319  0  0.014756  0.111613  0  3.996867  0
C  C57  1  0.50005268  0.15828733  0.50004034  1  -0.14133  0  0.014826  0.111696  0  3.99771  0
C  C58  1  0.54966761  0.80175768  0.45447555  1  0.087196  0  -0.081001  -0.182081  0  3.952684  0
C  C59  1  0.45034824  0.19824208  0.54555091  1  0.086827  0  -0.080806  -0.18197  0  3.953287  0
C  C60  1  0.54806052  0.72575229  0.45603357  1  0.412018  0  0.062632  0.109029  0  3.920318  0
C  C61  1  0.45195595  0.27424965  0.54399086  1  0.411479  0  0.062776  0.109289  0  3.920738  0
C  C62  1  0.57288303  0.96200055  0.48641316  1  -0.107375  0  -0.084344  -0.118985  0  3.985648  0
C  C63  1  0.42712850  0.03799974  0.51360315  1  -0.107376  0  -0.084404  -0.119372  0  3.985761  0
C  C64  1  0.57292265  0.03811873  0.48642348  1  0.065534  0  -0.08433  -0.11971  0  3.986322  0
C  C65  1  0.42709012  0.96188320  0.51359334  1  0.019413  0  -0.08446  -0.119691  0  3.986137  0
C  C66  1  0.50004774  0.07750832  0.50002849  1  0.08945  0  -0.004896  0.060974  0  4.001937  0
C  C67  1  0.49996378  0.92249197  0.49999036  1  0.090009  0  -0.00499  0.060777  0  4.001688  0
C  C68  1  0.02853718  0.53186189  0.44205369  1  -0.023532  0  -0.069958  -0.075805  0  3.629497  0
C  C69  1  0.97146691  0.46813183  0.55796671  1  -0.023295  0  -0.069938  -0.07587  0  3.628889  0
C  C70  1  0.97281925  0.46192173  0.44511855  1  -0.048032  0  -0.070076  -0.075706  0  3.63322  0
C  C71  1  0.02718360  0.53807473  0.55490134  1  -0.04806  0  -0.070332  -0.076109  0  3.63267  0
C  C72  1  0.75198655  0.49972900  0.49870106  1  0.138424  0  -0.061182  -0.202708  0  4.015149  0
C  C73  1  0.24802744  0.50025213  0.50130864  1  0.138453  0  -0.06131  -0.202974  0  4.013955  0
C  C74  1  0.97311317  0.57050256  0.49657613  1  -0.015754  0  -0.073517  -0.083268  0  3.64144  0
C  C75  1  0.02688845  0.42949007  0.50344122  1  -0.014794  0  -0.073691  -0.083559  0  3.641772  0
C  C76  1  0.91495444  0.50070639  0.49957977  1  0.196425  0  0.006401  0.126566  0  3.79629  0
C  C77  1  0.08504779  0.49928460  0.50043962  1  0.19609  0  0.006545  0.127042  0  3.796447  0
C  C78  1  0.82740295  0.50019298  0.49914569  1  -0.506132  0  -0.044529  -0.069518  0  4.116787  0
C  C79  1  0.17258629  0.49979526  0.50087120  1  -0.505949  0  -0.044365  -0.069432  0  4.115513  0
C  C80  1  0.50067020  0.43376016  0.74555653  1  -0.068414  0  -0.086923  -0.088245  0  3.995143  0
C  C81  1  0.49945459  0.56625004  0.25442592  1  -0.067682  0  -0.086891  -0.088042  0  3.995579  0
N  N82  1  0.50015614  0.68844062  0.50003938  1  -1.221226  0  -0.317044  -0.189051  0  3.513107  0
N  N83  1  0.49986033  0.31155914  0.49998556  1  -1.221405  0  -0.317252  -0.189404  0  3.513637  0
O  O84  1  0.50119191  0.56220194  0.39619473  1  -1.175487  0  -0.319287  -0.551278  0  2.32914  0
O  O85  1  0.49882956  0.43780984  0.60379157  1  -1.175909  0  -0.319306  -0.551348  0  2.329618  0
O  O86  1  0.50114703  0.43802760  0.39614628  1  -1.170629  0  -0.319529  -0.551397  0  2.328902  0
O  O87  1  0.49888002  0.56198308  0.60383187  1  -1.1705  0  -0.319329  -0.551061  0  2.328205  0
O  O88  1  0.62739046  0.56203438  0.49910490  1  -1.147083  0  -0.31875  -0.547887  0  2.259923  0
O  O89  1  0.37261305  0.43794783  0.50088602  1  -1.147727  0  -0.318721  -0.547722  0  2.260189  0
O  O90  1  0.62723370  0.43720638  0.49907145  1  -1.162901  0  -0.318515  -0.547648  0  2.261813  0
O  O91  1  0.37277414  0.56277857  0.50091692  1  -1.161981  0  -0.318574  -0.547736  0  2.261522  0
