# generated using pymatgen
data_ZnPH5C3NO3
_symmetry_space_group_name_H-M   'P 1'
_cell_length_a   8.66526089
_cell_length_b   9.31752315
_cell_length_c   15.00500000
_cell_angle_alpha   90.00000000
_cell_angle_beta   90.00000000
_cell_angle_gamma   109.13402259
_symmetry_Int_Tables_number   1
_chemical_formula_structural   ZnPH5C3NO3
_chemical_formula_sum   'Zn8 P8 H40 C24 N8 O24'
_cell_volume   1144.55605052
_cell_formula_units_Z   8
loop_
 _symmetry_equiv_pos_site_id
 _symmetry_equiv_pos_as_xyz
  1  'x, y, z'
loop_
 _atom_site_type_symbol
 _atom_site_label
 _atom_site_symmetry_multiplicity
 _atom_site_fract_x
 _atom_site_fract_y
 _atom_site_fract_z
 _atom_site_occupancy
 _atom_site_hle17_bader_spin_density
 _atom_site_hle17_ddec_charge
 _atom_site_hle17_ddec_spin_density
 _atom_site_hle17_ddec_sum_bond_order
 _atom_site_hle17_magmom
 _atom_site_hse06_10hf_bader_spin_density
 _atom_site_hse06_10hf_ddec_charge
 _atom_site_hse06_10hf_ddec_spin_density
 _atom_site_hse06_10hf_ddec_sum_bond_order
 _atom_site_hse06_10hf_magmom
 _atom_site_hse06_bader_spin_density
 _atom_site_hse06_ddec_charge
 _atom_site_hse06_ddec_spin_density
 _atom_site_hse06_ddec_sum_bond_order
 _atom_site_hse06_magmom
 _atom_site_pbe_bader_charge
 _atom_site_pbe_bader_spin_density
 _atom_site_pbe_cm5_charge
 _atom_site_pbe_ddec_charge
 _atom_site_pbe_ddec_spin_density
 _atom_site_pbe_ddec_sum_bond_order
 _atom_site_pbe_magmom
Zn  Zn0  1  0.40365285  0.03655667  0.35688504  1  0  1.074063  0  1.831181  0  0  0.891118  0  2.302862  0  0  0.931443  0  2.251353  0  1.25451  0  0.72177  0.863594  0  2.337829  0
Zn  Zn1  1  0.09634681  0.96344317  0.85688504  1  0  1.074076  0  1.831161  0  0  0.891111  0  2.302838  0  0  0.931454  0  2.251333  0  1.254505  0  0.721774  0.863599  0  2.337807  0
Zn  Zn2  1  0.59634676  0.96344317  0.64311496  1  0  1.074083  0  1.831157  0  0  0.891137  0  2.302837  0  0  0.931464  0  2.251328  0  1.254509  0  0.721785  0.863616  0  2.337804  0
Zn  Zn3  1  0.90365280  0.03655667  0.14311496  1  0  1.074066  0  1.831158  0  0  0.891093  0  2.302828  0  0  0.931459  0  2.251335  0  1.254515  0  0.721772  0.863594  0  2.337802  0
Zn  Zn4  1  0.07460419  0.53242891  0.25279573  1  0  1.231325  0  1.802705  0  0  1.068461  0  2.290211  0  0  1.112123  0  2.225314  0  1.343793  0  0.701049  1.037333  0  2.335104  0
Zn  Zn5  1  0.42539548  0.46757093  0.75279573  1  0  1.231305  0  1.802712  0  0  1.068438  0  2.29021  0  0  1.112103  0  2.22531  0  1.343813  0  0.701046  1.037313  0  2.335102  0
Zn  Zn6  1  0.92539582  0.46757207  0.74720427  1  0  1.23128  0  1.8027  0  0  1.068413  0  2.2902  0  0  1.112079  0  2.225301  0  1.343816  0  0.701037  1.037286  0  2.335091  0
Zn  Zn7  1  0.57460414  0.53242891  0.24720427  1  0  1.231287  0  1.802686  0  0  1.068416  0  2.290191  0  0  1.11208  0  2.225296  0  1.343814  0  0.70104  1.03729  0  2.335086  0
P  P8  1  0.39709807  0.69655109  0.37265112  1  0  1.42799  0  4.94891  0  0  1.243739  0  5.451819  0  0  1.294277  0  5.415893  0  3.370958  0  0.274041  1.208903  0  5.475196  0
P  P9  1  0.10290160  0.30344875  0.87265112  1  0  1.427941  0  4.948883  0  0  1.243686  0  5.451801  0  0  1.294226  0  5.415877  0  3.37122  0  0.27401  1.208848  0  5.475186  0
P  P10  1  0.60290195  0.30344989  0.62734822  1  0  1.427942  0  4.948858  0  0  1.243702  0  5.451766  0  0  1.294237  0  5.415846  0  3.370917  0  0.27404  1.208865  0  5.475145  0
P  P11  1  0.89709801  0.69655109  0.12734822  1  0  1.428001  0  4.948843  0  0  1.243754  0  5.451747  0  0  1.29429  0  5.415824  0  3.370966  0  0.274057  1.208915  0  5.475129  0
P  P12  1  0.74259712  0.33153195  0.35249517  1  0  1.439995  0  4.956632  0  0  1.254028  0  5.455305  0  0  1.305359  0  5.418214  0  3.366103  0  0.282346  1.218326  0  5.480603  0
P  P13  1  0.75740204  0.66846675  0.85249517  1  0  1.439897  0  4.956642  0  0  1.25393  0  5.455329  0  0  1.30526  0  5.418233  0  3.365856  0  0.282284  1.21823  0  5.480623  0
P  P14  1  0.25740209  0.66846675  0.64750483  1  0  1.439997  0  4.956575  0  0  1.254031  0  5.455255  0  0  1.30536  0  5.41816  0  3.366018  0  0.282324  1.21833  0  5.480553  0
P  P15  1  0.24259757  0.33153309  0.14750483  1  0  1.439961  0  4.956646  0  0  1.253996  0  5.455322  0  0  1.305327  0  5.418228  0  3.366102  0  0.282308  1.218297  0  5.48062  0
H  H16  1  0.44737065  0.61433834  0.43918894  1  0  -0.142853  0  0.887347  0  0  -0.107076  0  0.968025  0  0  -0.11233  0  0.966247  0  -0.449589  0  0.088453  -0.103596  0  0.968954  0
H  H17  1  0.05262902  0.38566150  0.93918894  1  0  -0.142844  0  0.887349  0  0  -0.107067  0  0.968029  0  0  -0.112321  0  0.96625  0  -0.449839  0  0.088454  -0.103587  0  0.968958  0
H  H18  1  0.55263052  0.38566263  0.56081106  1  0  -0.142839  0  0.887339  0  0  -0.107073  0  0.968026  0  0  -0.112327  0  0.96625  0  -0.449599  0  0.088452  -0.103592  0  0.968954  0
H  H19  1  0.94737020  0.61433721  0.06081106  1  0  -0.142855  0  0.887351  0  0  -0.107078  0  0.968026  0  0  -0.112332  0  0.966249  0  -0.449597  0  0.088455  -0.103598  0  0.968955  0
H  H20  1  0.80022437  0.33574767  0.44096568  1  0  -0.154783  0  0.89107  0  0  -0.118732  0  0.973184  0  0  -0.123367  0  0.969353  0  -0.448273  0  0.08361  -0.115872  0  0.976362  0
H  H21  1  0.69977364  0.66425103  0.94096568  1  0  -0.154754  0  0.891039  0  0  -0.118702  0  0.973144  0  0  -0.123337  0  0.969315  0  -0.448032  0  0.083628  -0.11584  0  0.976322  0
H  H22  1  0.19977484  0.66425103  0.55903432  1  0  -0.154779  0  0.891072  0  0  -0.11873  0  0.973185  0  0  -0.123365  0  0.969356  0  -0.448195  0  0.083622  -0.115869  0  0.976363  0
H  H23  1  0.30022442  0.33574767  0.05903432  1  0  -0.154782  0  0.891074  0  0  -0.118733  0  0.973189  0  0  -0.123368  0  0.969359  0  -0.448272  0  0.083614  -0.115872  0  0.976368  0
H  H24  1  0.30534928  0.31228347  0.36473642  1  0  0.089843  0  0.956873  0  0  0.09625  0  1.025362  0  0  0.099244  0  1.022149  0  0.133154  0  0.118572  0.093929  0  1.027655  0
H  H25  1  0.19465038  0.68771637  0.86473642  1  0  0.089838  0  0.956885  0  0  0.096248  0  1.025374  0  0  0.099242  0  1.022161  0  0.133151  0  0.118575  0.093929  0  1.027665  0
H  H26  1  0.69465033  0.68771637  0.63526425  1  0  0.089838  0  0.95689  0  0  0.096247  0  1.025382  0  0  0.099241  0  1.022167  0  0.133146  0  0.118569  0.093927  0  1.027673  0
H  H27  1  0.80534923  0.31228347  0.13526358  1  0  0.089837  0  0.956882  0  0  0.096248  0  1.025363  0  0  0.099241  0  1.022151  0  0.133148  0  0.118572  0.093928  0  1.027653  0
H  H28  1  0.14891570  0.42106626  0.46947218  1  0  0.115488  0  0.963354  0  0  0.123659  0  1.02462  0  0  0.126393  0  1.024524  0  0.118933  0  0.110082  0.121478  0  1.025141  0
H  H29  1  0.35108552  0.57893472  0.96947284  1  0  0.11551  0  0.963322  0  0  0.12371  0  1.024547  0  0  0.126444  0  1.024452  0  0.118934  0  0.110092  0.121528  0  1.02507  0
H  H30  1  0.85108507  0.57893359  0.53052782  1  0  0.115487  0  0.963346  0  0  0.123684  0  1.024583  0  0  0.126417  0  1.024487  0  0.118927  0  0.110084  0.121502  0  1.025104  0
H  H31  1  0.64891565  0.42106626  0.03052782  1  0  0.11549  0  0.963355  0  0  0.123661  0  1.024621  0  0  0.126395  0  1.024526  0  0.118937  0  0.110087  0.12148  0  1.025141  0
H  H32  1  0.03944592  0.27874744  0.61170477  1  0  0.108915  0  0.943011  0  0  0.119785  0  1.003997  0  0  0.122762  0  1.001345  0  0.122418  0  0.110555  0.117451  0  1.006128  0
H  H33  1  0.46055334  0.72125127  0.11170543  1  0  0.108909  0  0.943017  0  0  0.119775  0  1.004009  0  0  0.122753  0  1.001355  0  0.122416  0  0.110556  0.11744  0  1.006139  0
H  H34  1  0.96055329  0.72125127  0.38829523  1  0  0.108914  0  0.943013  0  0  0.119781  0  1.004003  0  0  0.122759  0  1.00135  0  0.12241  0  0.110559  0.117447  0  1.006133  0
H  H35  1  0.53944512  0.27874858  0.88829523  1  0  0.108909  0  0.942999  0  0  0.119773  0  1.003993  0  0  0.12275  0  1.001342  0  0.122403  0  0.110551  0.117437  0  1.006125  0
H  H36  1  0.25608235  0.94344379  0.52989670  1  0  0.092776  0  0.952321  0  0  0.098721  0  1.022097  0  0  0.10131  0  1.019713  0  0.125473  0  0.120502  0.096474  0  1.02446  0
H  H37  1  0.24391691  0.05655492  0.02989603  1  0  0.092859  0  0.952264  0  0  0.098715  0  1.022131  0  0  0.101304  0  1.019747  0  0.125479  0  0.120489  0.096468  0  1.024494  0
H  H38  1  0.74391726  0.05655605  0.47010397  1  0  0.092854  0  0.95226  0  0  0.09871  0  1.022128  0  0  0.101298  0  1.019744  0  0.125478  0  0.120486  0.096463  0  1.024491  0
H  H39  1  0.75608270  0.94344493  0.97010330  1  0  0.092854  0  0.952275  0  0  0.098712  0  1.022139  0  0  0.101301  0  1.019755  0  0.125478  0  0.120492  0.096465  0  1.024502  0
H  H40  1  0.98199768  0.05535075  0.69444119  1  0  0.064213  0  0.956725  0  0  0.081003  0  1.02251  0  0  0.081182  0  1.02251  0  0.059169  0  0.106115  0.080664  0  1.022782  0
H  H41  1  0.51800149  0.94464796  0.19444119  1  0  0.064211  0  0.95671  0  0  0.080996  0  1.022491  0  0  0.081174  0  1.02249  0  0.059144  0  0.106122  0.080658  0  1.022763  0
H  H42  1  0.01800269  0.94464796  0.30555881  1  0  0.064208  0  0.956731  0  0  0.081013  0  1.022493  0  0  0.081191  0  1.022493  0  0.059135  0  0.106128  0.080674  0  1.022765  0
H  H43  1  0.48199813  0.05535189  0.80555881  1  0  0.064193  0  0.956729  0  0  0.081014  0  1.022493  0  0  0.081193  0  1.022494  0  0.059164  0  0.106119  0.080675  0  1.022764  0
H  H44  1  0.01393163  0.89012536  0.65118027  1  0  0.073325  0  0.945241  0  0  0.089729  0  1.008313  0  0  0.089437  0  1.009906  0  0.080997  0  0.108112  0.089809  0  1.0074  0
H  H45  1  0.48606648  0.10987335  0.15118027  1  0  0.073285  0  0.94527  0  0  0.089683  0  1.008335  0  0  0.08939  0  1.009927  0  0.080997  0  0.108086  0.089763  0  1.007424  0
H  H46  1  0.98606799  0.10987449  0.34881973  1  0  0.073303  0  0.945251  0  0  0.0897  0  1.008311  0  0  0.089407  0  1.009903  0  0.080998  0  0.108102  0.08978  0  1.007398  0
H  H47  1  0.51393313  0.89012649  0.84881973  1  0  0.073261  0  0.945246  0  0  0.089663  0  1.008343  0  0  0.089373  0  1.009933  0  0.081012  0  0.108081  0.089744  0  1.00743  0
H  H48  1  0.28685664  0.12632499  0.73368944  1  0  0.303339  0  0.924396  0  0  0.292293  0  0.980507  0  0  0.29869  0  0.975957  0  0.483533  0  0.287282  0.287646  0  0.983988  0
H  H49  1  0.21314262  0.87367372  0.23368877  1  0  0.303323  0  0.924409  0  0  0.292281  0  0.980521  0  0  0.298679  0  0.975971  0  0.483527  0  0.287279  0.287634  0  0.984001  0
H  H50  1  0.71314297  0.87367485  0.26631123  1  0  0.303309  0  0.924427  0  0  0.292268  0  0.980536  0  0  0.298666  0  0.975987  0  0.483528  0  0.287278  0.287622  0  0.984016  0
H  H51  1  0.78685699  0.12632613  0.76631056  1  0  0.303356  0  0.924401  0  0  0.292318  0  0.9805  0  0  0.298716  0  0.975949  0  0.483524  0  0.287292  0.287671  0  0.983981  0
H  H52  1  0.26159903  0.94614294  0.71522159  1  0  0.307963  0  0.943266  0  0  0.29341  0  1.00221  0  0  0.300394  0  0.997641  0  0.482227  0  0.287122  0.288523  0  1.00536  0
H  H53  1  0.23840064  0.05385690  0.21522093  1  0  0.307945  0  0.943231  0  0  0.293406  0  1.002167  0  0  0.30039  0  0.997599  0  0.482229  0  0.28711  0.288519  0  1.005318  0
H  H54  1  0.73840174  0.05385690  0.28477907  1  0  0.307934  0  0.943253  0  0  0.293396  0  1.002188  0  0  0.300378  0  0.997622  0  0.482234  0  0.287104  0.288508  0  1.00534  0
H  H55  1  0.76159822  0.94614408  0.78477841  1  0  0.307939  0  0.943269  0  0  0.293403  0  1.002199  0  0  0.300386  0  0.997631  0  0.482214  0  0.287114  0.288516  0  1.005348  0
C  C56  1  0.25690424  0.25635222  0.42747684  1  0  0.120159  0  3.686322  0  0  0.086772  0  3.938877  0  0  0.093757  0  3.956685  0  0.453919  0  0.048841  0.082558  0  3.926408  0
C  C57  1  0.24309543  0.74364762  0.92747684  1  0  0.120154  0  3.686467  0  0  0.086744  0  3.939058  0  0  0.093729  0  3.956866  0  0.453913  0  0.048817  0.08253  0  3.926587  0
C  C58  1  0.74309538  0.74364762  0.57252316  1  0  0.120123  0  3.686482  0  0  0.086717  0  3.939065  0  0  0.093702  0  3.956872  0  0.453905  0  0.048807  0.082503  0  3.926594  0
C  C59  1  0.75690419  0.25635222  0.07252383  1  0  0.120166  0  3.68638  0  0  0.086771  0  3.938943  0  0  0.093757  0  3.956751  0  0.4539  0  0.048833  0.082557  0  3.926474  0
C  C60  1  0.16944410  0.31519960  0.48628857  1  0  -0.101628  0  3.72165  0  0  -0.115427  0  3.97597  0  0  -0.123256  0  3.999005  0  -0.074777  0  -0.076534  -0.110467  0  3.960807  0
C  C61  1  0.33055557  0.68480025  0.98628790  1  0  -0.101681  0  3.72167  0  0  -0.115498  0  3.975973  0  0  -0.123329  0  3.999008  0  -0.07457  0  -0.076563  -0.110536  0  3.960809  0
C  C62  1  0.83055552  0.68480025  0.51371210  1  0  -0.101645  0  3.72168  0  0  -0.115461  0  3.975987  0  0  -0.123291  0  3.999022  0  -0.074563  0  -0.076553  -0.110501  0  3.960824  0
C  C63  1  0.66944635  0.31519960  0.01371143  1  0  -0.101626  0  3.721771  0  0  -0.115428  0  3.976084  0  0  -0.123257  0  3.999116  0  -0.074526  0  -0.076536  -0.110467  0  3.960918  0
C  C64  1  0.10971705  0.23588935  0.56459780  1  0  -0.028299  0  3.657177  0  0  -0.054807  0  3.900573  0  0  -0.051128  0  3.918907  0  -0.000329  0  -0.055724  -0.057057  0  3.888578  0
C  C65  1  0.39028262  0.76411050  0.06459780  1  0  -0.02824  0  3.657152  0  0  -0.054737  0  3.900542  0  0  -0.051058  0  3.918876  0  -0.000553  0  -0.055689  -0.056987  0  3.888543  0
C  C66  1  0.89028257  0.76411050  0.43540220  1  0  -0.028245  0  3.657143  0  0  -0.054746  0  3.900548  0  0  -0.051067  0  3.918881  0  -0.000518  0  -0.055698  -0.056996  0  3.888551  0
C  C67  1  0.60971624  0.23589048  0.93540287  1  0  -0.028276  0  3.657197  0  0  -0.054774  0  3.900578  0  0  -0.051096  0  3.91891  0  -0.000605  0  -0.055713  -0.057024  0  3.888581  0
C  C68  1  0.22824868  0.04827116  0.52016594  1  0  0.103073  0  3.656439  0  0  0.064281  0  3.901736  0  0  0.071651  0  3.919697  0  0.499619  0  0.053894  0.059496  0  3.890094  0
C  C69  1  0.27175098  0.95172868  0.02016594  1  0  0.102993  0  3.656497  0  0  0.064274  0  3.901777  0  0  0.071646  0  3.919739  0  0.499606  0  0.053899  0.05949  0  3.890135  0
C  C70  1  0.77175093  0.95172868  0.47983406  1  0  0.102999  0  3.65649  0  0  0.064286  0  3.901766  0  0  0.071657  0  3.919729  0  0.499613  0  0.053899  0.0595  0  3.890126  0
C  C71  1  0.72824863  0.04827116  0.97983406  1  0  0.102998  0  3.656512  0  0  0.064271  0  3.901792  0  0  0.071643  0  3.919756  0  0.499608  0  0.053898  0.059487  0  3.89015  0
C  C72  1  0.13920676  0.09994239  0.58253715  1  0  0.010408  0  3.719778  0  0  0.037011  0  3.956435  0  0  0.030477  0  3.982114  0  -0.005511  0  -0.006384  0.040747  0  3.939524  0
C  C73  1  0.36079176  0.90005745  0.08253715  1  0  0.010358  0  3.719833  0  0  0.036949  0  3.956464  0  0  0.030412  0  3.982141  0  -0.005479  0  -0.006401  0.040684  0  3.939554  0
C  C74  1  0.86079286  0.90005745  0.41746285  1  0  0.010362  0  3.719852  0  0  0.036934  0  3.956505  0  0  0.030398  0  3.982184  0  -0.005508  0  -0.00638  0.04067  0  3.939594  0
C  C75  1  0.63920826  0.09994352  0.91746285  1  0  0.010371  0  3.719776  0  0  0.036981  0  3.956418  0  0  0.030447  0  3.982096  0  -0.005447  0  -0.006381  0.040716  0  3.939507  0
C  C76  1  0.07356024  0.01100449  0.66592736  1  0  0.039825  0  3.656726  0  0  -0.023747  0  3.908512  0  0  -0.018655  0  3.921269  0  0.261184  0  -0.071937  -0.027048  0  3.899997  0
C  C77  1  0.42643983  0.98899649  0.16592669  1  0  0.039892  0  3.656659  0  0  -0.023632  0  3.908402  0  0  -0.018531  0  3.921149  0  0.26121  0  -0.071901  -0.026935  0  3.89989  0
C  C78  1  0.92643937  0.98899535  0.33407331  1  0  0.039866  0  3.656748  0  0  -0.023641  0  3.908425  0  0  -0.018541  0  3.921174  0  0.261219  0  -0.071925  -0.026941  0  3.899911  0
C  C79  1  0.57356059  0.01100562  0.83407264  1  0  0.039946  0  3.656657  0  0  -0.023636  0  3.908424  0  0  -0.018542  0  3.921181  0  0.261181  0  -0.071913  -0.026937  0  3.899909  0
N  N80  1  0.28435421  0.12428699  0.44422126  1  0  -0.349136  0  3.3552  0  0  -0.260441  0  3.639543  0  0  -0.279577  0  3.653229  0  -1.28364  0  -0.338683  -0.24762  0  3.629858  0
N  N81  1  0.21564505  0.87571171  0.94422126  1  0  -0.3491  0  3.355305  0  0  -0.260389  0  3.639613  0  0  -0.27953  0  3.653304  0  -1.283648  0  -0.338659  -0.247572  0  3.629933  0
N  N82  1  0.71564540  0.87571285  0.55577874  1  0  -0.349085  0  3.3553  0  0  -0.260378  0  3.639605  0  0  -0.279514  0  3.653291  0  -1.283633  0  -0.338653  -0.247559  0  3.629923  0
N  N83  1  0.78435416  0.12428699  0.05577874  1  0  -0.349131  0  3.35522  0  0  -0.26042  0  3.63952  0  0  -0.279569  0  3.653223  0  -1.283637  0  -0.338678  -0.247606  0  3.629843  0
N  N84  1  0.19981864  0.01956089  0.73466578  1  0  -0.654466  0  3.093568  0  0  -0.589303  0  3.356776  0  0  -0.609276  0  3.349594  0  -1.184995  0  -0.631587  -0.575239  0  3.361483  0
N  N85  1  0.30018218  0.98043896  0.23466644  1  0  -0.654432  0  3.093487  0  0  -0.589315  0  3.356695  0  0  -0.609286  0  3.349504  0  -1.184982  0  -0.63158  -0.575248  0  3.361397  0
N  N86  1  0.80018173  0.98043782  0.26533422  1  0  -0.654426  0  3.093583  0  0  -0.589316  0  3.356796  0  0  -0.609298  0  3.349621  0  -1.18499  0  -0.631589  -0.575257  0  3.361507  0
N  N87  1  0.69981899  0.01956202  0.76533422  1  0  -0.654489  0  3.09358  0  0  -0.589362  0  3.356817  0  0  -0.609331  0  3.349627  0  -1.184974  0  -0.631595  -0.575296  0  3.361521  0
O  O88  1  0.21573690  0.60888438  0.35498567  1  0  -0.87732  0  2.054207  0  0  -0.779481  0  2.365282  0  0  -0.807738  0  2.337046  0  -1.454684  0  -0.392262  -0.759238  0  2.38387  0
O  O89  1  0.28426432  0.39111660  0.85498567  1  0  -0.877306  0  2.054197  0  0  -0.779457  0  2.365265  0  0  -0.807717  0  2.337032  0  -1.454702  0  -0.392255  -0.759211  0  2.383846  0
O  O90  1  0.78426427  0.39111660  0.64501433  1  0  -0.877308  0  2.0542  0  0  -0.779463  0  2.365265  0  0  -0.807723  0  2.337034  0  -1.454705  0  -0.392265  -0.759219  0  2.38385  0
O  O91  1  0.71573529  0.60888324  0.14501433  1  0  -0.877318  0  2.054169  0  0  -0.779477  0  2.365236  0  0  -0.807735  0  2.337003  0  -1.454705  0  -0.392265  -0.759235  0  2.383827  0
O  O92  1  0.50707837  0.70443497  0.28992336  1  0  -0.878051  0  2.040885  0  0  -0.777604  0  2.337773  0  0  -0.805759  0  2.312026  0  -1.450798  0  -0.384866  -0.757333  0  2.354562  0
O  O93  1  0.99292159  0.29556601  0.78992336  1  0  -0.878028  0  2.040852  0  0  -0.777602  0  2.337769  0  0  -0.805753  0  2.312006  0  -1.450793  0  -0.384844  -0.757333  0  2.354557  0
O  O94  1  0.49292124  0.29556487  0.71007664  1  0  -0.878065  0  2.040846  0  0  -0.777637  0  2.337763  0  0  -0.805782  0  2.311998  0  -1.450739  0  -0.384868  -0.757368  0  2.354552  0
O  O95  1  0.00707843  0.70443497  0.21007664  1  0  -0.878078  0  2.040857  0  0  -0.777645  0  2.337767  0  0  -0.805794  0  2.312007  0  -1.450786  0  -0.384884  -0.757374  0  2.354556  0
O  O96  1  0.42376687  0.85406853  0.41302099  1  0  -0.832603  0  2.041103  0  0  -0.734542  0  2.347891  0  0  -0.762473  0  2.323954  0  -1.448379  0  -0.386893  -0.715279  0  2.363775  0
O  O97  1  0.07623395  0.14593131  0.91302099  1  0  -0.832604  0  2.041131  0  0  -0.734532  0  2.347908  0  0  -0.762467  0  2.323976  0  -1.448382  0  -0.386886  -0.715269  0  2.363787  0
O  O98  1  0.57623430  0.14593245  0.58697834  1  0  -0.832581  0  2.041117  0  0  -0.734515  0  2.347895  0  0  -0.762447  0  2.323961  0  -1.448374  0  -0.386888  -0.715253  0  2.363777  0
O  O99  1  0.92376642  0.85406739  0.08697834  1  0  -0.83259  0  2.041117  0  0  -0.734513  0  2.347876  0  0  -0.762454  0  2.323954  0  -1.448385  0  -0.38688  -0.715261  0  2.363778  0
O  O100  1  0.62776521  0.16781420  0.33592269  1  0  -0.847202  0  2.098869  0  0  -0.735639  0  2.394575  0  0  -0.7639  0  2.369744  0  -1.458679  0  -0.38364  -0.715915  0  2.411226  0
O  O101  1  0.87223551  0.83218565  0.83592269  1  0  -0.847191  0  2.098855  0  0  -0.735621  0  2.394543  0  0  -0.763897  0  2.369744  0  -1.458664  0  -0.383644  -0.715902  0  2.411198  0
O  O102  1  0.37223556  0.83218565  0.66407731  1  0  -0.847209  0  2.098835  0  0  -0.735644  0  2.394534  0  0  -0.763917  0  2.369734  0  -1.458666  0  -0.383646  -0.715924  0  2.411188  0
O  O103  1  0.12776411  0.16781420  0.16407731  1  0  -0.847209  0  2.098855  0  0  -0.735629  0  2.394531  0  0  -0.763913  0  2.369744  0  -1.458668  0  -0.383646  -0.715914  0  2.411192  0
O  O104  1  0.65900064  0.45290850  0.34980273  1  0  -0.864636  0  2.063499  0  0  -0.770387  0  2.375474  0  0  -0.799673  0  2.351014  0  -1.443579  0  -0.384008  -0.749343  0  2.391104  0
O  O105  1  0.84099893  0.54709134  0.84980273  1  0  -0.864628  0  2.063584  0  0  -0.770365  0  2.375543  0  0  -0.799657  0  2.351098  0  -1.44359  0  -0.383992  -0.749319  0  2.391169  0
O  O106  1  0.34099898  0.54709134  0.65019727  1  0  -0.864646  0  2.063567  0  0  -0.770381  0  2.375517  0  0  -0.799673  0  2.351078  0  -1.443589  0  -0.383989  -0.749335  0  2.391144  0
O  O107  1  0.15900069  0.45290850  0.15019793  1  0  -0.864646  0  2.0636  0  0  -0.770401  0  2.375588  0  0  -0.799685  0  2.351122  0  -1.443586  0  -0.383982  -0.749356  0  2.391216  0
O  O108  1  0.88926530  0.35810881  0.28977607  1  0  -0.871713  0  2.055009  0  0  -0.773058  0  2.362993  0  0  -0.801353  0  2.335594  0  -1.452768  0  -0.38983  -0.75291  0  2.381351  0
O  O109  1  0.61073542  0.64189103  0.78977674  1  0  -0.871664  0  2.054971  0  0  -0.773014  0  2.36296  0  0  -0.801304  0  2.335557  0  -1.452766  0  -0.389807  -0.752872  0  2.38133  0
O  O110  1  0.11073587  0.64189217  0.71022326  1  0  -0.871683  0  2.054925  0  0  -0.773031  0  2.362912  0  0  -0.801322  0  2.335509  0  -1.45277  0  -0.38982  -0.752886  0  2.381278  0
O  O111  1  0.38926495  0.35810768  0.21022326  1  0  -0.871658  0  2.054921  0  0  -0.77301  0  2.362912  0  0  -0.801301  0  2.335511  0  -1.45277  0  -0.389812  -0.752861  0  2.381268  0
