# generated using pymatgen
data_ZnH6(C3N2)2
_symmetry_space_group_name_H-M   'P 1'
_cell_length_a   9.72654645
_cell_length_b   24.51336780
_cell_length_c   23.67025073
_cell_angle_alpha   89.99999946
_cell_angle_beta   89.99992202
_cell_angle_gamma   89.99954364
_symmetry_Int_Tables_number   1
_chemical_formula_structural   ZnH6(C3N2)2
_chemical_formula_sum   'Zn16 H96 C96 N64'
_cell_volume   5643.70759983
_cell_formula_units_Z   16
loop_
 _symmetry_equiv_pos_site_id
 _symmetry_equiv_pos_as_xyz
  1  'x, y, z'
loop_
 _atom_site_type_symbol
 _atom_site_label
 _atom_site_symmetry_multiplicity
 _atom_site_fract_x
 _atom_site_fract_y
 _atom_site_fract_z
 _atom_site_occupancy
 _atom_site_pbe_bader_charge
 _atom_site_pbe_bader_spin_density
 _atom_site_pbe_cm5_charge
 _atom_site_pbe_ddec_charge
 _atom_site_pbe_ddec_spin_density
 _atom_site_pbe_ddec_sum_bond_order
 _atom_site_pbe_magmom
Zn  Zn0  1  0.98521965  0.17766065  0.50044690  1  1.186326  0  0.713301  0.6208  0  2.570077  0
Zn  Zn1  1  0.51478497  0.82233744  0.00044646  1  1.186667  0  0.713319  0.620819  0  2.570184  0
Zn  Zn2  1  0.01478717  0.67766036  0.99955134  1  1.186401  0  0.713335  0.620861  0  2.570139  0
Zn  Zn3  1  0.48521854  0.32234046  0.49955479  1  1.186281  0  0.713295  0.620881  0  2.570036  0
Zn  Zn4  1  0.01478140  0.82234064  0.49955031  1  1.186402  0  0.713247  0.620763  0  2.570241  0
Zn  Zn5  1  0.48520683  0.17765937  0.99954991  1  1.186431  0  0.713278  0.620756  0  2.570437  0
Zn  Zn6  1  0.98520360  0.32233726  0.00044841  1  1.186593  0  0.713361  0.620909  0  2.570108  0
Zn  Zn7  1  0.51478251  0.67766287  0.50044918  1  1.186744  0  0.713323  0.620872  0  2.570001  0
Zn  Zn8  1  0.99983225  0.00068577  0.32377533  1  1.184624  0  0.71461  0.622104  0  2.569807  0
Zn  Zn9  1  0.50017337  0.99931472  0.82377489  1  1.184504  0  0.714536  0.621958  0  2.569933  0
Zn  Zn10  1  0.00017153  0.50068313  0.17622419  1  1.184671  0  0.714596  0.622178  0  2.569787  0
Zn  Zn11  1  0.49982701  0.49931489  0.67622593  1  1.184706  0  0.714555  0.622069  0  2.569787  0
Zn  Zn12  1  0.00017292  0.99931348  0.67622273  1  1.184771  0  0.714582  0.622129  0  2.56995  0
Zn  Zn13  1  0.49983179  0.00068494  0.17622359  1  1.184576  0  0.714538  0.622056  0  2.569788  0
Zn  Zn14  1  0.99983055  0.49931531  0.82377894  1  1.184749  0  0.714522  0.621977  0  2.570071  0
Zn  Zn15  1  0.50016890  0.50068722  0.32377846  1  1.1848  0  0.714567  0.622095  0  2.569956  0
H  H16  1  0.04760347  0.05732086  0.44564842  1  0.089502  0  0.120596  0.073079  0  1.015545  0
H  H17  1  0.45240036  0.94268364  0.94564898  1  0.089328  0  0.120566  0.073014  0  1.015557  0
H  H18  1  0.95239815  0.55731685  0.05434985  1  0.089249  0  0.120551  0.072984  0  1.015556  0
H  H19  1  0.54761143  0.44268164  0.55435775  1  0.08946  0  0.12052  0.072914  0  1.015551  0
H  H20  1  0.95240170  0.94268165  0.55434838  1  0.089404  0  0.120558  0.073028  0  1.015529  0
H  H21  1  0.54759349  0.05731398  0.05435035  1  0.089342  0  0.120509  0.072941  0  1.01547  0
H  H22  1  0.04759262  0.44268485  0.94565286  1  0.089241  0  0.120557  0.072962  0  1.015533  0
H  H23  1  0.45240401  0.55731639  0.44564876  1  0.089337  0  0.120534  0.072986  0  1.015468  0
H  H24  1  0.69658354  0.03471585  0.27898037  1  0.098737  0  0.126164  0.082947  0  1.005565  0
H  H25  1  0.80343353  0.96528709  0.77898018  1  0.098664  0  0.126196  0.083007  0  1.005475  0
H  H26  1  0.30342572  0.53471143  0.22101915  1  0.098748  0  0.126192  0.083037  0  1.005523  0
H  H27  1  0.19657370  0.46528250  0.72102360  1  0.098718  0  0.12615  0.082935  0  1.005589  0
H  H28  1  0.30341648  0.96528381  0.72101726  1  0.098664  0  0.12615  0.082931  0  1.005538  0
H  H29  1  0.19657883  0.03471216  0.22101873  1  0.098751  0  0.126166  0.082999  0  1.005558  0
H  H30  1  0.69657635  0.46528824  0.77898440  1  0.098668  0  0.126183  0.082947  0  1.005605  0
H  H31  1  0.80341810  0.53471308  0.27898418  1  0.098694  0  0.126165  0.082963  0  1.00557  0
H  H32  1  0.01002479  0.27605872  0.41079583  1  0.057023  0  0.107302  0.093985  0  1.028499  0
H  H33  1  0.48997710  0.72394538  0.91079085  1  0.05688  0  0.107338  0.094096  0  1.028306  0
H  H34  1  0.98997965  0.77605213  0.08920246  1  0.056983  0  0.107306  0.094027  0  1.028498  0
H  H35  1  0.51001955  0.22394227  0.58920360  1  0.056971  0  0.107294  0.094017  0  1.028458  0
H  H36  1  0.98997935  0.72394706  0.58920434  1  0.057038  0  0.107302  0.093979  0  1.028486  0
H  H37  1  0.51001367  0.27605061  0.08920594  1  0.056881  0  0.107366  0.094076  0  1.028259  0
H  H38  1  0.01000907  0.22394508  0.91079476  1  0.056895  0  0.107308  0.093999  0  1.02826  0
H  H39  1  0.48998562  0.77606473  0.41079700  1  0.056937  0  0.107314  0.094029  0  1.028392  0
H  H40  1  0.01419154  0.94567826  0.20045547  1  0.105656  0  0.109919  0.100539  0  1.024541  0
H  H41  1  0.48581206  0.05431730  0.70045632  1  0.105653  0  0.109917  0.100542  0  1.024561  0
H  H42  1  0.98581361  0.44567933  0.29954495  1  0.105629  0  0.109903  0.100534  0  1.024505  0
H  H43  1  0.51417770  0.55432566  0.79953937  1  0.10596  0  0.109954  0.10063  0  1.024439  0
H  H44  1  0.98581979  0.05433200  0.79953709  1  0.105895  0  0.109882  0.100481  0  1.024318  0
H  H45  1  0.51418899  0.94567665  0.29954174  1  0.105499  0  0.109912  0.100552  0  1.024518  0
H  H46  1  0.01418539  0.55432238  0.70046198  1  0.105565  0  0.10993  0.100564  0  1.024558  0
H  H47  1  0.48581307  0.44567400  0.20046122  1  0.105582  0  0.109903  0.100504  0  1.024444  0
H  H48  1  0.29269178  0.21903550  0.53178348  1  0.072716  0  0.117957  0.067077  0  1.041885  0
H  H49  1  0.20731957  0.78096131  0.03178630  1  0.07285  0  0.11795  0.067101  0  1.041883  0
H  H50  1  0.70731524  0.71903792  0.96820970  1  0.076093  0  0.117902  0.067052  0  1.041935  0
H  H51  1  0.79268271  0.28096296  0.46821410  1  0.072809  0  0.117975  0.067147  0  1.041848  0
H  H52  1  0.70731441  0.78096416  0.46821204  1  0.072626  0  0.117948  0.067023  0  1.041924  0
H  H53  1  0.79267428  0.21903712  0.96821007  1  0.072768  0  0.11797  0.067081  0  1.041836  0
H  H54  1  0.29268170  0.28096134  0.03178371  1  0.072922  0  0.117964  0.067089  0  1.041821  0
H  H55  1  0.20731217  0.71903833  0.53178058  1  0.072874  0  0.117994  0.067135  0  1.041813  0
H  H56  1  0.78078444  0.94231685  0.13305884  1  0.088054  0  0.107441  0.096768  0  1.032218  0
H  H57  1  0.71921461  0.05768081  0.63305773  1  0.0879  0  0.107452  0.096807  0  1.032233  0
H  H58  1  0.21921975  0.44231747  0.36694242  1  0.088206  0  0.107443  0.096776  0  1.032351  0
H  H59  1  0.28077714  0.55768868  0.86694050  1  0.087995  0  0.107438  0.096754  0  1.032118  0
H  H60  1  0.21923203  0.05769424  0.86693288  1  0.088111  0  0.107465  0.096753  0  1.032202  0
H  H61  1  0.28078439  0.94231314  0.36693948  1  0.08812  0  0.107452  0.096775  0  1.032138  0
H  H62  1  0.78078027  0.55769157  0.63306451  1  0.088202  0  0.107468  0.096727  0  1.031986  0
H  H63  1  0.71922289  0.44230935  0.13306643  1  0.088154  0  0.10752  0.096896  0  1.0321  0
H  H64  1  0.92978279  0.05857265  0.55310246  1  0.08583  0  0.122585  0.075571  0  1.008712  0
H  H65  1  0.57022783  0.94142216  0.05309946  1  0.086151  0  0.122517  0.07561  0  1.0087  0
H  H66  1  0.07022436  0.55857709  0.94689958  1  0.086229  0  0.122545  0.075603  0  1.008698  0
H  H67  1  0.42977638  0.44142701  0.44689885  1  0.086124  0  0.122572  0.075579  0  1.008708  0
H  H68  1  0.07021415  0.94142578  0.44689898  1  0.086122  0  0.122572  0.07566  0  1.008684  0
H  H69  1  0.42977322  0.05857505  0.94689775  1  0.086156  0  0.122585  0.07568  0  1.008702  0
H  H70  1  0.92978697  0.44142420  0.05310144  1  0.085866  0  0.122574  0.075708  0  1.0087  0
H  H71  1  0.57021542  0.55857469  0.55310175  1  0.086131  0  0.122558  0.07563  0  1.008743  0
H  H72  1  0.24281488  0.34131581  0.40874467  1  0.073465  0  0.107222  0.097216  0  1.032778  0
H  H73  1  0.25718906  0.65868911  0.90873728  1  0.072816  0  0.107191  0.097237  0  1.032857  0
H  H74  1  0.75718619  0.84130629  0.09126207  1  0.072966  0  0.10722  0.097263  0  1.032833  0
H  H75  1  0.74281505  0.15868852  0.59125885  1  0.073281  0  0.107212  0.09722  0  1.0329  0
H  H76  1  0.75718514  0.65869446  0.59126310  1  0.072959  0  0.10722  0.097253  0  1.032829  0
H  H77  1  0.74280171  0.34130565  0.09126247  1  0.072968  0  0.107261  0.09733  0  1.032756  0
H  H78  1  0.24280253  0.15869133  0.90873514  1  0.072818  0  0.107213  0.097275  0  1.03296  0
H  H79  1  0.25718600  0.84131807  0.40874217  1  0.073472  0  0.107191  0.097143  0  1.032898  0
H  H80  1  0.83395839  0.19368889  0.38259184  1  0.087329  0  0.108694  0.09612  0  1.022275  0
H  H81  1  0.66603264  0.80631159  0.88259634  1  0.087401  0  0.108661  0.096104  0  1.022354  0
H  H82  1  0.16603741  0.69368573  0.11740306  1  0.087261  0  0.10869  0.09616  0  1.022347  0
H  H83  1  0.33396749  0.30631148  0.61740403  1  0.087401  0  0.108697  0.096177  0  1.022264  0
H  H84  1  0.16602415  0.80630710  0.61740284  1  0.08744  0  0.108701  0.096151  0  1.022284  0
H  H85  1  0.33395607  0.19368644  0.11739918  1  0.087341  0  0.108688  0.096145  0  1.022377  0
H  H86  1  0.83396878  0.30631271  0.88259838  1  0.08747  0  0.10871  0.096174  0  1.022324  0
H  H87  1  0.66603459  0.69368940  0.38259868  1  0.087367  0  0.108667  0.096115  0  1.022356  0
H  H88  1  0.18573385  0.10333552  0.68887141  1  0.124777  0  0.110999  0.105886  0  1.021456  0
H  H89  1  0.31428315  0.89666412  0.18887291  1  0.125144  0  0.110977  0.105839  0  1.021345  0
H  H90  1  0.81427857  0.60333640  0.81112514  1  0.124785  0  0.11097  0.105819  0  1.021353  0
H  H91  1  0.68573223  0.39666695  0.31113088  1  0.124918  0  0.111029  0.105848  0  1.021275  0
H  H92  1  0.81428570  0.89666332  0.31112074  1  0.125029  0  0.110926  0.105751  0  1.021429  0
H  H93  1  0.68572201  0.10333635  0.81112641  1  0.124788  0  0.11099  0.105851  0  1.021382  0
H  H94  1  0.18570603  0.39665184  0.18887883  1  0.1251  0  0.110932  0.10584  0  1.021383  0
H  H95  1  0.31428218  0.60334087  0.68887647  1  0.125074  0  0.110986  0.105849  0  1.021385  0
H  H96  1  0.85485676  0.11581503  0.29816940  1  0.10298  0  0.11152  0.102123  0  1.018787  0
H  H97  1  0.64514175  0.88418098  0.79817055  1  0.103028  0  0.111476  0.102062  0  1.018926  0
H  H98  1  0.14514574  0.61581436  0.20182760  1  0.102876  0  0.111495  0.102137  0  1.018807  0
H  H99  1  0.35484860  0.38418079  0.70183195  1  0.102909  0  0.111525  0.102124  0  1.018824  0
H  H100  1  0.14513710  0.88417933  0.70182782  1  0.102615  0  0.111499  0.102097  0  1.018917  0
H  H101  1  0.35484902  0.11581909  0.20182709  1  0.102827  0  0.111492  0.10205  0  1.018796  0
H  H102  1  0.85487381  0.38418122  0.79817172  1  0.102698  0  0.111465  0.102076  0  1.018879  0
H  H103  1  0.64514937  0.61582050  0.29817245  1  0.10288  0  0.111523  0.102085  0  1.018793  0
H  H104  1  0.18347747  0.18665905  0.60964242  1  0.047363  0  0.108852  0.096358  0  1.028993  0
H  H105  1  0.31653054  0.81334102  0.10964561  1  0.047467  0  0.108892  0.096422  0  1.028986  0
H  H106  1  0.81653020  0.68666072  0.89035244  1  0.047383  0  0.108872  0.096387  0  1.028989  0
H  H107  1  0.68346903  0.31334058  0.39035818  1  0.047588  0  0.108876  0.096356  0  1.029065  0
H  H108  1  0.81653695  0.81334021  0.39034930  1  0.047592  0  0.108937  0.096457  0  1.028929  0
H  H109  1  0.68346125  0.18666027  0.89035329  1  0.047579  0  0.108899  0.096389  0  1.029058  0
H  H110  1  0.18343898  0.31332997  0.10964900  1  0.047003  0  0.108877  0.096373  0  1.028985  0
H  H111  1  0.31654539  0.68666439  0.60964960  1  0.047458  0  0.108903  0.096354  0  1.029044  0
C  C112  1  0.99133184  0.08370620  0.41695475  1  0.980933  0  0.1103  0.127176  0  4.029429  0
C  C113  1  0.50867142  0.91629550  0.91695598  1  0.981184  0  0.11035  0.127337  0  4.029419  0
C  C114  1  0.00867027  0.58370231  0.08304309  1  0.981639  0  0.110441  0.127585  0  4.029201  0
C  C115  1  0.49133782  0.41629653  0.58305117  1  0.981013  0  0.110344  0.127416  0  4.02941  0
C  C116  1  0.00867229  0.91629510  0.58304289  1  0.981072  0  0.110382  0.127335  0  4.029474  0
C  C117  1  0.49132038  0.08370049  0.08304461  1  0.980732  0  0.110468  0.127494  0  4.029228  0
C  C118  1  0.99131947  0.41629898  0.91695919  1  0.981263  0  0.110442  0.127599  0  4.029392  0
C  C119  1  0.50867454  0.58370436  0.41695576  1  0.980841  0  0.110368  0.127352  0  4.029406  0
C  C120  1  0.75191386  0.01030337  0.24817164  1  0.944728  0  0.11328  0.126745  0  4.012974  0
C  C121  1  0.74810126  0.98969794  0.74817190  1  0.94611  0  0.113293  0.126711  0  4.012961  0
C  C122  1  0.24809796  0.51030156  0.25183042  1  0.945803  0  0.113217  0.126593  0  4.013165  0
C  C123  1  0.25190445  0.48969603  0.75183103  1  0.946061  0  0.1133  0.126732  0  4.013115  0
C  C124  1  0.24809645  0.98969874  0.75182684  1  0.945577  0  0.113294  0.126824  0  4.013022  0
C  C125  1  0.25190698  0.01030049  0.25182785  1  0.945109  0  0.113207  0.126582  0  4.013299  0
C  C126  1  0.75190001  0.48969932  0.74817314  1  0.945544  0  0.113285  0.126817  0  4.013122  0
C  C127  1  0.74809557  0.51030159  0.24817252  1  0.945042  0  0.113371  0.12687  0  4.013217  0
C  C128  1  0.10210061  0.27427669  0.43656740  1  0.384886  0  -0.025615  -0.06364  0  4.048965  0
C  C129  1  0.39790325  0.72572578  0.93656289  1  0.384965  0  -0.025708  -0.063896  0  4.048969  0
C  C130  1  0.89790386  0.77426917  0.06343216  1  0.385393  0  -0.02566  -0.063842  0  4.049112  0
C  C131  1  0.60209747  0.22572319  0.56343325  1  0.385058  0  -0.025626  -0.063753  0  4.048829  0
C  C132  1  0.89790147  0.72573032  0.56343489  1  0.385334  0  -0.025629  -0.063689  0  4.04895  0
C  C133  1  0.60208855  0.27427021  0.06343602  1  0.384998  0  -0.025591  -0.063693  0  4.048804  0
C  C134  1  0.10209308  0.22572682  0.93656590  1  0.385069  0  -0.025601  -0.06363  0  4.049104  0
C  C135  1  0.39790769  0.77428055  0.43656777  1  0.38485  0  -0.025613  -0.063791  0  4.048901  0
C  C136  1  0.91373982  0.96389057  0.20679863  1  0.331525  0  -0.023816  -0.064735  0  4.046264  0
C  C137  1  0.58626721  0.03611116  0.70679801  1  0.331651  0  -0.023715  -0.064537  0  4.045932  0
C  C138  1  0.08626907  0.46388674  0.29320391  1  0.33177  0  -0.023754  -0.064569  0  4.04596  0
C  C139  1  0.41373525  0.53611616  0.79320318  1  0.331179  0  -0.023751  -0.064662  0  4.045824  0
C  C140  1  0.08627562  0.03611765  0.79319352  1  0.332086  0  -0.023759  -0.064547  0  4.04595  0
C  C141  1  0.41374001  0.96388483  0.29320089  1  0.331551  0  -0.023715  -0.064602  0  4.046023  0
C  C142  1  0.91373609  0.53611701  0.70680513  1  0.331453  0  -0.023778  -0.064736  0  4.045889  0
C  C143  1  0.58627197  0.46388432  0.20680502  1  0.33221  0  -0.023728  -0.06457  0  4.046326  0
C  C144  1  0.24569237  0.24433320  0.49950036  1  0.964106  0  0.110633  0.130099  0  4.021829  0
C  C145  1  0.25431539  0.75566518  0.99949932  1  0.964097  0  0.110546  0.129993  0  4.021798  0
C  C146  1  0.75431270  0.74432901  0.00049751  1  0.960542  0  0.110716  0.130115  0  4.021611  0
C  C147  1  0.74568370  0.25566826  0.50050021  1  0.964063  0  0.110527  0.129889  0  4.021867  0
C  C148  1  0.75430765  0.75566850  0.50049897  1  0.964075  0  0.110732  0.130253  0  4.021878  0
C  C149  1  0.74567538  0.24433163  0.00049790  1  0.964325  0  0.110763  0.130372  0  4.021533  0
C  C150  1  0.24567807  0.25566494  0.99949886  1  0.964415  0  0.110577  0.130029  0  4.0219  0
C  C151  1  0.25431838  0.74433384  0.49949743  1  0.964144  0  0.110504  0.129927  0  4.02195  0
C  C152  1  0.79795573  0.96234263  0.17331317  1  0.350733  0  -0.025772  -0.065261  0  4.050837  0
C  C153  1  0.70204832  0.03765829  0.67331333  1  0.350628  0  -0.025799  -0.06541  0  4.051049  0
C  C154  1  0.20204805  0.46234045  0.32668810  1  0.350126  0  -0.025747  -0.065307  0  4.051029  0
C  C155  1  0.29795205  0.53765999  0.82668532  1  0.350524  0  -0.02581  -0.065346  0  4.050991  0
C  C156  1  0.20206074  0.03766601  0.82668109  1  0.350954  0  -0.025667  -0.065209  0  4.05068  0
C  C157  1  0.29795479  0.96233851  0.32668346  1  0.350599  0  -0.025803  -0.065343  0  4.051123  0
C  C158  1  0.79794272  0.53766329  0.67332305  1  0.351234  0  -0.025707  -0.065038  0  4.050741  0
C  C159  1  0.70204694  0.46233355  0.17331739  1  0.350793  0  -0.025854  -0.065385  0  4.050589  0
C  C160  1  0.00046191  0.08192138  0.57917807  1  0.95845  0  0.109799  0.120022  0  4.028317  0
C  C161  1  0.49955648  0.91807909  0.07917990  1  0.957783  0  0.109811  0.119826  0  4.028211  0
C  C162  1  0.99954888  0.58192451  0.92082101  1  0.957867  0  0.109832  0.119884  0  4.028264  0
C  C163  1  0.50045025  0.41807882  0.42082348  1  0.957782  0  0.109878  0.120069  0  4.0282  0
C  C164  1  0.99953914  0.91808276  0.42081872  1  0.957917  0  0.109791  0.119776  0  4.028262  0
C  C165  1  0.50044663  0.08192057  0.92081732  1  0.957905  0  0.109642  0.119585  0  4.028306  0
C  C166  1  0.00045834  0.41807923  0.07918170  1  0.958176  0  0.109669  0.119583  0  4.02831  0
C  C167  1  0.49954361  0.58191921  0.57918218  1  0.957956  0  0.109735  0.11979  0  4.028225  0
C  C168  1  0.21778575  0.30669759  0.43539036  1  0.338819  0  -0.023971  -0.05985  0  4.0458  0
C  C169  1  0.28221708  0.69330569  0.93538338  1  0.339263  0  -0.024022  -0.059899  0  4.045796  0
C  C170  1  0.78221396  0.80668881  0.06461258  1  0.338938  0  -0.024068  -0.059889  0  4.045859  0
C  C171  1  0.71778326  0.19330396  0.56461402  1  0.338733  0  -0.02402  -0.059882  0  4.045807  0
C  C172  1  0.78221325  0.69331145  0.56461446  1  0.338867  0  -0.024057  -0.059896  0  4.045778  0
C  C173  1  0.71777266  0.30668907  0.06461383  1  0.339013  0  -0.024282  -0.060214  0  4.046006  0
C  C174  1  0.21777373  0.19330555  0.93537999  1  0.338999  0  -0.024184  -0.06019  0  4.046034  0
C  C175  1  0.28222088  0.80670059  0.43538784  1  0.338563  0  -0.024064  -0.059841  0  4.045761  0
C  C176  1  0.88186069  0.15372939  0.38331847  1  0.365385  0  -0.023916  -0.057368  0  4.045534  0
C  C177  1  0.61813240  0.84627068  0.88332132  1  0.365394  0  -0.023898  -0.057338  0  4.04588  0
C  C178  1  0.11813797  0.65372720  0.11667811  1  0.365628  0  -0.023989  -0.057332  0  4.045536  0
C  C179  1  0.38186796  0.34627042  0.61668033  1  0.364923  0  -0.023937  -0.057445  0  4.04586  0
C  C180  1  0.11812700  0.84626986  0.61667748  1  0.365356  0  -0.023897  -0.057443  0  4.045711  0
C  C181  1  0.38185734  0.15372857  0.11667589  1  0.365649  0  -0.02392  -0.057472  0  4.045719  0
C  C182  1  0.88186411  0.34627328  0.88332079  1  0.365184  0  -0.02399  -0.05742  0  4.045365  0
C  C183  1  0.61813823  0.65373006  0.38332407  1  0.365608  0  -0.02395  -0.057446  0  4.04568  0
C  C184  1  0.13315408  0.10618997  0.64857147  1  0.2912  0  -0.023305  -0.06238  0  4.041602  0
C  C185  1  0.36687026  0.89380968  0.14856999  1  0.291122  0  -0.023347  -0.062484  0  4.041659  0
C  C186  1  0.86686548  0.60619067  0.85142973  1  0.291468  0  -0.023331  -0.062343  0  4.042115  0
C  C187  1  0.63314313  0.39381145  0.35143296  1  0.291404  0  -0.023373  -0.062285  0  4.041819  0
C  C188  1  0.86686445  0.89381255  0.35142659  1  0.291006  0  -0.023252  -0.062322  0  4.0417  0
C  C189  1  0.63313285  0.10618998  0.85142807  1  0.29138  0  -0.023394  -0.062505  0  4.041813  0
C  C190  1  0.13312940  0.39380409  0.14857383  1  0.291077  0  -0.023083  -0.062256  0  4.041942  0
C  C191  1  0.36686409  0.60619148  0.64857355  1  0.29096  0  -0.023285  -0.062356  0  4.041866  0
C  C192  1  0.89108127  0.11487629  0.34148537  1  0.318384  0  -0.024696  -0.065145  0  4.046736  0
C  C193  1  0.60891504  0.88512379  0.84148780  1  0.318492  0  -0.024673  -0.06516  0  4.047041  0
C  C194  1  0.10891817  0.61487371  0.15851079  1  0.318508  0  -0.02476  -0.065385  0  4.046919  0
C  C195  1  0.39108043  0.38512226  0.65851554  1  0.318854  0  -0.024726  -0.065207  0  4.046822  0
C  C196  1  0.10891053  0.88512133  0.65851269  1  0.318924  0  -0.024692  -0.065089  0  4.047062  0
C  C197  1  0.39108190  0.11487506  0.15850899  1  0.318607  0  -0.024622  -0.064989  0  4.047025  0
C  C198  1  0.89108905  0.38512472  0.84148811  1  0.31884  0  -0.024672  -0.065163  0  4.046848  0
C  C199  1  0.60892165  0.61487617  0.34149012  1  0.318811  0  -0.024625  -0.065003  0  4.047  0
C  C200  1  0.13235386  0.14737118  0.60901802  1  0.403134  0  -0.024256  -0.06218  0  4.046499  0
C  C201  1  0.36765827  0.85262440  0.10902034  1  0.402984  0  -0.024378  -0.06227  0  4.046555  0
C  C202  1  0.86765460  0.64737718  0.89097768  1  0.402439  0  -0.024329  -0.062329  0  4.046528  0
C  C203  1  0.63234566  0.35262657  0.39098303  1  0.402427  0  -0.024311  -0.062259  0  4.046821  0
C  C204  1  0.86765336  0.85262645  0.39097792  1  0.402931  0  -0.024381  -0.062389  0  4.046522  0
C  C205  1  0.63233970  0.14737485  0.89097814  1  0.40246  0  -0.024339  -0.062277  0  4.046574  0
C  C206  1  0.13233412  0.35261841  0.10902502  1  0.402791  0  -0.024429  -0.062303  0  4.046611  0
C  C207  1  0.36765950  0.64737717  0.60902264  1  0.402973  0  -0.024361  -0.062271  0  4.046592  0
N  N208  1  0.12034791  0.23480717  0.47753062  1  -1.250051  0  -0.379279  -0.289927  0  3.628275  0
N  N209  1  0.37965890  0.76519244  0.97752951  1  -1.250273  0  -0.379239  -0.289817  0  3.628315  0
N  N210  1  0.87965324  0.73480421  0.02246640  1  -1.250269  0  -0.379192  -0.289718  0  3.628317  0
N  N211  1  0.62034411  0.26519265  0.52246706  1  -1.250168  0  -0.379213  -0.289783  0  3.628365  0
N  N212  1  0.87965520  0.76519535  0.52246744  1  -1.250174  0  -0.379293  -0.290012  0  3.628182  0
N  N213  1  0.62033187  0.23480315  0.02246728  1  -1.250301  0  -0.379303  -0.290034  0  3.628223  0
N  N214  1  0.12033342  0.26519097  0.97753124  1  -1.250438  0  -0.379295  -0.28989  0  3.628359  0
N  N215  1  0.37965488  0.73481231  0.47752974  1  -1.25009  0  -0.3793  -0.289873  0  3.628652  0
N  N216  1  0.30843881  0.28738879  0.47549849  1  -1.233868  0  -0.379193  -0.291725  0  3.630705  0
N  N217  1  0.19156389  0.71261244  0.97549367  1  -1.233724  0  -0.379047  -0.291596  0  3.630434  0
N  N218  1  0.69156025  0.78738480  0.02450488  1  -1.233562  0  -0.379204  -0.291773  0  3.630399  0
N  N219  1  0.80844223  0.21261206  0.52450458  1  -1.23363  0  -0.379113  -0.291621  0  3.630271  0
N  N220  1  0.69156121  0.71261821  0.52450549  1  -1.233694  0  -0.379173  -0.291685  0  3.630791  0
N  N221  1  0.80842688  0.28738395  0.02450397  1  -1.233474  0  -0.379197  -0.291736  0  3.630433  0
N  N222  1  0.30843566  0.21261364  0.97549192  1  -1.233688  0  -0.378974  -0.291455  0  3.630323  0
N  N223  1  0.19156087  0.78739127  0.47549433  1  -1.23371  0  -0.379026  -0.291532  0  3.630298  0
N  N224  1  0.88377917  0.99446822  0.25427680  1  -1.253611  0  -0.38072  -0.295184  0  3.620385  0
N  N225  1  0.61623182  0.00553187  0.75428039  1  -1.254574  0  -0.380881  -0.295426  0  3.620064  0
N  N226  1  0.11622501  0.49446674  0.24571898  1  -1.254394  0  -0.380766  -0.295389  0  3.619888  0
N  N227  1  0.38376919  0.50553167  0.74571995  1  -1.254505  0  -0.380866  -0.295438  0  3.620044  0
N  N228  1  0.11622497  0.00553674  0.74572042  1  -1.255549  0  -0.38076  -0.295435  0  3.620464  0
N  N229  1  0.38377848  0.99446616  0.24571852  1  -1.253722  0  -0.380716  -0.29527  0  3.620118  0
N  N230  1  0.88377296  0.50553374  0.75428288  1  -1.254686  0  -0.380748  -0.295358  0  3.620121  0
N  N231  1  0.61622363  0.49446513  0.25428149  1  -1.254805  0  -0.380814  -0.295436  0  3.620247  0
N  N232  1  0.69576188  0.99186953  0.19981862  1  -1.259541  0  -0.379621  -0.291829  0  3.635825  0
N  N233  1  0.80424518  0.00813138  0.69981872  1  -1.259824  0  -0.379601  -0.291701  0  3.635979  0
N  N234  1  0.30424337  0.49186949  0.30018139  1  -1.259774  0  -0.379623  -0.291703  0  3.636019  0
N  N235  1  0.19575784  0.50813096  0.80018330  1  -1.259727  0  -0.379529  -0.291577  0  3.635888  0
N  N236  1  0.30424123  0.00813543  0.80017522  1  -1.259427  0  -0.379709  -0.291785  0  3.63613  0
N  N237  1  0.19576102  0.99186583  0.30017891  1  -1.259594  0  -0.379611  -0.291678  0  3.636054  0
N  N238  1  0.69576487  0.50813792  0.69982428  1  -1.259657  0  -0.37971  -0.291896  0  3.636488  0
N  N239  1  0.80424115  0.49186666  0.19982616  1  -1.259331  0  -0.379652  -0.291853  0  3.63598  0
N  N240  1  0.94578586  0.13369858  0.43105348  1  -1.258834  0  -0.378902  -0.292025  0  3.630641  0
N  N241  1  0.55421529  0.86630393  0.93105425  1  -1.259049  0  -0.378896  -0.292105  0  3.630937  0
N  N242  1  0.05421628  0.63369537  0.06894226  1  -1.258808  0  -0.37878  -0.292207  0  3.630532  0
N  N243  1  0.44579495  0.36630143  0.56894867  1  -1.258741  0  -0.378827  -0.29205  0  3.630603  0
N  N244  1  0.05421416  0.86630149  0.56894332  1  -1.258754  0  -0.378816  -0.292013  0  3.630698  0
N  N245  1  0.44577342  0.13369491  0.06894170  1  -1.258589  0  -0.378837  -0.292108  0  3.630503  0
N  N246  1  0.94577552  0.36630633  0.93106129  1  -1.258568  0  -0.378817  -0.292177  0  3.630421  0
N  N247  1  0.55421741  0.63369741  0.43105658  1  -1.258912  0  -0.378772  -0.292044  0  3.630613  0
N  N248  1  0.96032825  0.07039841  0.36322909  1  -1.275717  0  -0.381009  -0.293168  0  3.650133  0
N  N249  1  0.53967518  0.92960289  0.86322988  1  -1.275908  0  -0.380992  -0.293099  0  3.650084  0
N  N250  1  0.03967310  0.57039605  0.13676833  1  -1.276533  0  -0.381076  -0.293217  0  3.650037  0
N  N251  1  0.46033071  0.42960156  0.63677431  1  -1.276005  0  -0.380995  -0.293132  0  3.6505  0
N  N252  1  0.03967280  0.92960003  0.63676939  1  -1.276266  0  -0.38114  -0.293286  0  3.650489  0
N  N253  1  0.46031970  0.07039922  0.13676775  1  -1.276073  0  -0.381193  -0.293293  0  3.650583  0
N  N254  1  0.96032486  0.42960238  0.86323354  1  -1.276449  0  -0.381068  -0.293234  0  3.650212  0
N  N255  1  0.53968165  0.57040014  0.36323135  1  -1.276318  0  -0.38115  -0.293262  0  3.650623  0
N  N256  1  0.04820192  0.13172393  0.56489093  1  -1.254171  0  -0.379479  -0.289181  0  3.623365  0
N  N257  1  0.45180933  0.86826920  0.06489066  1  -1.254111  0  -0.379366  -0.289191  0  3.623205  0
N  N258  1  0.95180994  0.63172843  0.93510689  1  -1.253544  0  -0.379365  -0.289038  0  3.623393  0
N  N259  1  0.54819120  0.36827571  0.43510891  1  -1.253602  0  -0.379495  -0.289326  0  3.623701  0
N  N260  1  0.95179502  0.86827247  0.43510587  1  -1.253676  0  -0.379403  -0.289072  0  3.623351  0
N  N261  1  0.54818761  0.13172964  0.93510740  1  -1.253482  0  -0.379288  -0.288963  0  3.623245  0
N  N262  1  0.04819111  0.36826633  0.06489328  1  -1.253344  0  -0.379337  -0.289116  0  3.623081  0
N  N263  1  0.45180368  0.63173088  0.56489296  1  -1.253857  0  -0.379401  -0.289179  0  3.623274  0
N  N264  1  0.04911956  0.06477882  0.62937355  1  -1.250848  0  -0.377583  -0.291037  0  3.62738  0
N  N265  1  0.45089559  0.93521635  0.12937203  1  -1.25084  0  -0.377479  -0.290671  0  3.62762  0
N  N266  1  0.95088644  0.56478252  0.87062637  1  -1.2509  0  -0.377577  -0.290886  0  3.627784  0
N  N267  1  0.54911697  0.43522041  0.37062713  1  -1.250872  0  -0.377535  -0.290944  0  3.627578  0
N  N268  1  0.95088149  0.93521962  0.37062578  1  -1.251141  0  -0.377535  -0.290719  0  3.627814  0
N  N269  1  0.54911061  0.06478209  0.87062476  1  -1.251054  0  -0.377439  -0.290569  0  3.627601  0
N  N270  1  0.04911872  0.43521388  0.12937380  1  -1.25095  0  -0.377619  -0.290799  0  3.627934  0
N  N271  1  0.45088203  0.56478333  0.62937474  1  -1.251  0  -0.377524  -0.29074  0  3.627828  0
