# generated using pymatgen
data_CuH16C18(NO2)2
_symmetry_space_group_name_H-M   'P 1'
_cell_length_a   7.70720290
_cell_length_b   15.70200058
_cell_length_c   15.69231760
_cell_angle_alpha   117.39992967
_cell_angle_beta   99.39711653
_cell_angle_gamma   99.40632071
_symmetry_Int_Tables_number   1
_chemical_formula_structural   CuH16C18(NO2)2
_chemical_formula_sum   'Cu3 H48 C54 N6 O12'
_cell_volume   1600.49960674
_cell_formula_units_Z   3
loop_
 _symmetry_equiv_pos_site_id
 _symmetry_equiv_pos_as_xyz
  1  'x, y, z'
loop_
 _atom_site_type_symbol
 _atom_site_label
 _atom_site_symmetry_multiplicity
 _atom_site_fract_x
 _atom_site_fract_y
 _atom_site_fract_z
 _atom_site_occupancy
 _atom_site_pbe_bader_charge
 _atom_site_pbe_bader_spin_density
 _atom_site_pbe_cm5_charge
 _atom_site_pbe_ddec_charge
 _atom_site_pbe_ddec_spin_density
 _atom_site_pbe_ddec_sum_bond_order
 _atom_site_pbe_magmom
Cu  Cu0  1  0.99999777  0.49999933  0.49999940  1  1.144794  0.597613  0.711532  0.816294  0.752589  2.305332  0.596
Cu  Cu1  1  0.50000036  0.00000054  0.50000117  1  1.14355  0.597554  0.711951  0.81824  0.752472  2.30233  0.596
Cu  Cu2  1  0.50000041  0.49999954  0.00000009  1  1.147062  0.597758  0.712246  0.817428  0.752714  2.304633  0.596
H  H3  1  0.56308589  0.67273196  0.72395377  1  0.069376  -0.000281  0.097866  0.147893  -0.0003  0.999445  0.0
H  H4  1  0.48462335  0.71379256  0.83373183  1  0.042976  0.001894  0.094264  0.142549  0.000891  0.995324  0.001
H  H5  1  0.46002417  0.77212647  0.75943053  1  0.063896  -0.00036  0.097291  0.1447  -0.000378  0.99473  0.0
H  H6  1  0.21446255  0.61799591  0.81771805  1  0.060933  -0.000321  0.094019  0.123484  -0.000223  1.073244  0.0
H  H7  1  0.09467518  0.54440885  0.88001167  1  0.139391  0.000284  0.106964  0.122795  0.000283  1.045112  0.0
H  H8  1  0.60898665  0.48027857  0.65388987  1  0.112234  0.000331  0.103135  0.109637  0.000264  1.043699  0.0
H  H9  1  0.42508212  0.46579306  0.76733646  1  0.058983  -5.8e-05  0.112462  0.085293  -8.2e-05  0.989724  0.0
H  H10  1  0.89069006  0.53054485  0.98275856  1  0.077328  8.6e-05  0.110798  0.077305  -4e-06  1.031169  0.0
H  H11  1  0.43691404  0.32726608  0.27604389  1  0.06942  -0.000281  0.097855  0.147919  -0.0003  0.999372  0.0
H  H12  1  0.51537395  0.28620548  0.16626689  1  0.042937  0.001894  0.094279  0.142566  0.000891  0.995371  0.001
H  H13  1  0.53997351  0.22787232  0.24056729  1  0.063945  -0.000361  0.097292  0.144708  -0.000378  0.994728  0.0
H  H14  1  0.78553419  0.38200362  0.18227939  1  0.060987  -0.000321  0.094069  0.123624  -0.000223  1.07322  0.0
H  H15  1  0.90532587  0.45559143  0.11998775  1  0.139397  0.000284  0.106958  0.12276  0.000283  1.045128  0.0
H  H16  1  0.39100840  0.51972022  0.34610837  1  0.11217  0.000331  0.10315  0.109663  0.000264  1.043749  0.0
H  H17  1  0.57492023  0.53420722  0.23266497  1  0.058972  -5.8e-05  0.11245  0.08527  -8.2e-05  0.98964  0.0
H  H18  1  0.10931211  0.46945767  0.01724262  1  0.077308  8.6e-05  0.110817  0.077334  -4e-06  1.031143  0.0
H  H19  1  0.89063903  0.05117001  0.32711259  1  0.072448  -0.000279  0.098272  0.1481  -0.000299  0.998665  0.0
H  H20  1  0.77105494  0.11989132  0.28622611  1  0.045975  0.001885  0.094521  0.143016  0.000891  0.99539  0.001
H  H21  1  0.68812382  0.98727489  0.22777144  1  0.027368  -0.000349  0.097185  0.144326  -0.000377  0.99503  0.0
H  H22  1  0.59685054  0.19966025  0.38217170  1  0.058556  -0.000325  0.093928  0.123721  -0.000225  1.072335  0.0
H  H23  1  0.55026543  0.33528312  0.45553654  1  0.129646  0.000286  0.10691  0.122431  0.000284  1.044502  0.0
H  H24  1  0.12827891  0.17352603  0.51963309  1  0.106263  0.000331  0.103143  0.109526  0.000265  1.043413  0.0
H  H25  1  0.95912115  0.30152444  0.53417985  1  0.097444  -5.9e-05  0.112766  0.08563  -8.2e-05  0.98948  0.0
H  H26  1  0.36043108  0.45195670  0.46945770  1  0.084867  8.6e-05  0.110923  0.076954  -4e-06  1.031687  0.0
H  H27  1  0.10935996  0.94882878  0.67288725  1  0.073336  -0.000279  0.098261  0.1481  -0.000299  0.998666  0.0
H  H28  1  0.22894047  0.88010822  0.71377314  1  0.045966  0.001885  0.094553  0.143069  0.000891  0.995353  0.001
H  H29  1  0.31187291  0.01272465  0.77222920  1  0.02738  -0.000349  0.097202  0.14434  -0.000377  0.995026  0.0
H  H30  1  0.40314507  0.80033705  0.61782718  1  0.058515  -0.000325  0.093909  0.123685  -0.000225  1.072325  0.0
H  H31  1  0.44973656  0.66471641  0.54446389  1  0.12966  0.000286  0.106897  0.122426  0.000284  1.04453  0.0
H  H32  1  0.87171951  0.82647425  0.48036675  1  0.106751  0.000331  0.103155  0.109541  0.000265  1.043396  0.0
H  H33  1  0.04087953  0.69847510  0.46581856  1  0.097438  -5.9e-05  0.112753  0.085618  -8.2e-05  0.989489  0.0
H  H34  1  0.63957091  0.54804283  0.53054145  1  0.084798  8.6e-05  0.110891  0.076931  -4e-06  1.031738  0.0
H  H35  1  0.83912262  0.27590938  0.94868148  1  0.055893  -0.000279  0.097989  0.147873  -0.000303  0.999378  0.0
H  H36  1  0.65089734  0.16628601  0.87995841  1  0.04399  0.001873  0.094455  0.143126  0.000891  0.995174  0.001
H  H37  1  0.70049589  0.24059294  0.01266585  1  0.066545  -0.000355  0.097203  0.144513  -0.000373  0.995396  0.0
H  H38  1  0.39701924  0.18243885  0.80015128  1  0.072753  -0.000319  0.093959  0.123672  -0.000222  1.072022  0.0
H  H39  1  0.21458476  0.12008459  0.66438478  1  0.128677  0.00029  0.107337  0.123805  0.000287  1.04484  0.0
H  H40  1  0.95527444  0.34641625  0.82659115  1  0.112108  0.000339  0.1032  0.109271  0.000262  1.043788  0.0
H  H41  1  0.65790177  0.23310548  0.69883745  1  0.072405  -6.2e-05  0.11237  0.085183  -8.4e-05  0.98995  0.0
H  H42  1  0.90791391  0.01755526  0.54786615  1  0.098499  8.7e-05  0.110981  0.077598  -2e-06  1.031221  0.0
H  H43  1  0.16087579  0.72409090  0.05132028  1  0.055858  -0.000279  0.098008  0.14792  -0.000303  0.999345  0.0
H  H44  1  0.34910107  0.83371427  0.12004206  1  0.043986  0.001874  0.094431  0.143092  0.000891  0.995209  0.001
H  H45  1  0.29950478  0.75940660  0.98733511  1  0.066558  -0.000355  0.097192  0.144497  -0.000373  0.995391  0.0
H  H46  1  0.60297955  0.81756217  0.19985085  1  0.072741  -0.000319  0.093963  0.123684  -0.000222  1.071988  0.0
H  H47  1  0.78541534  0.87991643  0.33561681  1  0.128537  0.00029  0.107335  0.123789  0.000287  1.044841  0.0
H  H48  1  0.04472924  0.65358403  0.17340975  1  0.112138  0.000339  0.103177  0.109277  0.000262  1.043672  0.0
H  H49  1  0.34210076  0.76689778  0.30116410  1  0.072403  -6.2e-05  0.112353  0.085163  -8.4e-05  0.989933  0.0
H  H50  1  0.09208451  0.98244502  0.45213241  1  0.098625  8.7e-05  0.110945  0.077529  -2e-06  1.031234  0.0
C  C51  1  0.45521218  0.70071756  0.75729260  1  -0.120933  0.011503  -0.240335  -0.474774  0.00794  3.907511  0.009
C  C52  1  0.27040418  0.62768481  0.69338110  1  0.772895  -0.002999  0.1195  0.483951  -0.003756  4.029862  -0.004
C  C53  1  0.15891195  0.59150063  0.73892444  1  -0.028557  0.005465  -0.159376  -0.462258  0.003203  3.987689  0.006
C  C54  1  0.97692264  0.53228601  0.69368880  1  0.702164  -0.002727  0.118528  0.376122  -0.003191  4.068804  -0.004
C  C55  1  0.86735318  0.51675364  0.75824727  1  -0.083196  0.011804  0.001275  0.05376  0.007958  3.934676  0.01
C  C56  1  0.94754669  0.52886237  0.85141013  1  -0.037305  0.000277  -0.08341  -0.162588  -2.5e-05  3.938629  0.0
C  C57  1  0.67611884  0.49190457  0.72644778  1  -0.041064  -0.000725  -0.084207  -0.155543  -0.000896  3.935909  -0.001
C  C58  1  0.57425236  0.48372780  0.78922176  1  0.499286  0.000112  0.044037  0.100475  4.4e-05  3.969066  0.0
C  C59  1  0.83423096  0.51970184  0.90892721  1  0.535752  0.00055  0.037256  0.084905  0.000338  3.991397  0.001
C  C60  1  0.54478719  0.29928197  0.24270506  1  -0.121005  0.011504  -0.240365  -0.474871  0.007941  3.907467  0.009
C  C61  1  0.72959724  0.37231621  0.30661869  1  0.772892  -0.002999  0.11957  0.484151  -0.003756  4.029779  -0.004
C  C62  1  0.84108761  0.40849667  0.26107221  1  -0.028452  0.005465  -0.159454  -0.462555  0.003203  3.987869  0.006
C  C63  1  0.02307278  0.46771353  0.30630918  1  0.702014  -0.002726  0.118492  0.376143  -0.003191  4.068749  -0.004
C  C64  1  0.13264562  0.48324739  0.24175167  1  -0.083401  0.011805  0.001311  0.053789  0.007959  3.934694  0.01
C  C65  1  0.05245474  0.47113865  0.14858902  1  -0.037125  0.000277  -0.083381  -0.162511  -2.5e-05  3.938696  0.0
C  C66  1  0.32387884  0.50809422  0.27355067  1  -0.04097  -0.000725  -0.084217  -0.155579  -0.000895  3.936044  -0.001
C  C67  1  0.42574700  0.51627174  0.21077782  1  0.499303  0.000112  0.044037  0.100509  4.4e-05  3.969022  0.0
C  C68  1  0.16577083  0.48029993  0.09107423  1  0.535729  0.00055  0.03722  0.084882  0.000338  3.991472  0.001
C  C69  1  0.75479695  0.05653308  0.29923519  1  -0.083233  0.01148  -0.240656  -0.474634  0.007947  3.907303  0.009
C  C70  1  0.64306242  0.06567349  0.37237368  1  0.774836  -0.002964  0.119123  0.483574  -0.003748  4.029637  -0.004
C  C71  1  0.56766521  0.14736671  0.40861934  1  -0.060627  0.005531  -0.159729  -0.463245  0.003199  3.987238  0.006
C  C72  1  0.44451829  0.16127306  0.46771820  1  0.737542  -0.002788  0.119198  0.377157  -0.00319  4.068621  -0.004
C  C73  1  0.35045211  0.24134002  0.48324459  1  -0.101349  0.01182  0.001122  0.052769  0.007965  3.933595  0.01
C  C74  1  0.41864845  0.32230675  0.47109404  1  -0.051357  0.000281  -0.084092  -0.163597  -3e-05  3.935198  0.0
C  C75  1  0.18391766  0.23441665  0.50802697  1  -0.002983  -0.000743  -0.083896  -0.154148  -0.0009  3.933662  -0.001
C  C76  1  0.09038975  0.30540658  0.51622159  1  0.467785  0.000113  0.04374  0.09961  4.4e-05  3.96847  0.0
C  C77  1  0.31463410  0.38901230  0.48028273  1  0.514837  0.00055  0.038014  0.087003  0.00034  3.98795  0.001
C  C78  1  0.24520072  0.94346571  0.70076390  1  -0.084137  0.01148  -0.24067  -0.474693  0.007947  3.9073  0.009
C  C79  1  0.35693788  0.93432530  0.62762690  1  0.774816  -0.002964  0.11911  0.48361  -0.003749  4.029704  -0.004
C  C80  1  0.43233209  0.85263134  0.59138002  1  -0.060671  0.00553  -0.159656  -0.463125  0.003199  3.987241  0.006
C  C81  1  0.55548107  0.83872648  0.53228265  1  0.737778  -0.002788  0.119137  0.377055  -0.00319  4.068702  -0.004
C  C82  1  0.64954856  0.75865951  0.51675509  1  -0.101397  0.01182  0.001165  0.052831  0.007965  3.933563  0.01
C  C83  1  0.58135353  0.67769278  0.52890639  1  -0.051328  0.000281  -0.084113  -0.163677  -3e-05  3.935188  0.0
C  C84  1  0.81608039  0.76558289  0.49197186  1  -0.003462  -0.000743  -0.08391  -0.154168  -0.0009  3.933688  -0.001
C  C85  1  0.90961167  0.69459444  0.48377820  1  0.467747  0.000113  0.043764  0.099659  4.4e-05  3.968507  0.0
C  C86  1  0.68536826  0.61098798  0.51971870  1  0.514711  0.00055  0.038034  0.087067  0.00034  3.987901  0.001
C  C87  1  0.69792454  0.24267506  0.94333305  1  -0.102829  0.011444  -0.240621  -0.475648  0.00792  3.908399  0.009
C  C88  1  0.57718798  0.30666225  0.93419713  1  0.741888  -0.002953  0.119875  0.485123  -0.003771  4.028406  -0.004
C  C89  1  0.42022234  0.26121133  0.85244579  1  -0.003598  0.00542  -0.159675  -0.462885  0.003211  3.984918  0.006
C  C90  1  0.28338200  0.30644240  0.83853270  1  0.716538  -0.002699  0.119007  0.376592  -0.003191  4.069796  -0.004
C  C91  1  0.10917596  0.24194071  0.75857291  1  -0.003603  0.011751  0.00138  0.052538  0.007961  3.935678  0.01
C  C92  1  0.09613121  0.14877399  0.67749829  1  -0.152258  0.000338  -0.084615  -0.164629  -4.2e-05  3.937889  0.0
C  C93  1  0.94982137  0.27385779  0.76565179  1  -0.043289  -0.000721  -0.08364  -0.152815  -0.000884  3.933489  -0.001
C  C94  1  0.78515235  0.21116160  0.69477918  1  0.507122  0.000142  0.043584  0.099155  6.4e-05  3.969938  0.0
C  C95  1  0.92530857  0.09138388  0.61087311  1  0.535093  0.000554  0.037111  0.08455  0.000346  3.99091  0.001
C  C96  1  0.30207350  0.75732447  0.05666769  1  -0.10281  0.011444  -0.240624  -0.475681  0.00792  3.90841  0.009
C  C97  1  0.42281343  0.69333878  0.06580393  1  0.741977  -0.002953  0.119922  0.485228  -0.003771  4.028185  -0.004
C  C98  1  0.57978040  0.73878970  0.14755284  1  -0.003585  0.005419  -0.159688  -0.462948  0.00321  3.984887  0.006
C  C99  1  0.71662280  0.69356011  0.16146677  1  0.71653  -0.002699  0.119015  0.37662  -0.003191  4.06983  -0.004
C  C100  1  0.89082640  0.75805957  0.24142852  1  -0.003928  0.01175  0.001328  0.052494  0.007961  3.935827  0.01
C  C101  1  0.90387152  0.85122704  0.32250479  1  -0.151772  0.000338  -0.084588  -0.164589  -4.3e-05  3.937877  0.0
C  C102  1  0.05017704  0.72614249  0.23435187  1  -0.043286  -0.000721  -0.083601  -0.152878  -0.000884  3.933529  -0.001
C  C103  1  0.21484869  0.78883868  0.30522215  1  0.506859  0.000142  0.043602  0.099247  6.4e-05  3.96991  0.0
C  C104  1  0.07469416  0.90861714  0.38912806  1  0.534953  0.000554  0.037188  0.084706  0.000346  3.990997  0.001
N  N105  1  0.65156145  0.49856113  0.87969205  1  -1.216463  -0.002161  -0.327723  -0.275738  -0.002206  3.503114  -0.001
N  N106  1  0.34843903  0.50144064  0.12030865  1  -1.216485  -0.002161  -0.327718  -0.275771  -0.002206  3.503154  -0.001
N  N107  1  0.15304396  0.38100596  0.50143892  1  -1.200755  -0.002195  -0.327926  -0.276424  -0.002249  3.501801  -0.001
N  N108  1  0.84695673  0.61899358  0.49855885  1  -1.200551  -0.002195  -0.327915  -0.276468  -0.00225  3.501846  -0.001
N  N109  1  0.77191206  0.12070069  0.61907105  1  -1.211775  -0.002194  -0.326869  -0.274607  -0.002244  3.502202  -0.001
N  N110  1  0.22808954  0.87930332  0.38093076  1  -1.211525  -0.002194  -0.326898  -0.274715  -0.002244  3.502385  -0.001
O  O111  1  0.88961600  0.49301022  0.60175720  1  -1.085303  0.092362  -0.298907  -0.459214  0.05886  2.403449  0.084
O  O112  1  0.22776157  0.60632261  0.60226896  1  -1.095207  0.08618  -0.299417  -0.470619  0.05501  2.324795  0.079
O  O113  1  0.11038093  0.50698708  0.39824051  1  -1.08523  0.092365  -0.298883  -0.459167  0.058861  2.403338  0.084
O  O114  1  0.77223648  0.39367692  0.39772923  1  -1.095278  0.086179  -0.29947  -0.470737  0.05501  2.324896  0.079
O  O115  1  0.39616670  0.10851971  0.50680837  1  -1.086561  0.09229  -0.299097  -0.459886  0.058862  2.404587  0.084
O  O116  1  0.62187490  0.99597039  0.39373226  1  -1.100568  0.086296  -0.299232  -0.470971  0.055064  2.324633  0.079
O  O117  1  0.60383340  0.89148131  0.49319323  1  -1.086692  0.092292  -0.299087  -0.459886  0.058863  2.404603  0.084
O  O118  1  0.37812671  0.00402840  0.60626715  1  -1.100522  0.086298  -0.299266  -0.471029  0.055065  2.324716  0.079
O  O119  1  0.28798293  0.39834968  0.89121706  1  -1.100126  0.09237  -0.299586  -0.460078  0.058992  2.404448  0.084
O  O120  1  0.62569487  0.39771271  0.00398637  1  -1.109058  0.086043  -0.29955  -0.471346  0.054808  2.324781  0.079
O  O121  1  0.71201586  0.60165135  0.10878379  1  -1.100084  0.092368  -0.299586  -0.460076  0.058991  2.404505  0.084
O  O122  1  0.37430580  0.60228682  0.99601459  1  -1.109136  0.086048  -0.299564  -0.471368  0.054811  2.324579  0.079
