# generated using pymatgen
data_CdH10C11(IN2)2
_symmetry_space_group_name_H-M   'P 1'
_cell_length_a   9.08176879
_cell_length_b   13.32564730
_cell_length_c   14.73003613
_cell_angle_alpha   89.99852338
_cell_angle_beta   88.92583871
_cell_angle_gamma   90.00062971
_symmetry_Int_Tables_number   1
_chemical_formula_structural   CdH10C11(IN2)2
_chemical_formula_sum   'Cd4 H40 C44 I8 N16'
_cell_volume   1782.32230099
_cell_formula_units_Z   4
loop_
 _symmetry_equiv_pos_site_id
 _symmetry_equiv_pos_as_xyz
  1  'x, y, z'
loop_
 _atom_site_type_symbol
 _atom_site_label
 _atom_site_symmetry_multiplicity
 _atom_site_fract_x
 _atom_site_fract_y
 _atom_site_fract_z
 _atom_site_occupancy
 _atom_site_hle17_bader_spin_density
 _atom_site_hle17_ddec_charge
 _atom_site_hle17_ddec_spin_density
 _atom_site_hle17_ddec_sum_bond_order
 _atom_site_hle17_magmom
 _atom_site_hse06_10hf_bader_spin_density
 _atom_site_hse06_10hf_ddec_charge
 _atom_site_hse06_10hf_ddec_spin_density
 _atom_site_hse06_10hf_ddec_sum_bond_order
 _atom_site_hse06_10hf_magmom
 _atom_site_hse06_bader_spin_density
 _atom_site_hse06_ddec_charge
 _atom_site_hse06_ddec_spin_density
 _atom_site_hse06_ddec_sum_bond_order
 _atom_site_hse06_magmom
 _atom_site_pbe_bader_spin_density
 _atom_site_pbe_cm5_charge
 _atom_site_pbe_ddec_charge
 _atom_site_pbe_ddec_spin_density
 _atom_site_pbe_ddec_sum_bond_order
 _atom_site_pbe_magmom
Cd  Cd0  1  0.34814956  0.25258833  0.44241285  1  0  0.80779  0  2.043688  0  0  0.641287  0  2.508198  0  0  0.686777  0  2.470542  0  0  0.545111  0.61017  0  2.533075  0
Cd  Cd1  1  0.15185286  0.75258834  0.05758982  1  0  0.807692  0  2.04376  0  0  0.641178  0  2.508282  0  0  0.68667  0  2.470624  0  0  0.545067  0.610078  0  2.533117  0
Cd  Cd2  1  0.65187002  0.74741183  0.55758888  1  0  0.807739  0  2.043825  0  0  0.641221  0  2.508274  0  0  0.686685  0  2.470678  0  0  0.545065  0.610126  0  2.533107  0
Cd  Cd3  1  0.84812550  0.24741407  0.94241956  1  0  0.807752  0  2.043891  0  0  0.641271  0  2.508323  0  0  0.686733  0  2.470725  0  0  0.545105  0.610173  0  2.53317  0
H  H4  1  0.33469899  0.07311714  0.85358399  1  0  0.311307  0  0.873774  0  0  0.29928  0  0.926877  0  0  0.30675  0  0.920921  0  0  0.317188  0.293948  0  0.931261  0
H  H5  1  0.16531569  0.57313346  0.64640784  1  0  0.31128  0  0.873637  0  0  0.299248  0  0.926804  0  0  0.30672  0  0.920844  0  0  0.3171  0.293911  0  0.931189  0
H  H6  1  0.66529601  0.92687176  0.14640589  1  0  0.311129  0  0.873587  0  0  0.299093  0  0.926742  0  0  0.306533  0  0.920829  0  0  0.316994  0.293757  0  0.931136  0
H  H7  1  0.83470838  0.42686520  0.35359258  1  0  0.311156  0  0.873596  0  0  0.299102  0  0.926756  0  0  0.30654  0  0.920847  0  0  0.317021  0.293763  0  0.931152  0
H  H8  1  0.48743447  0.10087612  0.60140831  1  0  0.092165  0  0.980953  0  0  0.095572  0  1.057367  0  0  0.098888  0  1.052892  0  0  0.116648  0.093078  0  1.060599  0
H  H9  1  0.01258087  0.60087573  0.89859715  1  0  0.092141  0  0.980805  0  0  0.095539  0  1.05724  0  0  0.098855  0  1.052766  0  0  0.116637  0.093038  0  1.060474  0
H  H10  1  0.51256530  0.89912629  0.39859318  1  0  0.092187  0  0.98096  0  0  0.095588  0  1.057373  0  0  0.098908  0  1.052887  0  0  0.116657  0.093096  0  1.060601  0
H  H11  1  0.98742949  0.39912593  0.10141126  1  0  0.092182  0  0.98095  0  0  0.095582  0  1.057369  0  0  0.098907  0  1.052869  0  0  0.11665  0.093084  0  1.0606  0
H  H12  1  0.40039931  0.41128729  0.63150240  1  0  0.095254  0  0.979442  0  0  0.103148  0  1.045056  0  0  0.106222  0  1.042982  0  0  0.100654  0.10091  0  1.046652  0
H  H13  1  0.09962165  0.91128394  0.86848702  1  0  0.095172  0  0.979901  0  0  0.103183  0  1.045381  0  0  0.106264  0  1.043293  0  0  0.10063  0.100947  0  1.046979  0
H  H14  1  0.59964584  0.58871963  0.36849556  1  0  0.095087  0  0.979451  0  0  0.103084  0  1.044983  0  0  0.106159  0  1.042905  0  0  0.10061  0.100848  0  1.046578  0
H  H15  1  0.90035595  0.08872147  0.13151691  1  0  0.095126  0  0.979724  0  0  0.103214  0  1.045124  0  0  0.106294  0  1.043035  0  0  0.100699  0.100976  0  1.046726  0
H  H16  1  0.52679127  0.34057674  0.78923379  1  0  0.120405  0  0.961156  0  0  0.127486  0  1.026072  0  0  0.131042  0  1.023477  0  0  0.116475  0.124906  0  1.028017  0
H  H17  1  0.97322367  0.84057707  0.71076795  1  0  0.120564  0  0.961508  0  0  0.127622  0  1.026401  0  0  0.131177  0  1.023803  0  0  0.11652  0.125047  0  1.028349  0
H  H18  1  0.47322827  0.65942117  0.21076862  1  0  0.120431  0  0.96103  0  0  0.127459  0  1.026019  0  0  0.131016  0  1.023425  0  0  0.116459  0.124882  0  1.027968  0
H  H19  1  0.02677818  0.15941933  0.28923560  1  0  0.120645  0  0.961202  0  0  0.127726  0  1.026092  0  0  0.131282  0  1.023495  0  0  0.116566  0.125149  0  1.028045  0
H  H20  1  0.72207107  0.15634727  0.77381173  1  0  0.104027  0  0.944473  0  0  0.11578  0  1.00886  0  0  0.117562  0  1.007542  0  0  0.106478  0.114399  0  1.009948  0
H  H21  1  0.77794641  0.65634714  0.72619367  1  0  0.104001  0  0.944562  0  0  0.115701  0  1.009006  0  0  0.117517  0  1.007656  0  0  0.10648  0.114317  0  1.010094  0
H  H22  1  0.27792964  0.84363638  0.22619248  1  0  0.103994  0  0.944387  0  0  0.115757  0  1.008797  0  0  0.117533  0  1.007485  0  0  0.106492  0.114372  0  1.00988  0
H  H23  1  0.22207436  0.34364101  0.27380672  1  0  0.103975  0  0.944465  0  0  0.115728  0  1.008876  0  0  0.117507  0  1.007557  0  0  0.10646  0.114345  0  1.009961  0
H  H24  1  0.59965895  0.05866189  0.74586136  1  0  0.11233  0  0.94162  0  0  0.123169  0  1.006802  0  0  0.12563  0  1.005261  0  0  0.11271  0.12137  0  1.007997  0
H  H25  1  0.90035270  0.55866190  0.75414355  1  0  0.112168  0  0.941584  0  0  0.122978  0  1.006838  0  0  0.125439  0  1.005309  0  0  0.112669  0.121181  0  1.008031  0
H  H26  1  0.40032546  0.94133377  0.25413926  1  0  0.11222  0  0.941671  0  0  0.123038  0  1.006939  0  0  0.125507  0  1.005391  0  0  0.11269  0.121234  0  1.008133  0
H  H27  1  0.09967564  0.44133150  0.24585897  1  0  0.112257  0  0.941614  0  0  0.123056  0  1.006902  0  0  0.125515  0  1.005365  0  0  0.112696  0.121252  0  1.008095  0
H  H28  1  0.18775787  0.04104073  0.02796248  1  0  0.099314  0  0.969178  0  0  0.10382  0  1.042746  0  0  0.107046  0  1.040962  0  0  0.091091  0.101491  0  1.044089  0
H  H29  1  0.31223666  0.54106305  0.47202807  1  0  0.099272  0  0.969377  0  0  0.103796  0  1.042935  0  0  0.107024  0  1.041149  0  0  0.091058  0.101469  0  1.044272  0
H  H30  1  0.81222108  0.95893616  0.97201973  1  0  0.099271  0  0.969432  0  0  0.103792  0  1.042991  0  0  0.107022  0  1.041202  0  0  0.091065  0.101467  0  1.044338  0
H  H31  1  0.68778724  0.45893936  0.52797507  1  0  0.09927  0  0.969429  0  0  0.103832  0  1.042944  0  0  0.107061  0  1.041158  0  0  0.091063  0.101505  0  1.044285  0
H  H32  1  0.22972878  0.07625708  0.19178001  1  0  0.079344  0  0.992398  0  0  0.08539  0  1.064778  0  0  0.087577  0  1.064738  0  0  0.084299  0.083784  0  1.064938  0
H  H33  1  0.27024097  0.57627480  0.30821009  1  0  0.079443  0  0.9925  0  0  0.085396  0  1.064929  0  0  0.087583  0  1.064892  0  0  0.084318  0.083792  0  1.065082  0
H  H34  1  0.77023460  0.92371456  0.80820473  1  0  0.079481  0  0.992529  0  0  0.085495  0  1.064886  0  0  0.087682  0  1.06485  0  0  0.084353  0.08389  0  1.065044  0
H  H35  1  0.72977417  0.42372461  0.69179226  1  0  0.079447  0  0.992592  0  0  0.085486  0  1.064924  0  0  0.087673  0  1.064887  0  0  0.084321  0.083878  0  1.065082  0
H  H36  1  0.45136267  0.16579959  0.24161448  1  0  0.067081  0  1.017745  0  0  0.072518  0  1.092564  0  0  0.075025  0  1.091725  0  0  0.073614  0.070702  0  1.093231  0
H  H37  1  0.04859368  0.66580352  0.25838219  1  0  0.067378  0  1.017711  0  0  0.072795  0  1.092515  0  0  0.075304  0  1.091673  0  0  0.073702  0.070978  0  1.093186  0
H  H38  1  0.54857594  0.83419607  0.75837879  1  0  0.067422  0  1.017483  0  0  0.072851  0  1.092316  0  0  0.075353  0  1.091478  0  0  0.073713  0.07103  0  1.092986  0
H  H39  1  0.95142569  0.33420039  0.74162293  1  0  0.067332  0  1.017644  0  0  0.072738  0  1.092515  0  0  0.075236  0  1.091681  0  0  0.073673  0.07092  0  1.093189  0
H  H40  1  0.64591694  0.21995240  0.13101344  1  0  0.106113  0  0.972201  0  0  0.113894  0  1.036469  0  0  0.116769  0  1.035339  0  0  0.097052  0.111829  0  1.037335  0
H  H41  1  0.85405013  0.71995025  0.36898670  1  0  0.106083  0  0.972109  0  0  0.113835  0  1.036414  0  0  0.116677  0  1.03532  0  0  0.097043  0.111767  0  1.037281  0
H  H42  1  0.35402240  0.78006202  0.86898595  1  0  0.10618  0  0.972094  0  0  0.113894  0  1.036422  0  0  0.116695  0  1.035376  0  0  0.09709  0.111835  0  1.037273  0
H  H43  1  0.14597475  0.28006041  0.63101848  1  0  0.106213  0  0.972112  0  0  0.113925  0  1.036433  0  0  0.116734  0  1.035379  0  0  0.097098  0.111861  0  1.037295  0
C  C44  1  0.47763141  0.17594069  0.62980328  1  0  0.163001  0  3.647082  0  0  0.102982  0  3.903497  0  0  0.117638  0  3.915639  0  0  0.137486  0.093598  0  3.895027  0
C  C45  1  0.02238529  0.67594345  0.87019840  1  0  0.163182  0  3.646699  0  0  0.103195  0  3.903133  0  0  0.117847  0  3.915271  0  0  0.137649  0.09382  0  3.894655  0
C  C46  1  0.52237611  0.82406322  0.37019762  1  0  0.163095  0  3.646955  0  0  0.103079  0  3.903356  0  0  0.117736  0  3.915497  0  0  0.137533  0.093685  0  3.894893  0
C  C47  1  0.97762084  0.32406271  0.12980724  1  0  0.16302  0  3.646812  0  0  0.103022  0  3.90323  0  0  0.117679  0  3.915371  0  0  0.137516  0.093645  0  3.894751  0
C  C48  1  0.43396129  0.33566232  0.64875829  1  0  0.004802  0  3.753837  0  0  -0.026969  0  4.015413  0  0  -0.025272  0  4.035509  0  0  -0.005391  -0.028078  0  4.001848  0
C  C49  1  0.06606767  0.83567347  0.85124387  1  0  0.005031  0  3.753678  0  0  -0.026824  0  4.015183  0  0  -0.025129  0  4.035276  0  0  -0.00535  -0.027943  0  4.001634  0
C  C50  1  0.56606625  0.66434459  0.35123946  1  0  0.005107  0  3.754128  0  0  -0.026759  0  4.015683  0  0  -0.025063  0  4.035783  0  0  -0.005318  -0.027874  0  4.002127  0
C  C51  1  0.93392284  0.16433494  0.14876498  1  0  0.005201  0  3.753493  0  0  -0.026702  0  4.015023  0  0  -0.025007  0  4.035119  0  0  -0.005422  -0.027819  0  4.001481  0
C  C52  1  0.49641751  0.30225142  0.72726609  1  0  -0.054478  0  3.654034  0  0  -0.093193  0  3.907577  0  0  -0.091843  0  3.925589  0  0  0.003743  -0.09406  0  3.895533  0
C  C53  1  0.00359443  0.80225534  0.77271831  1  0  -0.054911  0  3.653875  0  0  -0.093586  0  3.907404  0  0  -0.092238  0  3.925412  0  0  0.003634  -0.094463  0  3.895377  0
C  C54  1  0.50360635  0.69774873  0.27273773  1  0  -0.054449  0  3.654281  0  0  -0.093112  0  3.907817  0  0  -0.091762  0  3.925828  0  0  0.003812  -0.093987  0  3.895782  0
C  C55  1  0.99640327  0.19774481  0.22728112  1  0  -0.055071  0  3.65388  0  0  -0.093809  0  3.907468  0  0  -0.092462  0  3.925481  0  0  0.003539  -0.094685  0  3.895441  0
C  C56  1  0.60509597  0.13486042  0.77438016  1  0  -0.106174  0  3.656731  0  0  -0.163927  0  3.890552  0  0  -0.162472  0  3.898679  0  0  -0.041709  -0.164821  0  3.885053  0
C  C57  1  0.89490846  0.63486497  0.72561743  1  0  -0.1059  0  3.656515  0  0  -0.163535  0  3.890233  0  0  -0.162127  0  3.898357  0  0  -0.04159  -0.164422  0  3.884734  0
C  C58  1  0.39489403  0.86513073  0.22561917  1  0  -0.105732  0  3.656384  0  0  -0.163505  0  3.890186  0  0  -0.162064  0  3.898351  0  0  -0.041585  -0.164381  0  3.884672  0
C  C59  1  0.10511116  0.36512993  0.27438362  1  0  -0.105837  0  3.656496  0  0  -0.163641  0  3.890414  0  0  -0.162181  0  3.898549  0  0  -0.041641  -0.164523  0  3.884904  0
C  C60  1  0.54791172  0.13614131  0.86978293  1  0  0.387064  0  3.705923  0  0  0.356342  0  3.983374  0  0  0.374662  0  3.995726  0  0  0.231465  0.344332  0  3.974528  0
C  C61  1  0.95209459  0.63614756  0.63022010  1  0  0.386969  0  3.706042  0  0  0.356217  0  3.983542  0  0  0.374574  0  3.99585  0  0  0.231382  0.344187  0  3.974716  0
C  C62  1  0.45207502  0.86385359  0.13021568  1  0  0.386871  0  3.705797  0  0  0.356181  0  3.983315  0  0  0.374522  0  3.995643  0  0  0.231318  0.344153  0  3.974483  0
C  C63  1  0.04792491  0.36385260  0.36978299  1  0  0.386844  0  3.705929  0  0  0.356169  0  3.983415  0  0  0.374485  0  3.995776  0  0  0.231326  0.344147  0  3.974574  0
C  C64  1  0.39851769  0.10792201  0.98874003  1  0  0.164942  0  3.78633  0  0  0.157754  0  4.030858  0  0  0.162019  0  4.052838  0  0  0.093895  0.154853  0  4.016071  0
C  C65  1  0.10147530  0.60793497  0.51125480  1  0  0.164772  0  3.786908  0  0  0.157832  0  4.031136  0  0  0.162095  0  4.05312  0  0  0.093983  0.154924  0  4.016355  0
C  C66  1  0.60144971  0.89207440  0.01125087  1  0  0.165045  0  3.786709  0  0  0.15802  0  4.030971  0  0  0.162284  0  4.052949  0  0  0.094045  0.155117  0  4.016187  0
C  C67  1  0.89855102  0.39207344  0.48874497  1  0  0.164906  0  3.786902  0  0  0.157875  0  4.031133  0  0  0.162143  0  4.053111  0  0  0.094048  0.154969  0  4.016349  0
C  C68  1  0.28748231  0.07865098  0.04989767  1  0  -0.152617  0  3.763974  0  0  -0.171887  0  4.017476  0  0  -0.175493  0  4.038806  0  0  -0.102244  -0.169396  0  4.003048  0
C  C69  1  0.21250403  0.57866791  0.45009189  1  0  -0.152235  0  3.764045  0  0  -0.171588  0  4.017373  0  0  -0.175198  0  4.038713  0  0  -0.10204  -0.169095  0  4.002934  0
C  C70  1  0.71248877  0.92133567  0.95008716  1  0  -0.152396  0  3.764055  0  0  -0.171733  0  4.017427  0  0  -0.175343  0  4.038767  0  0  -0.102136  -0.169251  0  4.003028  0
C  C71  1  0.78751665  0.42133900  0.54990985  1  0  -0.152445  0  3.763961  0  0  -0.171837  0  4.017372  0  0  -0.175447  0  4.038712  0  0  -0.102207  -0.169353  0  4.002966  0
C  C72  1  0.31156036  0.09944875  0.14101345  1  0  -0.072048  0  3.793451  0  0  -0.086147  0  4.0436  0  0  -0.089003  0  4.068801  0  0  -0.104578  -0.08416  0  4.026569  0
C  C73  1  0.18841294  0.59946362  0.35897819  1  0  -0.072183  0  3.793528  0  0  -0.086176  0  4.043686  0  0  -0.08903  0  4.068887  0  0  -0.104568  -0.084186  0  4.026649  0
C  C74  1  0.68840043  0.90053715  0.85897738  1  0  -0.072125  0  3.793737  0  0  -0.086145  0  4.043862  0  0  -0.088998  0  4.069066  0  0  -0.104501  -0.084157  0  4.026828  0
C  C75  1  0.81160546  0.40054404  0.64102488  1  0  -0.072094  0  3.793723  0  0  -0.086128  0  4.043851  0  0  -0.088984  0  4.069055  0  0  -0.104435  -0.084138  0  4.026814  0
C  C76  1  0.43910356  0.14963551  0.16964582  1  0  -0.081713  0  3.802557  0  0  -0.096963  0  4.053632  0  0  -0.100328  0  4.077567  0  0  -0.11084  -0.094693  0  4.03747  0
C  C77  1  0.06086167  0.64964196  0.33034590  1  0  -0.082339  0  3.802888  0  0  -0.097598  0  4.053983  0  0  -0.100965  0  4.077904  0  0  -0.111142  -0.095328  0  4.037823  0
C  C78  1  0.56084517  0.85036315  0.83034418  1  0  -0.082339  0  3.802872  0  0  -0.097658  0  4.054021  0  0  -0.101013  0  4.077934  0  0  -0.111179  -0.095384  0  4.037856  0
C  C79  1  0.93915334  0.35036795  0.66965849  1  0  -0.082163  0  3.802971  0  0  -0.097464  0  4.054089  0  0  -0.100817  0  4.078008  0  0  -0.111174  -0.095196  0  4.037936  0
C  C80  1  0.54912071  0.17946801  0.10846378  1  0  -0.139613  0  3.742042  0  0  -0.156488  0  3.987209  0  0  -0.158778  0  4.007241  0  0  -0.099608  -0.15485  0  3.97367  0
C  C81  1  0.95085703  0.67946896  0.39153201  1  0  -0.139306  0  3.741851  0  0  -0.156122  0  3.987025  0  0  -0.158385  0  4.007078  0  0  -0.099557  -0.15448  0  3.973484  0
C  C82  1  0.45082870  0.82054190  0.89153302  1  0  -0.139505  0  3.742254  0  0  -0.156297  0  3.987411  0  0  -0.158529  0  4.00748  0  0  -0.099612  -0.154664  0  3.973858  0
C  C83  1  0.04916788  0.32054320  0.60847250  1  0  -0.13967  0  3.742286  0  0  -0.156482  0  3.987393  0  0  -0.15872  0  4.00746  0  0  -0.099598  -0.154843  0  3.973856  0
C  C84  1  0.52910672  0.15612930  0.01688597  1  0  0.147975  0  3.807063  0  0  0.145922  0  4.04925  0  0  0.148999  0  4.072851  0  0  0.081213  0.143743  0  4.033382  0
C  C85  1  0.97087923  0.65613377  0.48311386  1  0  0.147755  0  3.807099  0  0  0.145595  0  4.049328  0  0  0.148669  0  4.072927  0  0  0.081102  0.143421  0  4.033462  0
C  C86  1  0.47085500  0.84387386  0.98310758  1  0  0.147728  0  3.807257  0  0  0.14569  0  4.049388  0  0  0.14877  0  4.072977  0  0  0.081053  0.143509  0  4.03352  0
C  C87  1  0.02914873  0.34387614  0.51689476  1  0  0.147944  0  3.807243  0  0  0.145991  0  4.049234  0  0  0.14907  0  4.072823  0  0  0.081106  0.143811  0  4.033368  0
I  I88  1  0.27281581  0.05575676  0.41185495  1  0  -0.512236  0  0.939234  0  0  -0.459648  0  1.209634  0  0  -0.477537  0  1.186803  0  0  -0.269066  -0.447004  0  1.225004  0
I  I89  1  0.22718721  0.55575647  0.08814419  1  0  -0.512194  0  0.939299  0  0  -0.459574  0  1.209665  0  0  -0.477462  0  1.186835  0  0  -0.269047  -0.446938  0  1.225025  0
I  I90  1  0.72718845  0.94424565  0.58814524  1  0  -0.512182  0  0.93929  0  0  -0.459595  0  1.209659  0  0  -0.477475  0  1.186838  0  0  -0.269026  -0.446954  0  1.225022  0
I  I91  1  0.77280719  0.44424668  0.91185520  1  0  -0.512183  0  0.939307  0  0  -0.459599  0  1.209673  0  0  -0.477478  0  1.186851  0  0  -0.26904  -0.446953  0  1.225036  0
I  I92  1  0.52889964  0.37217353  0.33346362  1  0  -0.502478  0  0.948575  0  0  -0.444799  0  1.225883  0  0  -0.461933  0  1.203129  0  0  -0.244929  -0.432687  0  1.241314  0
I  I93  1  0.97108265  0.87216761  0.16652295  1  0  -0.502445  0  0.948601  0  0  -0.444767  0  1.225911  0  0  -0.461911  0  1.203172  0  0  -0.2449  -0.432656  0  1.241339  0
I  I94  1  0.47111914  0.62782063  0.66653334  1  0  -0.502469  0  0.948628  0  0  -0.444765  0  1.225905  0  0  -0.461906  0  1.203174  0  0  -0.244913  -0.432663  0  1.241327  0
I  I95  1  0.02889398  0.12783930  0.83347894  1  0  -0.502451  0  0.94865  0  0  -0.444786  0  1.225945  0  0  -0.461919  0  1.203197  0  0  -0.24491  -0.43267  0  1.24137  0
N  N96  1  0.42275618  0.25638520  0.58870610  1  0  -0.365978  0  3.290702  0  0  -0.28396  0  3.568424  0  0  -0.305287  0  3.586507  0  0  -0.364733  -0.269479  0  3.555645  0
N  N97  1  0.07726204  0.75638494  0.91129032  1  0  -0.366175  0  3.290646  0  0  -0.284215  0  3.56847  0  0  -0.305546  0  3.58656  0  0  -0.36482  -0.26973  0  3.555681  0
N  N98  1  0.57726801  0.74362097  0.41129229  1  0  -0.366157  0  3.290651  0  0  -0.284138  0  3.568424  0  0  -0.305465  0  3.586505  0  0  -0.364771  -0.269658  0  3.555651  0
N  N99  1  0.92272534  0.24362272  0.08871577  1  0  -0.365969  0  3.290443  0  0  -0.284027  0  3.568285  0  0  -0.305362  0  3.58639  0  0  -0.364687  -0.269547  0  3.55551  0
N  N100  1  0.52369890  0.20110166  0.71396229  1  0  -0.043666  0  3.550906  0  0  0.05013  0  3.766019  0  0  0.035852  0  3.791461  0  0  -0.238199  0.059589  0  3.748569  0
N  N101  1  0.97631618  0.70110135  0.78603932  1  0  -0.043526  0  3.550715  0  0  0.050249  0  3.765795  0  0  0.035975  0  3.791242  0  0  -0.238213  0.059707  0  3.748343  0
N  N102  1  0.47631095  0.79889624  0.28603660  1  0  -0.0439  0  3.55107  0  0  0.049908  0  3.766193  0  0  0.035633  0  3.791631  0  0  -0.238306  0.059375  0  3.748737  0
N  N103  1  0.02369435  0.29889731  0.21396638  1  0  -0.043636  0  3.550638  0  0  0.050208  0  3.765699  0  0  0.035929  0  3.79114  0  0  -0.238148  0.059674  0  3.748237  0
N  N104  1  0.61981076  0.17191144  0.94090655  1  0  -0.459128  0  3.163508  0  0  -0.39032  0  3.436654  0  0  -0.412927  0  3.452165  0  0  -0.353808  -0.375014  0  3.425778  0
N  N105  1  0.88018594  0.67191167  0.55910028  1  0  -0.458921  0  3.163802  0  0  -0.390111  0  3.436985  0  0  -0.412729  0  3.452484  0  0  -0.353674  -0.374803  0  3.426117  0
N  N106  1  0.38015808  0.82809397  0.05909660  1  0  -0.45885  0  3.163462  0  0  -0.390158  0  3.436627  0  0  -0.412773  0  3.452137  0  0  -0.35371  -0.374842  0  3.425748  0
N  N107  1  0.11984109  0.32809299  0.44090562  1  0  -0.458929  0  3.163445  0  0  -0.390288  0  3.436604  0  0  -0.412897  0  3.452123  0  0  -0.35376  -0.37497  0  3.425723  0
N  N108  1  0.41498381  0.09724250  0.89568318  1  0  -0.372885  0  3.38303  0  0  -0.320265  0  3.614981  0  0  -0.337652  0  3.626335  0  0  -0.374065  -0.308554  0  3.607156  0
N  N109  1  0.08501573  0.59725491  0.60430994  1  0  -0.372835  0  3.383342  0  0  -0.320309  0  3.615264  0  0  -0.337708  0  3.626607  0  0  -0.374056  -0.308586  0  3.607437  0
N  N110  1  0.58499811  0.90275090  0.10430450  1  0  -0.372835  0  3.383052  0  0  -0.320233  0  3.614905  0  0  -0.337615  0  3.62633  0  0  -0.373888  -0.30852  0  3.607091  0
N  N111  1  0.91500487  0.40274675  0.39569316  1  0  -0.372697  0  3.38325  0  0  -0.320076  0  3.615097  0  0  -0.337445  0  3.626518  0  0  -0.373838  -0.308359  0  3.607277  0
