# generated using pymatgen
data_Zn3H12C20(N3O4)2
_symmetry_space_group_name_H-M   'P 1'
_cell_length_a   7.81459563
_cell_length_b   8.58192479
_cell_length_c   19.94143555
_cell_angle_alpha   89.99995195
_cell_angle_beta   90.00004806
_cell_angle_gamma   112.53015657
_symmetry_Int_Tables_number   1
_chemical_formula_structural   Zn3H12C20(N3O4)2
_chemical_formula_sum   'Zn6 H24 C40 N12 O16'
_cell_volume   1235.28801225
_cell_formula_units_Z   2
loop_
 _symmetry_equiv_pos_site_id
 _symmetry_equiv_pos_as_xyz
  1  'x, y, z'
loop_
 _atom_site_type_symbol
 _atom_site_label
 _atom_site_symmetry_multiplicity
 _atom_site_fract_x
 _atom_site_fract_y
 _atom_site_fract_z
 _atom_site_occupancy
 _atom_site_hle17_bader_spin_density
 _atom_site_hle17_ddec_charge
 _atom_site_hle17_ddec_spin_density
 _atom_site_hle17_ddec_sum_bond_order
 _atom_site_hle17_magmom
 _atom_site_hse06_10hf_bader_spin_density
 _atom_site_hse06_10hf_ddec_charge
 _atom_site_hse06_10hf_ddec_spin_density
 _atom_site_hse06_10hf_ddec_sum_bond_order
 _atom_site_hse06_10hf_magmom
 _atom_site_hse06_bader_spin_density
 _atom_site_hse06_ddec_charge
 _atom_site_hse06_ddec_spin_density
 _atom_site_hse06_ddec_sum_bond_order
 _atom_site_hse06_magmom
 _atom_site_pbe_bader_spin_density
 _atom_site_pbe_cm5_charge
 _atom_site_pbe_ddec_charge
 _atom_site_pbe_ddec_spin_density
 _atom_site_pbe_ddec_sum_bond_order
 _atom_site_pbe_magmom
Zn  Zn0  1  0.99999870  0.50000022  0.50000019  1  0  1.070137  0  1.932003  0  0  0.904943  0  2.396716  0  0  0.947202  0  2.341618  0  0  0.7176  0.875461  0  2.434586  0
Zn  Zn1  1  0.49999954  0.49999977  0.99999999  1  0  1.070128  0  1.932029  0  0  0.904939  0  2.396751  0  0  0.947201  0  2.341648  0  0  0.717584  0.875453  0  2.434618  0
Zn  Zn2  1  0.53077807  0.22055056  0.47946102  1  0  0.996734  0  1.853022  0  0  0.799782  0  2.335664  0  0  0.848284  0  2.278763  0  0  0.716249  0.765841  0  2.374893  0
Zn  Zn3  1  0.96922200  0.77945128  0.97946060  1  0  0.996691  0  1.853086  0  0  0.799744  0  2.335726  0  0  0.848244  0  2.278828  0  0  0.71626  0.765802  0  2.374954  0
Zn  Zn4  1  0.46922288  0.77945079  0.52053869  1  0  0.996747  0  1.853042  0  0  0.799791  0  2.335686  0  0  0.848291  0  2.278788  0  0  0.716274  0.765851  0  2.374917  0
Zn  Zn5  1  0.03077949  0.22055133  0.02053861  1  0  0.996736  0  1.853043  0  0  0.799784  0  2.335685  0  0  0.848284  0  2.278785  0  0  0.71625  0.765841  0  2.374915  0
H  H6  1  0.01072438  0.66667183  0.31247388  1  0  0.095037  0  0.959325  0  0  0.10273  0  1.022834  0  0  0.105586  0  1.022353  0  0  0.101143  0.100667  0  1.023252  0
H  H7  1  0.48927534  0.33332865  0.81247513  1  0  0.095018  0  0.959356  0  0  0.102707  0  1.022863  0  0  0.105564  0  1.022381  0  0  0.10114  0.100645  0  1.023281  0
H  H8  1  0.98927657  0.33332952  0.68752483  1  0  0.095024  0  0.959355  0  0  0.102701  0  1.022876  0  0  0.105555  0  1.022397  0  0  0.101148  0.10064  0  1.023296  0
H  H9  1  0.51072251  0.66667147  0.18752608  1  0  0.095052  0  0.959329  0  0  0.102745  0  1.022831  0  0  0.105602  0  1.022349  0  0  0.101143  0.100682  0  1.023249  0
H  H10  1  0.06512499  0.73734345  0.19047112  1  0  0.10022  0  0.93949  0  0  0.11066  0  0.996785  0  0  0.114418  0  0.994499  0  0  0.103194  0.107973  0  0.998476  0
H  H11  1  0.43487219  0.26265470  0.69047288  1  0  0.100225  0  0.939465  0  0  0.110673  0  0.99675  0  0  0.114421  0  0.994476  0  0  0.103188  0.107985  0  0.998443  0
H  H12  1  0.93487433  0.26265412  0.80952808  1  0  0.100229  0  0.939489  0  0  0.110679  0  0.996772  0  0  0.114423  0  0.994501  0  0  0.103197  0.107991  0  0.998465  0
H  H13  1  0.56512586  0.73734288  0.30952883  1  0  0.100244  0  0.939484  0  0  0.110688  0  0.99677  0  0  0.114438  0  0.994491  0  0  0.103197  0.108001  0  0.998461  0
H  H14  1  0.57964809  0.30352214  0.14164130  1  0  0.096247  0  0.960115  0  0  0.106806  0  1.019445  0  0  0.109909  0  1.01754  0  0  0.103112  0.104483  0  1.021026  0
H  H15  1  0.92035056  0.69647511  0.64164139  1  0  0.096321  0  0.960061  0  0  0.106875  0  1.019406  0  0  0.109981  0  1.017495  0  0  0.103126  0.10455  0  1.02099  0
H  H16  1  0.42035158  0.69647922  0.85835791  1  0  0.096279  0  0.960144  0  0  0.106842  0  1.01947  0  0  0.109947  0  1.017562  0  0  0.103124  0.104519  0  1.02105  0
H  H17  1  0.07964694  0.30352121  0.35835881  1  0  0.096253  0  0.960111  0  0  0.106817  0  1.019427  0  0  0.10992  0  1.017528  0  0  0.103114  0.104495  0  1.021008  0
H  H18  1  0.52115532  0.23455698  0.26381706  1  0  0.101473  0  0.936875  0  0  0.111541  0  0.993997  0  0  0.11492  0  0.992635  0  0  0.104453  0.109098  0  0.995077  0
H  H19  1  0.97884407  0.76544136  0.76381715  1  0  0.101438  0  0.936879  0  0  0.111523  0  0.993975  0  0  0.114906  0  0.992614  0  0  0.10445  0.10908  0  0.995056  0
H  H20  1  0.47884362  0.76544566  0.73618215  1  0  0.101514  0  0.936867  0  0  0.111577  0  0.993987  0  0  0.114953  0  0.992624  0  0  0.104475  0.109134  0  0.995068  0
H  H21  1  0.02115398  0.23455622  0.23618356  1  0  0.10147  0  0.936877  0  0  0.111545  0  0.993985  0  0  0.114929  0  0.992623  0  0  0.10445  0.109102  0  0.995066  0
H  H22  1  0.12869045  0.22221341  0.57756321  1  0  0.130561  0  0.930711  0  0  0.140903  0  0.987055  0  0  0.14355  0  0.985762  0  0  0.132032  0.13894  0  0.988156  0
H  H23  1  0.37131018  0.77778739  0.07756304  1  0  0.130499  0  0.9308  0  0  0.140857  0  0.987117  0  0  0.143504  0  0.985825  0  0  0.132012  0.138893  0  0.988218  0
H  H24  1  0.87130995  0.77778668  0.42243699  1  0  0.130552  0  0.930719  0  0  0.140874  0  0.987086  0  0  0.143521  0  0.985795  0  0  0.13203  0.138911  0  0.988188  0
H  H25  1  0.62869077  0.22221396  0.92243666  1  0  0.130547  0  0.930714  0  0  0.140869  0  0.987081  0  0  0.143516  0  0.98579  0  0  0.132025  0.138907  0  0.988183  0
H  H26  1  0.86907034  0.88736523  0.59263836  1  0  0.117482  0  0.955431  0  0  0.128445  0  1.013286  0  0  0.130776  0  1.011992  0  0  0.127972  0.126712  0  1.014326  0
H  H27  1  0.63093114  0.11263587  0.09263785  1  0  0.117489  0  0.955423  0  0  0.12845  0  1.013283  0  0  0.130781  0  1.011989  0  0  0.127971  0.126716  0  1.014324  0
H  H28  1  0.13093007  0.11263486  0.40736185  1  0  0.117488  0  0.955438  0  0  0.128446  0  1.013302  0  0  0.130778  0  1.012006  0  0  0.127968  0.126712  0  1.014342  0
H  H29  1  0.36907035  0.88736674  0.90736136  1  0  0.117501  0  0.955428  0  0  0.128461  0  1.013286  0  0  0.130794  0  1.011989  0  0  0.127977  0.126728  0  1.014327  0
C  C30  1  0.73722822  0.40411721  0.36838576  1  0  0.67064  0  3.867214  0  0  0.619546  0  4.155151  0  0  0.655383  0  4.14585  0  0  0.221458  0.595187  0  4.160704  0
C  C31  1  0.76277188  0.59588224  0.86838635  1  0  0.670612  0  3.867247  0  0  0.619528  0  4.155162  0  0  0.655365  0  4.145861  0  0  0.221456  0.595169  0  4.160719  0
C  C32  1  0.26277346  0.59588286  0.63161394  1  0  0.670653  0  3.867186  0  0  0.619569  0  4.155084  0  0  0.655397  0  4.145795  0  0  0.221472  0.595212  0  4.160638  0
C  C33  1  0.23722853  0.40411785  0.13161436  1  0  0.670634  0  3.86719  0  0  0.619546  0  4.155125  0  0  0.655382  0  4.145825  0  0  0.221433  0.595186  0  4.160679  0
C  C34  1  0.76314221  0.44625116  0.29535341  1  0  -0.054942  0  3.747077  0  0  -0.031942  0  3.977127  0  0  -0.039236  0  4.000709  0  0  -0.01263  -0.027157  0  3.961215  0
C  C35  1  0.73685777  0.55374840  0.79535450  1  0  -0.054969  0  3.747131  0  0  -0.031973  0  3.977174  0  0  -0.039268  0  4.000758  0  0  -0.012659  -0.02719  0  3.961272  0
C  C36  1  0.23685947  0.55374892  0.70464630  1  0  -0.054919  0  3.747073  0  0  -0.031918  0  3.977092  0  0  -0.039209  0  4.000676  0  0  -0.012633  -0.027137  0  3.961192  0
C  C37  1  0.26314209  0.44625043  0.20464671  1  0  -0.054946  0  3.747097  0  0  -0.031966  0  3.977181  0  0  -0.039261  0  4.000765  0  0  -0.012643  -0.02718  0  3.961268  0
C  C38  1  0.91549383  0.58888421  0.27472500  1  0  -0.07245  0  3.742624  0  0  -0.093445  0  3.990883  0  0  -0.09514  0  4.012904  0  0  -0.083234  -0.09218  0  3.975913  0
C  C39  1  0.58450430  0.41111413  0.77472609  1  0  -0.072452  0  3.742686  0  0  -0.093443  0  3.990932  0  0  -0.095137  0  4.012952  0  0  -0.083232  -0.092175  0  3.975963  0
C  C40  1  0.08450785  0.41111587  0.72527420  1  0  -0.072453  0  3.742584  0  0  -0.093448  0  3.990865  0  0  -0.095139  0  4.012881  0  0  -0.083239  -0.092181  0  3.975897  0
C  C41  1  0.41549375  0.58888345  0.22527512  1  0  -0.072499  0  3.742588  0  0  -0.093494  0  3.990853  0  0  -0.095188  0  4.012872  0  0  -0.083258  -0.092227  0  3.975881  0
C  C42  1  0.94680888  0.62728755  0.20695856  1  0  -0.069298  0  3.733854  0  0  -0.093468  0  3.983251  0  0  -0.094412  0  4.003913  0  0  -0.082824  -0.092712  0  3.96919  0
C  C43  1  0.55318915  0.37271088  0.70696016  1  0  -0.069295  0  3.733873  0  0  -0.093472  0  3.983253  0  0  -0.094408  0  4.00392  0  0  -0.082817  -0.092715  0  3.969193  0
C  C44  1  0.05319044  0.37271002  0.79304114  1  0  -0.069282  0  3.733764  0  0  -0.093477  0  3.983117  0  0  -0.094406  0  4.003781  0  0  -0.08283  -0.09272  0  3.969057  0
C  C45  1  0.44680890  0.62728669  0.29304155  1  0  -0.06931  0  3.733847  0  0  -0.093476  0  3.983223  0  0  -0.094413  0  4.003889  0  0  -0.082799  -0.092719  0  3.969164  0
C  C46  1  0.82800889  0.52160996  0.15869474  1  0  -0.047741  0  3.729713  0  0  -0.027151  0  3.965079  0  0  -0.033899  0  3.986957  0  0  -0.013383  -0.022858  0  3.950582  0
C  C47  1  0.67199034  0.47838853  0.65869583  1  0  -0.047714  0  3.729761  0  0  -0.027093  0  3.965141  0  0  -0.03383  0  3.986998  0  0  -0.013349  -0.022799  0  3.950646  0
C  C48  1  0.17199206  0.47839139  0.84130447  1  0  -0.047837  0  3.729831  0  0  -0.027153  0  3.965087  0  0  -0.0339  0  3.986966  0  0  -0.013398  -0.022858  0  3.950593  0
C  C49  1  0.32800899  0.52160904  0.34130538  1  0  -0.047704  0  3.72977  0  0  -0.027113  0  3.965124  0  0  -0.03386  0  3.986999  0  0  -0.013379  -0.022823  0  3.950631  0
C  C50  1  0.67552917  0.37950257  0.17953075  1  0  -0.060516  0  3.725918  0  0  -0.085992  0  3.981018  0  0  -0.086394  0  4.000832  0  0  -0.080983  -0.085577  0  3.9676  0
C  C51  1  0.82446881  0.62049591  0.67953184  1  0  -0.060692  0  3.726069  0  0  -0.086192  0  3.981194  0  0  -0.086596  0  4.001013  0  0  -0.081031  -0.085776  0  3.967775  0
C  C52  1  0.32447050  0.62049880  0.82046795  1  0  -0.060558  0  3.72611  0  0  -0.08608  0  3.9812  0  0  -0.086482  0  4.001012  0  0  -0.081007  -0.085665  0  3.967781  0
C  C53  1  0.17552978  0.37950293  0.32046886  1  0  -0.060526  0  3.72593  0  0  -0.086005  0  3.981032  0  0  -0.086408  0  4.000846  0  0  -0.080982  -0.08559  0  3.967616  0
C  C54  1  0.64216824  0.34226786  0.24729869  1  0  -0.074436  0  3.737832  0  0  -0.096856  0  3.987373  0  0  -0.098453  0  4.008808  0  0  -0.082586  -0.095657  0  3.972761  0
C  C55  1  0.85783113  0.65773051  0.74729978  1  0  -0.074296  0  3.737814  0  0  -0.09671  0  3.987322  0  0  -0.098315  0  4.008769  0  0  -0.082536  -0.09551  0  3.972712  0
C  C56  1  0.35783198  0.65773477  0.75270001  1  0  -0.074458  0  3.737903  0  0  -0.096864  0  3.987429  0  0  -0.098457  0  4.008862  0  0  -0.082591  -0.095663  0  3.972819  0
C  C57  1  0.14216820  0.34226706  0.25270143  1  0  -0.074447  0  3.737853  0  0  -0.09687  0  3.987397  0  0  -0.098472  0  4.008838  0  0  -0.082589  -0.09567  0  3.972786  0
C  C58  1  0.85790209  0.56207528  0.08568695  1  0  0.661272  0  3.869282  0  0  0.611005  0  4.158769  0  0  0.646284  0  4.150534  0  0  0.211233  0.587006  0  4.163631  0
C  C59  1  0.64209648  0.43792205  0.58568855  1  0  0.66142  0  3.869114  0  0  0.611064  0  4.158726  0  0  0.64634  0  4.150496  0  0  0.211276  0.587065  0  4.163586  0
C  C60  1  0.14210014  0.43792606  0.91431175  1  0  0.661332  0  3.869322  0  0  0.611006  0  4.158852  0  0  0.646282  0  4.150618  0  0  0.211224  0.587006  0  4.163717  0
C  C61  1  0.35790102  0.56207427  0.41431316  1  0  0.661283  0  3.86929  0  0  0.611016  0  4.15878  0  0  0.646295  0  4.150543  0  0  0.211243  0.587019  0  4.163641  0
C  C62  1  0.98669651  0.16067640  0.56063129  1  0  0.009563  0  3.681875  0  0  -0.026093  0  3.947915  0  0  -0.025159  0  3.965181  0  0  0.024783  -0.026823  0  3.936384  0
C  C63  1  0.51330493  0.83932474  0.06063047  1  0  0.009617  0  3.681892  0  0  -0.026041  0  3.947917  0  0  -0.025107  0  3.965183  0  0  0.024815  -0.026771  0  3.936386  0
C  C64  1  0.01330390  0.83932369  0.43936892  1  0  0.009596  0  3.681841  0  0  -0.026045  0  3.947894  0  0  -0.02511  0  3.96516  0  0  0.024799  -0.026774  0  3.936361  0
C  C65  1  0.48669657  0.16067788  0.93936873  1  0  0.009619  0  3.681835  0  0  -0.026015  0  3.947877  0  0  -0.025081  0  3.965144  0  0  0.024823  -0.026744  0  3.936344  0
C  C66  1  0.86002813  0.99594676  0.56762058  1  0  0.003498  0  3.702883  0  0  -0.032031  0  3.963372  0  0  -0.029929  0  3.981359  0  0  0.022852  -0.033406  0  3.951262  0
C  C67  1  0.63997459  0.00405436  0.06762011  1  0  0.003503  0  3.70278  0  0  -0.03203  0  3.963278  0  0  -0.029928  0  3.981265  0  0  0.022844  -0.033405  0  3.951168  0
C  C68  1  0.13997228  0.00405333  0.43237963  1  0  0.003456  0  3.702862  0  0  -0.032071  0  3.963351  0  0  -0.02997  0  3.981336  0  0  0.022833  -0.033445  0  3.95124  0
C  C69  1  0.36002764  0.99594698  0.93237960  1  0  0.003445  0  3.702888  0  0  -0.032085  0  3.963371  0  0  -0.029982  0  3.981357  0  0  0.022834  -0.03346  0  3.951263  0
N  N70  1  0.90322633  0.24354738  0.52390471  1  0  -0.215543  0  3.254533  0  0  -0.156369  0  3.533076  0  0  -0.167106  0  3.54915  0  0  -0.223611  -0.148881  0  3.522175  0
N  N71  1  0.59677505  0.75645382  0.02390396  1  0  -0.215591  0  3.254653  0  0  -0.156428  0  3.533211  0  0  -0.167164  0  3.549283  0  0  -0.223621  -0.148939  0  3.522307  0
N  N72  1  0.09677408  0.75645271  0.47609549  1  0  -0.21553  0  3.254502  0  0  -0.156353  0  3.533037  0  0  -0.167089  0  3.549111  0  0  -0.223603  -0.148865  0  3.522137  0
N  N73  1  0.40322590  0.24354753  0.97609525  1  0  -0.215556  0  3.254557  0  0  -0.156384  0  3.533096  0  0  -0.167121  0  3.549168  0  0  -0.223619  -0.148895  0  3.522194  0
N  N74  1  0.73364507  0.13592752  0.50822479  1  0  -0.132475  0  3.22955  0  0  -0.077651  0  3.519729  0  0  -0.087481  0  3.535661  0  0  -0.131639  -0.071  0  3.508997  0
N  N75  1  0.76635574  0.86407244  0.00822405  1  0  -0.132365  0  3.22949  0  0  -0.077529  0  3.519657  0  0  -0.08736  0  3.535589  0  0  -0.131626  -0.070879  0  3.508926  0
N  N76  1  0.26635661  0.86407256  0.49177542  1  0  -0.132499  0  3.229546  0  0  -0.077673  0  3.519734  0  0  -0.087503  0  3.535666  0  0  -0.131662  -0.071023  0  3.509004  0
N  N77  1  0.23364466  0.13592765  0.99177515  1  0  -0.132486  0  3.229568  0  0  -0.077661  0  3.519751  0  0  -0.087491  0  3.535681  0  0  -0.131645  -0.071009  0  3.509017  0
N  N78  1  0.70474933  0.98460398  0.53465854  1  0  -0.235096  0  3.275079  0  0  -0.167502  0  3.569988  0  0  -0.180923  0  3.584362  0  0  -0.238893  -0.158284  0  3.560226  0
N  N79  1  0.79525334  0.01539718  0.03465811  1  0  -0.235147  0  3.275029  0  0  -0.16756  0  3.569946  0  0  -0.180979  0  3.584317  0  0  -0.238891  -0.158342  0  3.560185  0
N  N80  1  0.29525163  0.01539737  0.46534167  1  0  -0.235069  0  3.275043  0  0  -0.167479  0  3.569954  0  0  -0.1809  0  3.584328  0  0  -0.238867  -0.158261  0  3.560192  0
N  N81  1  0.20474888  0.98460416  0.96534109  1  0  -0.235085  0  3.275107  0  0  -0.16749  0  3.570014  0  0  -0.180909  0  3.584386  0  0  -0.238898  -0.158271  0  3.560249  0
O  O82  1  0.87959498  0.46109840  0.40480041  1  0  -0.640846  0  2.152962  0  0  -0.581783  0  2.429556  0  0  -0.608451  0  2.416668  0  0  -0.306435  -0.563145  0  2.437747  0
O  O83  1  0.62040625  0.53890352  0.90480046  1  0  -0.640834  0  2.152984  0  0  -0.581767  0  2.429564  0  0  -0.608436  0  2.416677  0  0  -0.306437  -0.563126  0  2.43775  0
O  O84  1  0.12040705  0.53890547  0.59519980  1  0  -0.640858  0  2.152985  0  0  -0.581787  0  2.429559  0  0  -0.608452  0  2.416676  0  0  -0.306446  -0.563145  0  2.437742  0
O  O85  1  0.37959342  0.46109784  0.09519975  1  0  -0.640831  0  2.152953  0  0  -0.581773  0  2.429554  0  0  -0.60844  0  2.416666  0  0  -0.306406  -0.563132  0  2.43774  0
O  O86  1  0.57301257  0.31057817  0.38837027  1  0  -0.629217  0  2.065814  0  0  -0.554906  0  2.34078  0  0  -0.583933  0  2.32436  0  0  -0.321742  -0.534659  0  2.351431  0
O  O87  1  0.92698882  0.68942125  0.88837088  1  0  -0.629213  0  2.065783  0  0  -0.554931  0  2.340775  0  0  -0.583956  0  2.324357  0  0  -0.321766  -0.534681  0  2.351425  0
O  O88  1  0.42698838  0.68942318  0.61162993  1  0  -0.629243  0  2.065757  0  0  -0.554934  0  2.340716  0  0  -0.583958  0  2.324301  0  0  -0.32176  -0.534686  0  2.351366  0
O  O89  1  0.07301231  0.31057757  0.11162933  1  0  -0.629219  0  2.065791  0  0  -0.554898  0  2.340738  0  0  -0.583925  0  2.324319  0  0  -0.321738  -0.534651  0  2.35139  0
O  O90  1  0.00142954  0.69339660  0.06892019  1  0  -0.632086  0  2.016867  0  0  -0.561189  0  2.282695  0  0  -0.590156  0  2.267458  0  0  -0.326016  -0.540967  0  2.292534  0
O  O91  1  0.49857019  0.30659915  0.56892146  1  0  -0.632123  0  2.016795  0  0  -0.561197  0  2.28267  0  0  -0.590166  0  2.267433  0  0  -0.326022  -0.540975  0  2.29251  0
O  O92  1  0.99857233  0.30660094  0.93107851  1  0  -0.63208  0  2.016822  0  0  -0.561169  0  2.282675  0  0  -0.590135  0  2.267437  0  0  -0.325972  -0.540945  0  2.292515  0
O  O93  1  0.50142986  0.69339714  0.43107976  1  0  -0.632108  0  2.016866  0  0  -0.561211  0  2.282697  0  0  -0.590178  0  2.267459  0  0  -0.326024  -0.540988  0  2.292537  0
O  O94  1  0.74192997  0.47097169  0.04327325  1  0  -0.653127  0  2.049268  0  0  -0.597493  0  2.317265  0  0  -0.622019  0  2.302074  0  0  -0.323309  -0.58032  0  2.327116  0
O  O95  1  0.75806799  0.52902444  0.54327436  1  0  -0.653222  0  2.049174  0  0  -0.597542  0  2.317196  0  0  -0.622076  0  2.302027  0  0  -0.323336  -0.580369  0  2.327048  0
O  O96  1  0.25806989  0.52902714  0.95672545  1  0  -0.653147  0  2.049277  0  0  -0.597497  0  2.317294  0  0  -0.622038  0  2.302143  0  0  -0.323326  -0.580324  0  2.327145  0
O  O97  1  0.24193079  0.47097186  0.45672685  1  0  -0.653146  0  2.049298  0  0  -0.597506  0  2.317273  0  0  -0.622033  0  2.302088  0  0  -0.323318  -0.580334  0  2.327127  0
