# generated using pymatgen
data_CuH23C18BrN3O
_symmetry_space_group_name_H-M   'P 1'
_cell_length_a   8.61016438
_cell_length_b   8.60469446
_cell_length_c   14.24272162
_cell_angle_alpha   100.58040791
_cell_angle_beta   105.25682529
_cell_angle_gamma   105.04345989
_symmetry_Int_Tables_number   1
_chemical_formula_structural   CuH23C18BrN3O
_chemical_formula_sum   'Cu2 H46 C36 Br2 N6 O2'
_cell_volume   946.51472449
_cell_formula_units_Z   2
loop_
 _symmetry_equiv_pos_site_id
 _symmetry_equiv_pos_as_xyz
  1  'x, y, z'
loop_
 _atom_site_type_symbol
 _atom_site_label
 _atom_site_symmetry_multiplicity
 _atom_site_fract_x
 _atom_site_fract_y
 _atom_site_fract_z
 _atom_site_occupancy
 _atom_site_hle17_bader_spin_density
 _atom_site_hle17_ddec_charge
 _atom_site_hle17_ddec_spin_density
 _atom_site_hle17_ddec_sum_bond_order
 _atom_site_hle17_magmom
 _atom_site_hse06_10hf_bader_charge
 _atom_site_hse06_10hf_bader_spin_density
 _atom_site_hse06_10hf_ddec_charge
 _atom_site_hse06_10hf_ddec_spin_density
 _atom_site_hse06_10hf_ddec_sum_bond_order
 _atom_site_hse06_10hf_magmom
 _atom_site_hse06_bader_spin_density
 _atom_site_hse06_ddec_charge
 _atom_site_hse06_ddec_spin_density
 _atom_site_hse06_ddec_sum_bond_order
 _atom_site_hse06_magmom
 _atom_site_pbe_bader_spin_density
 _atom_site_pbe_cm5_charge
 _atom_site_pbe_ddec_charge
 _atom_site_pbe_ddec_spin_density
 _atom_site_pbe_ddec_sum_bond_order
 _atom_site_pbe_magmom
Cu  Cu0  1  0.70914667  0.21436470  0.87537001  1  0  0.354389  0  2.105981  0  0.569352  0  0.240363  0  2.616358  0  0  0.239912  0  2.572323  0  0  0.39318  0.243965  0  2.643189  0
Cu  Cu1  1  0.33940682  0.83324975  0.12491980  1  0  0.353709  0  2.109541  0  0.568654  0  0.239667  0  2.620697  0  0  0.239109  0  2.576727  0  0  0.393176  0.24325  0  2.647398  0
H  H2  1  0.49516192  0.71947620  0.00982693  1  0  0.119757  0  0.977802  0  0.171914  0  0.124449  0  1.048269  0  0  0.130091  0  1.042177  0  0  0.115832  0.120049  0  1.053114  0
H  H3  1  0.71057365  0.48533208  0.99021433  1  0  0.119234  0  0.976929  0  0.168671  0  0.123541  0  1.048043  0  0  0.129062  0  1.042144  0  0  0.115597  0.119255  0  1.052686  0
H  H4  1  0.55720640  0.59253313  0.83418039  1  0  0.122138  0  0.987757  0  0.211155  0  0.126952  0  1.057328  0  0  0.130928  0  1.054751  0  0  0.109952  0.123999  0  1.059273  0
H  H5  1  0.75908780  0.72263723  0.16594355  1  0  0.120682  0  0.987755  0  0.201142  0  0.126437  0  1.056459  0  0  0.130386  0  1.053895  0  0  0.11007  0.123519  0  1.058386  0
H  H6  1  0.51403407  0.78036502  0.49825799  1  0  0.100079  0  0.953473  0  0.061158  0  0.112097  0  1.012778  0  0  0.11482  0  1.012398  0  0  0.099848  0.110154  0  1.013146  0
H  H7  1  0.28121698  0.01621319  0.50204255  1  0  0.098834  0  0.955178  0  0.051836  0  0.111443  0  1.013749  0  0  0.11416  0  1.013375  0  0  0.099547  0.10949  0  1.014129  0
H  H8  1  0.03878094  0.89372643  0.67404679  1  0  0.09887  0  0.942267  0  0.038086  0  0.113748  0  0.998374  0  0  0.116545  0  0.997594  0  0  0.100072  0.111723  0  0.999062  0
H  H9  1  0.21941964  0.36467542  0.32544618  1  0  0.099139  0  0.942546  0  0.083686  0  0.113457  0  0.999296  0  0  0.116371  0  0.998411  0  0  0.099603  0.111341  0  1.000094  0
H  H10  1  0.29945091  0.75853166  0.57642598  1  0  0.096979  0  0.975121  0  0.03378  0  0.119424  0  1.036454  0  0  0.121079  0  1.035557  0  0  0.087023  0.118171  0  1.03713  0
H  H11  1  0.18151983  0.72356120  0.42453016  1  0  0.095567  0  0.975782  0  0.019928  0  0.118251  0  1.036952  0  0  0.119893  0  1.036067  0  0  0.086576  0.117006  0  1.037624  0
H  H12  1  0.33716890  0.70142868  0.69192478  1  0  0.102768  0  0.953718  0  0.034465  0  0.122298  0  1.019491  0  0  0.123923  0  1.018808  0  0  0.087598  0.121126  0  1.019944  0
H  H13  1  0.00920402  0.64539498  0.30903945  1  0  0.10249  0  0.956203  0  0.04348  0  0.12194  0  1.022065  0  0  0.123616  0  1.021337  0  0  0.08771  0.120752  0  1.022537  0
H  H14  1  0.37511059  0.91493013  0.69384040  1  0  0.115119  0  0.970398  0  0.091139  0  0.129974  0  1.04343  0  0  0.132319  0  1.042071  0  0  0.082251  0.128243  0  1.04435  0
H  H15  1  0.22065633  0.68081145  0.30718917  1  0  0.115445  0  0.971155  0  0.074881  0  0.130769  0  1.043472  0  0  0.133092  0  1.042139  0  0  0.082869  0.129036  0  1.044403  0
H  H16  1  0.72008854  0.79053894  0.41257994  1  0  0.11567  0  0.970156  0  0.069505  0  0.132336  0  1.03633  0  0  0.134654  0  1.035478  0  0  0.081296  0.130613  0  1.036973  0
H  H17  1  0.37672895  0.30797608  0.58729245  1  0  0.115146  0  0.971236  0  0.077446  0  0.131785  0  1.03753  0  0  0.134113  0  1.036664  0  0  0.081115  0.130062  0  1.038174  0
H  H18  1  0.92345450  0.93981737  0.48505683  1  0  0.104597  0  0.963869  0  0.043197  0  0.124276  0  1.029536  0  0  0.125254  0  1.03046  0  0  0.088797  0.123561  0  1.028894  0
H  H19  1  0.45376831  0.43888317  0.51479484  1  0  0.105626  0  0.963669  0  0.046061  0  0.125226  0  1.029246  0  0  0.126151  0  1.030214  0  0  0.089261  0.124542  0  1.028585  0
H  H20  1  0.89152044  0.72506670  0.47171991  1  0  0.102787  0  0.94853  0  0.037281  0  0.126292  0  1.00672  0  0  0.12726  0  1.007025  0  0  0.08852  0.125589  0  1.006488  0
H  H21  1  0.25222987  0.42010465  0.52778096  1  0  0.103477  0  0.948751  0  0.033296  0  0.126998  0  1.006483  0  0  0.127942  0  1.006802  0  0  0.089187  0.126311  0  1.006247  0
H  H22  1  0.96008988  0.93706636  0.92253304  1  0  0.104695  0  0.981572  0  0.055662  0  0.121189  0  1.050901  0  0  0.122679  0  1.050538  0  0  0.086125  0.120256  0  1.050817  0
H  H23  1  0.01532601  0.03710047  0.07729909  1  0  0.105742  0  0.981126  0  0.046017  0  0.121961  0  1.050547  0  0  0.12348  0  1.050096  0  0  0.086364  0.121023  0  1.050467  0
H  H24  1  0.05484841  0.81029634  0.85988176  1  0  0.114474  0  0.958688  0  0.06075  0  0.1331  0  1.024609  0  0  0.134929  0  1.023785  0  0  0.089505  0.131844  0  1.025066  0
H  H25  1  0.95065713  0.19427632  0.13971978  1  0  0.115141  0  0.958554  0  0.050968  0  0.134097  0  1.023781  0  0  0.135892  0  1.022989  0  0  0.089608  0.132856  0  1.024226  0
H  H26  1  0.11235832  0.02494919  0.86717617  1  0  0.113646  0  0.942379  0  0.053618  0  0.135254  0  1.003549  0  0  0.137278  0  1.002449  0  0  0.091444  0.133707  0  1.004409  0
H  H27  1  0.15795921  0.24495570  0.13253645  1  0  0.114753  0  0.942191  0  0.056495  0  0.136011  0  1.003515  0  0  0.138025  0  1.00242  0  0  0.091458  0.134469  0  1.004377  0
H  H28  1  0.58551182  0.41271604  0.13562239  1  0  0.080903  0  0.965118  0  0.119207  0  0.090913  0  1.029277  0  0  0.091993  0  1.029274  0  0  0.094046  0.090041  0  1.029375  0
H  H29  1  0.27701446  0.45007885  0.86364295  1  0  0.080781  0  0.966476  0  0.105189  0  0.0907  0  1.030592  0  0  0.091761  0  1.030628  0  0  0.093861  0.089817  0  1.030675  0
H  H30  1  0.77344232  0.38807200  0.21308394  1  0  0.066461  0  0.939765  0  0.047337  0  0.079347  0  1.003508  0  0  0.079986  0  1.003215  0  0  0.104384  0.078784  0  1.003879  0
H  H31  1  0.17450960  0.56081982  0.78647882  1  0  0.066846  0  0.939458  0  0.057791  0  0.079766  0  1.003016  0  0  0.080328  0  1.002794  0  0  0.104758  0.079234  0  1.003348  0
H  H32  1  0.41060841  0.20857442  0.18516945  1  0  0.055191  0  0.932975  0  0.052976  0  0.065938  0  0.995644  0  0  0.066146  0  0.996252  0  0  0.106637  0.065564  0  0.99548  0
H  H33  1  0.02373497  0.22554786  0.81465695  1  0  0.055239  0  0.931207  0  0.055446  0  0.065843  0  0.994895  0  0  0.066116  0  0.99538  0  0  0.106425  0.065414  0  0.994815  0
H  H34  1  0.51249807  0.09162831  0.31737291  1  0  0.045519  0  0.922989  0  0.012353  0  0.060357  0  0.983164  0  0  0.061249  0  0.983146  0  0  0.091741  0.059502  0  0.983512  0
H  H35  1  0.77456568  0.19502940  0.68262902  1  0  0.046292  0  0.921356  0  0.035414  0  0.06056  0  0.982156  0  0  0.061446  0  0.98211  0  0  0.091969  0.059711  0  0.982492  0
H  H36  1  0.81983100  0.12319744  0.39419313  1  0  0.095427  0  0.97215  0  0.005869  0  0.12126  0  1.028365  0  0  0.122301  0  1.02906  0  0  0.086191  0.120456  0  1.027924  0
H  H37  1  0.72867295  0.42550712  0.60566978  1  0  0.094739  0  0.972804  0  0.016066  0  0.121032  0  1.028262  0  0  0.122029  0  1.029004  0  0  0.08645  0.120248  0  1.027806  0
H  H38  1  0.73857606  0.00259377  0.26682026  1  0  0.098322  0  0.976843  0  0.040824  0  0.112774  0  1.049874  0  0  0.114012  0  1.05072  0  0  0.076162  0.111786  0  1.0494  0
H  H39  1  0.73557340  0.47146918  0.73309437  1  0  0.097552  0  0.975754  0  0.029208  0  0.11203  0  1.049173  0  0  0.113274  0  1.050011  0  0  0.076077  0.111028  0  1.048724  0
H  H40  1  0.87122803  0.21545513  0.30093891  1  0  0.083802  0  0.980478  0  -0.004866  0  0.105097  0  1.045847  0  0  0.105333  0  1.04788  0  0  0.078258  0.104857  0  1.044498  0
H  H41  1  0.91394158  0.57038826  0.69881071  1  0  0.083293  0  0.980595  0  0.004921  0  0.104198  0  1.046499  0  0  0.104419  0  1.048537  0  0  0.078078  0.103977  0  1.045129  0
H  H42  1  0.68730514  0.34792548  0.45285541  1  0  0.094982  0  0.973237  0  0.054777  0  0.119635  0  1.029516  0  0  0.120687  0  1.030068  0  0  0.086735  0.118798  0  1.0292  0
H  H43  1  0.89518857  0.23455896  0.54699288  1  0  0.096646  0  0.971877  0  0.029472  0  0.120933  0  1.028432  0  0  0.122018  0  1.028982  0  0  0.087241  0.120071  0  1.028121  0
H  H44  1  0.76071144  0.44836893  0.36771786  1  0  0.084836  0  0.967986  0  0.016847  0  0.10581  0  1.032746  0  0  0.106829  0  1.033033  0  0  0.080851  0.105016  0  1.032594  0
H  H45  1  0.08042295  0.39335678  0.63204115  1  0  0.08496  0  0.968551  0  0.006591  0  0.105935  0  1.033071  0  0  0.106983  0  1.033342  0  0  0.080727  0.105131  0  1.032923  0
H  H46  1  0.54403225  0.40271635  0.35993882  1  0  0.099534  0  0.968084  0  0.052772  0  0.117458  0  1.036372  0  0  0.118394  0  1.037895  0  0  0.083139  0.116696  0  1.035399  0
H  H47  1  0.04296160  0.18442496  0.63999478  1  0  0.099351  0  0.968346  0  0.037588  0  0.117161  0  1.036556  0  0  0.118096  0  1.038082  0  0  0.082986  0.11641  0  1.035573  0
C  C48  1  0.65735402  0.00535938  0.90202984  1  0  -0.055159  0  3.448779  0  0.788407  0  -0.10239  0  3.82367  0  0  -0.079448  0  3.813499  0  0  0.028708  -0.119841  0  3.833035  0
C  C49  1  0.10393076  0.75503275  0.09816937  1  0  -0.054236  0  3.448082  0  0.78027  0  -0.101031  0  3.823118  0  0  -0.07806  0  3.812867  0  0  0.029833  -0.118227  0  3.832052  0
C  C50  1  0.54368593  0.78079518  0.95843817  1  0  -0.026483  0  3.650118  0  0.374508  0  -0.067947  0  3.911644  0  0  -0.064842  0  3.927127  0  0  0.002414  -0.069846  0  3.901404  0
C  C51  1  0.82314904  0.58507788  0.04169005  1  0  -0.024777  0  3.647023  0  0.310381  0  -0.066175  0  3.908983  0  0  -0.063033  0  3.92447  0  0  0.00316  -0.068141  0  3.898736  0
C  C52  1  0.57633478  0.72063479  0.87342953  1  0  -0.033635  0  3.649329  0  0.260629  0  -0.073427  0  3.904944  0  0  -0.071769  0  3.922555  0  0  0.006377  -0.074342  0  3.892961  0
C  C53  1  0.84793327  0.70258160  0.12675069  1  0  -0.034451  0  3.649006  0  0.307355  0  -0.074522  0  3.904352  0  0  -0.072847  0  3.922004  0  0  0.005538  -0.075487  0  3.892419  0
C  C54  1  0.69371305  0.85026274  0.75133384  1  0  0.031686  0  3.705421  0  0.224139  0  0.015377  0  3.9497  0  0  0.015881  0  3.971774  0  0  0.077127  0.01504  0  3.934818  0
C  C55  1  0.09924991  0.94213963  0.24880761  1  0  0.030537  0  3.703061  0  0.259691  0  0.0156  0  3.94803  0  0  0.016202  0  3.970024  0  0  0.077108  0.01517  0  3.933235  0
C  C56  1  0.56503013  0.81631994  0.65859318  1  0  0.102392  0  3.75927  0  0.031163  0  0.121758  0  4.005242  0  0  0.124031  0  4.028433  0  0  -0.004357  0.120212  0  3.989525  0
C  C57  1  0.15761556  0.90647795  0.34174844  1  0  0.102557  0  3.760333  0  -0.009814  0  0.120553  0  4.008122  0  0  0.122766  0  4.031359  0  0  -0.005215  0.119049  0  3.992361  0
C  C58  1  0.38448293  0.79618138  0.65479936  1  0  -0.332012  0  3.732336  0  -0.097414  0  -0.412838  0  3.97092  0  0  -0.415291  0  3.979094  0  0  -0.242358  -0.410731  0  3.965176  0
C  C59  1  0.14101522  0.72974722  0.34602142  1  0  -0.33053  0  3.735553  0  -0.078873  0  -0.411395  0  3.974144  0  0  -0.413899  0  3.982409  0  0  -0.241912  -0.409274  0  3.968337  0
C  C60  1  0.61182086  0.80742578  0.57125056  1  0  -0.196734  0  3.705688  0  -0.059588  0  -0.221341  0  3.9448  0  0  -0.227406  0  3.966344  0  0  -0.097647  -0.217362  0  3.930341  0
C  C61  1  0.23569795  0.04084561  0.42891935  1  0  -0.194401  0  3.707798  0  0.029108  0  -0.219165  0  3.946755  0  0  -0.225207  0  3.968341  0  0  -0.096701  -0.215188  0  3.932248  0
C  C62  1  0.78122171  0.83320510  0.57509274  1  0  0.169854  0  3.772431  0  -0.031515  0  0.194768  0  4.011087  0  0  0.198346  0  4.034611  0  0  -0.003927  0.192414  0  3.995069  0
C  C63  1  0.25762529  0.20638000  0.42479663  1  0  0.166501  0  3.773566  0  0.021177  0  0.191807  0  4.0116  0  0  0.195365  0  4.035144  0  0  -0.004911  0.189466  0  3.995547  0
C  C64  1  0.83028271  0.82170012  0.48089425  1  0  -0.340349  0  3.71514  0  -0.080771  0  -0.416846  0  3.944836  0  0  -0.420032  0  3.954032  0  0  -0.241898  -0.41436  0  3.938398  0
C  C65  1  0.33984110  0.34979682  0.51888530  1  0  -0.340451  0  3.716705  0  -0.080308  0  -0.417082  0  3.946054  0  0  -0.420199  0  3.955259  0  0  -0.242262  -0.41464  0  3.939603  0
C  C66  1  0.90552059  0.87065028  0.66938122  1  0  -0.194947  0  3.71265  0  0.034561  0  -0.222583  0  3.959123  0  0  -0.228381  0  3.980061  0  0  -0.097359  -0.218803  0  3.945129  0
C  C67  1  0.20111738  0.23610103  0.33034470  1  0  -0.192657  0  3.71258  0  -0.107897  0  -0.219305  0  3.958585  0  0  -0.22518  0  3.979587  0  0  -0.095828  -0.215472  0  3.944548  0
C  C68  1  0.86538727  0.87894961  0.75885224  1  0  0.094309  0  3.77296  0  0.016641  0  0.112809  0  4.024566  0  0  0.114966  0  4.047384  0  0  -0.005705  0.111392  0  4.00904  0
C  C69  1  0.12034504  0.10629550  0.24100567  1  0  0.09521  0  3.77001  0  -0.002024  0  0.111797  0  4.023644  0  0  0.113898  0  4.046503  0  0  -0.005937  0.110411  0  4.008093  0
C  C70  1  0.00417084  0.91486948  0.85748781  1  0  -0.330597  0  3.717195  0  -0.103927  0  -0.414923  0  3.961381  0  0  -0.416856  0  3.968685  0  0  -0.24363  -0.413132  0  3.955929  0
C  C71  1  0.05776668  0.14625179  0.14224137  1  0  -0.334634  0  3.717968  0  -0.092056  0  -0.418067  0  3.962473  0  0  -0.419982  0  3.969848  0  0  -0.244288  -0.416282  0  3.956963  0
C  C72  1  0.58373451  0.06619928  0.05589092  1  0  0.566442  0  3.761154  0  1.791599  0  0.509207  0  4.037436  0  0  0.539513  0  4.038774  0  0  0.34028  0.488681  0  4.036492  0
C  C73  1  0.01086492  0.52782833  0.94411628  1  0  0.569366  0  3.757696  0  1.769222  0  0.510488  0  4.035696  0  0  0.540715  0  4.037063  0  0  0.341507  0.489967  0  4.034809  0
C  C74  1  0.64605955  0.32185208  0.15789054  1  0  0.043734  0  3.499253  0  0.343857  0  -0.015571  0  3.751488  0  0  -0.009773  0  3.757749  0  0  -0.060835  -0.019411  0  3.747483  0
C  C75  1  0.16390911  0.48842445  0.84169482  1  0  0.041885  0  3.50032  0  0.338135  0  -0.016451  0  3.752482  0  0  -0.010638  0  3.758751  0  0  -0.060706  -0.020259  0  3.748379  0
C  C76  1  0.53386259  0.18876929  0.19260972  1  0  0.10076  0  3.552769  0  0.315663  0  0.087489  0  3.784933  0  0  0.089926  0  3.799026  0  0  0.004328  0.08594  0  3.775651  0
C  C77  1  0.99635130  0.34138671  0.80723455  1  0  0.103487  0  3.548594  0  0.303819  0  0.08815  0  3.784238  0  0  0.090642  0  3.798092  0  0  0.004182  0.086586  0  3.775044  0
C  C78  1  0.61175581  0.18381886  0.30197931  1  0  0.061423  0  3.652906  0  0.048959  0  0.066579  0  3.889792  0  0  0.066198  0  3.907389  0  0  -0.09301  0.06679  0  3.877891  0
C  C79  1  0.88188842  0.30982275  0.69792936  1  0  0.061069  0  3.651695  0  0.038084  0  0.066669  0  3.889606  0  0  0.066371  0  3.906963  0  0  -0.093177  0.066855  0  3.87781  0
C  C80  1  0.76857808  0.12794195  0.31605734  1  0  -0.317224  0  3.697987  0  -0.034751  0  -0.396337  0  3.936728  0  0  -0.399992  0  3.949753  0  0  -0.253461  -0.39353  0  3.927806  0
C  C81  1  0.81161732  0.45244712  0.68378803  1  0  -0.315253  0  3.695317  0  -0.044795  0  -0.394195  0  3.934363  0  0  -0.397844  0  3.947392  0  0  -0.253666  -0.391395  0  3.925433  0
C  C82  1  0.65219083  0.35507080  0.37433268  1  0  -0.312921  0  3.688384  0  -0.123174  0  -0.390972  0  3.927396  0  0  -0.394376  0  3.939705  0  0  -0.245226  -0.388278  0  3.918911  0
C  C83  1  0.98074844  0.27808759  0.62551866  1  0  -0.315485  0  3.689442  0  -0.065118  0  -0.39284  0  3.928233  0  0  -0.396349  0  3.940487  0  0  -0.24534  -0.390097  0  3.919774  0
Br  Br84  1  0.44621215  0.26254466  0.79219629  1  0  -0.608833  0  0.950241  0  -0.669924  0  -0.5416  0  1.240918  0  0  -0.559813  0  1.215681  0  0  -0.33271  -0.52828  0  1.257091  0
Br  Br85  1  0.47008556  0.65327898  0.20828377  1  0  -0.60849  0  0.950011  0  -0.672077  0  -0.541724  0  1.241676  0  0  -0.55994  0  1.216404  0  0  -0.332891  -0.52841  0  1.257866  0
N  N86  1  0.59403463  0.95486420  0.97580140  1  0  -0.138177  0  3.594181  0  -1.34291  0  -0.045507  0  3.813326  0  0  -0.066145  0  3.834064  0  0  -0.223955  -0.031596  0  3.798792  0
N  N87  1  0.97976408  0.61810436  0.02433463  1  0  -0.140465  0  3.592606  0  -1.324923  0  -0.047104  0  3.811902  0  0  -0.067636  0  3.832496  0  0  -0.225397  -0.033295  0  3.797525  0
N  N88  1  0.64567738  0.85825751  0.84106623  1  0  -0.068794  0  3.648317  0  -1.310833  0  0.029067  0  3.853564  0  0  0.013393  0  3.878709  0  0  -0.233233  0.039515  0  3.836281  0
N  N89  1  0.01782257  0.80421240  0.15919074  1  0  -0.067283  0  3.646013  0  -1.318687  0  0.029594  0  3.852126  0  0  0.013886  0  3.877283  0  0  -0.233112  0.040034  0  3.834865  0
N  N90  1  0.50277935  0.02934177  0.11750880  1  0  -0.462899  0  3.221625  0  -1.225986  0  -0.403239  0  3.544998  0  0  -0.416862  0  3.542176  0  0  -0.408578  -0.395118  0  3.546749  0
N  N91  1  0.91233951  0.38531189  0.88252620  1  0  -0.466678  0  3.220098  0  -1.182251  0  -0.405556  0  3.544122  0  0  -0.419198  0  3.541324  0  0  -0.409803  -0.397434  0  3.545869  0
O  O92  1  0.66971276  0.22774157  0.06884659  1  0  -0.322728  0  2.276706  0  -1.076464  0  -0.251644  0  2.519371  0  0  -0.269544  0  2.515961  0  0  -0.161442  -0.239677  0  2.521575  0
O  O93  1  0.15919706  0.60090845  0.93094850  1  0  -0.321558  0  2.276881  0  -1.080695  0  -0.250018  0  2.519572  0  0  -0.26792  0  2.516234  0  0  -0.160385  -0.238072  0  2.521747  0
