# generated using pymatgen
data_CoH26C28N4O5
_symmetry_space_group_name_H-M   'P 1'
_cell_length_a   15.84857943
_cell_length_b   15.85442548
_cell_length_c   16.31322242
_cell_angle_alpha   109.25840844
_cell_angle_beta   115.99352353
_cell_angle_gamma   102.11694152
_symmetry_Int_Tables_number   1
_chemical_formula_structural   CoH26C28N4O5
_chemical_formula_sum   'Co4 H104 C112 N16 O20'
_cell_volume   3160.20037522
_cell_formula_units_Z   4
loop_
 _symmetry_equiv_pos_site_id
 _symmetry_equiv_pos_as_xyz
  1  'x, y, z'
loop_
 _atom_site_type_symbol
 _atom_site_label
 _atom_site_symmetry_multiplicity
 _atom_site_fract_x
 _atom_site_fract_y
 _atom_site_fract_z
 _atom_site_occupancy
 _atom_site_pbe_bader_charge
 _atom_site_pbe_bader_spin_density
 _atom_site_pbe_cm5_charge
 _atom_site_pbe_ddec_charge
 _atom_site_pbe_ddec_spin_density
 _atom_site_pbe_ddec_sum_bond_order
 _atom_site_pbe_magmom
Co  Co0  1  0.21520489  0.08782930  0.88144439  1  1.193911  2.551862  0.667914  0.824036  2.775268  2.533152  2.503
Co  Co1  1  0.70646864  0.33386688  0.61857937  1  1.196316  2.552245  0.6675  0.824337  2.775349  2.528864  2.504
Co  Co2  1  0.78479637  0.91217536  0.11855990  1  1.193833  2.551866  0.667923  0.82404  2.775275  2.533179  2.503
Co  Co3  1  0.29353528  0.66613555  0.38142762  1  1.196414  2.552229  0.667525  0.824405  2.775326  2.528892  2.504
H  H4  1  0.01052235  0.97417010  0.30892611  1  0.621009  -0.000105  0.306838  0.368246  -0.000212  0.950264  0.0
H  H5  1  0.16577349  0.70192332  0.19139940  1  0.652136  -0.000101  0.306728  0.365204  -0.000217  0.954916  0.0
H  H6  1  0.98947901  0.02582914  0.69107472  1  0.621071  -0.000105  0.306836  0.368258  -0.000212  0.950261  0.0
H  H7  1  0.83423016  0.29808561  0.80860938  1  0.652223  -0.000101  0.306759  0.365275  -0.000217  0.954946  0.0
H  H8  1  0.21873326  0.84333853  0.58838882  1  0.080665  0.000633  0.099363  0.109616  0.000272  1.026922  0.0
H  H9  1  0.75526969  0.63052243  0.91197606  1  0.111114  0.00061  0.099213  0.108941  0.000272  1.027283  0.0
H  H10  1  0.78127049  0.15666856  0.41161789  1  0.080333  0.000633  0.099363  0.109597  0.000272  1.026941  0.0
H  H11  1  0.24473713  0.36948629  0.08803368  1  0.111069  0.00061  0.099254  0.108984  0.000272  1.027334  0.0
H  H12  1  0.09837199  0.87708862  0.31328111  1  0.062385  0.000291  0.102104  0.116284  0.000134  1.069432  0.0
H  H13  1  0.06437338  0.78547185  0.18703830  1  0.095376  0.000285  0.101847  0.115947  0.000134  1.068883  0.0
H  H14  1  0.90162955  0.12291163  0.68671768  1  0.062428  0.000291  0.102124  0.116275  0.000134  1.069438  0.0
H  H15  1  0.93562945  0.21453863  0.81296889  1  0.095533  0.000286  0.101817  0.115942  0.000134  1.068919  0.0
H  H16  1  0.10686439  0.06749478  0.57786826  1  0.117274  0.000423  0.111356  0.136616  0.000163  0.989466  0.0
H  H17  1  0.99013310  0.52944384  0.92240194  1  0.10146  0.000433  0.111119  0.136359  0.000164  0.988884  0.0
H  H18  1  0.89313269  0.93250662  0.42212974  1  0.117126  0.000423  0.111364  0.136642  0.000163  0.989445  0.0
H  H19  1  0.00987015  0.47056691  0.07760419  1  0.101217  0.000433  0.111119  0.136393  0.000164  0.988912  0.0
H  H20  1  0.21004673  0.18354293  0.15310924  1  0.068264  -0.000235  0.09929  0.145201  -0.000241  1.023601  0.0
H  H21  1  0.53012307  0.05705528  0.34677579  1  0.084282  -0.000234  0.099052  0.14429  -0.00024  1.024213  0.0
H  H22  1  0.78994675  0.81645231  0.84688678  1  0.068219  -0.000235  0.099271  0.145161  -0.000241  1.023514  0.0
H  H23  1  0.46987762  0.94294910  0.65322721  1  0.084314  -0.000234  0.098995  0.144212  -0.00024  1.024269  0.0
H  H24  1  0.27319038  0.19312607  0.08758721  1  0.089744  0.001033  0.105421  0.161463  0.000434  1.018143  0.0
H  H25  1  0.60511199  0.18575154  0.41234508  1  0.110059  0.001004  0.105217  0.160427  0.000436  1.018957  0.0
H  H26  1  0.72680314  0.80687460  0.91241462  1  0.089957  0.001032  0.105429  0.161424  0.000433  1.018102  0.0
H  H27  1  0.39488881  0.81425501  0.58766166  1  0.110137  0.001004  0.105172  0.160367  0.000436  1.01897  0.0
H  H28  1  0.30938207  0.14191235  0.17355179  1  0.05492  -0.000464  0.09938  0.147546  -0.000445  0.990706  0.0
H  H29  1  0.46780153  0.13580330  0.32634344  1  0.054409  -0.000462  0.099351  0.14691  -0.000442  0.991136  0.0
H  H30  1  0.69061506  0.85808730  0.82644924  1  0.054883  -0.000464  0.099396  0.147573  -0.000445  0.990652  0.0
H  H31  1  0.53219932  0.86420109  0.67366191  1  0.054508  -0.000462  0.099354  0.14689  -0.000442  0.991111  0.0
H  H32  1  0.03277002  0.86808690  0.71439708  1  0.111163  -5e-06  0.110671  0.133474  -8.1e-05  1.004556  0.0
H  H33  1  0.65362100  0.31857993  0.78548165  1  0.112819  -7e-06  0.110719  0.133519  -8.2e-05  1.005504  0.0
H  H34  1  0.96723960  0.13190800  0.28560473  1  0.111254  -4e-06  0.110719  0.133451  -8.1e-05  1.004591  0.0
H  H35  1  0.34636665  0.68141857  0.21451953  1  0.112695  -7e-06  0.110771  0.133678  -8.2e-05  1.005323  0.0
H  H36  1  0.91068741  0.69968415  0.65272445  1  0.054108  -2e-06  0.092045  0.087027  -2.5e-05  1.024589  0.0
H  H37  1  0.54703050  0.25819594  0.84727288  1  0.053067  -2e-06  0.092313  0.087351  -2.5e-05  1.024995  0.0
H  H38  1  0.08932129  0.30031014  0.34727204  1  0.054301  -2e-06  0.092063  0.087004  -2.5e-05  1.024501  0.0
H  H39  1  0.45296060  0.74179586  0.15272747  1  0.053143  -2e-06  0.092317  0.087368  -2.5e-05  1.024903  0.0
H  H40  1  0.88551646  0.65503103  0.77517465  1  0.071258  4.3e-05  0.097589  0.097856  -3.9e-05  1.026708  0.0
H  H41  1  0.38012919  0.11018325  0.72501683  1  0.060959  4.4e-05  0.097549  0.097165  -3.8e-05  1.027041  0.0
H  H42  1  0.11448960  0.34496482  0.22482286  1  0.071314  4.3e-05  0.097579  0.097832  -3.9e-05  1.02672  0.0
H  H43  1  0.61986596  0.88980522  0.27497587  1  0.061702  4.4e-05  0.097562  0.097181  -3.8e-05  1.02701  0.0
H  H44  1  0.97070328  0.77881159  0.95938504  1  0.109399  0.000343  0.099396  0.108385  0.000103  1.070171  0.0
H  H45  1  0.31974556  0.01091920  0.54094406  1  0.132489  0.000335  0.099604  0.10906  0.000102  1.069244  0.0
H  H46  1  0.02929961  0.22118804  0.04061290  1  0.109245  0.000343  0.099426  0.108403  0.000103  1.070349  0.0
H  H47  1  0.68025257  0.98908199  0.45905279  1  0.132272  0.000335  0.099598  0.109095  0.000102  1.06909  0.0
H  H48  1  0.05196211  0.94341531  0.11843710  1  0.106609  0.00021  0.113048  0.105455  -3e-06  0.993037  0.0
H  H49  1  0.32447059  0.93353653  0.38167035  1  0.09653  0.000215  0.113062  0.105789  -1e-06  0.992796  0.0
H  H50  1  0.94803491  0.05658216  0.88156019  1  0.106568  0.000211  0.113033  0.10543  -3e-06  0.993074  0.0
H  H51  1  0.67553076  0.06646588  0.61832746  1  0.096447  0.000215  0.113057  0.105799  -0.0  0.992816  0.0
H  H52  1  0.14351522  0.06512868  0.18105891  1  0.078555  3e-05  0.112377  0.090978  -7e-06  0.983898  0.0
H  H53  1  0.38341716  0.96216317  0.31884795  1  0.054769  3e-05  0.112442  0.09073  -7e-06  0.984739  0.0
H  H54  1  0.85647570  0.93486737  0.81893675  1  0.078723  3e-05  0.112377  0.090985  -7e-06  0.983874  0.0
H  H55  1  0.61658748  0.03784121  0.68115456  1  0.054891  3e-05  0.112425  0.090748  -7e-06  0.98472  0.0
H  H56  1  0.18063400  0.88125947  0.16579822  1  0.035322  5e-06  0.096567  0.101398  -4e-06  0.991121  0.0
H  H57  1  0.21473525  0.01447534  0.33397090  1  0.036056  6e-06  0.096451  0.101947  -4e-06  0.991289  0.0
H  H58  1  0.81936663  0.11874266  0.83419594  1  0.035217  5e-06  0.096562  0.101361  -4e-06  0.991152  0.0
H  H59  1  0.78526314  0.98552253  0.66602114  1  0.03629  6e-06  0.096416  0.101884  -4e-06  0.991281  0.0
H  H60  1  0.26818569  0.97352646  0.16900881  1  0.011929  1.2e-05  0.089429  0.077534  -1.7e-05  1.01125  0.0
H  H61  1  0.30422998  0.09939698  0.33172319  1  0.014763  1.3e-05  0.089699  0.078504  -1.6e-05  1.011073  0.0
H  H62  1  0.73181026  0.02647440  0.83098661  1  0.011948  1.2e-05  0.089449  0.077552  -1.7e-05  1.011215  0.0
H  H63  1  0.69576853  0.90060306  0.66827258  1  0.014817  1.3e-05  0.089674  0.078444  -1.6e-05  1.011173  0.0
H  H64  1  0.74726015  0.40248871  0.29672301  1  0.036925  0.000111  0.100269  0.097877  4e-05  0.966117  0.0
H  H65  1  0.60595662  0.44998873  0.20302771  1  0.022351  0.000111  0.100399  0.097973  4e-05  0.966879  0.0
H  H66  1  0.25273882  0.59751552  0.70327240  1  0.037018  0.000111  0.100258  0.097835  4e-05  0.966181  0.0
H  H67  1  0.39404163  0.55001314  0.79696777  1  0.022108  0.000111  0.100411  0.097938  4e-05  0.966938  0.0
H  H68  1  0.65777888  0.31233769  0.29456719  1  0.02116  1e-06  0.098136  0.096061  -2.6e-05  0.985469  0.0
H  H69  1  0.51796405  0.36267039  0.20520021  1  0.045081  1e-06  0.09835  0.096032  -2.6e-05  0.987191  0.0
H  H70  1  0.34222112  0.68766534  0.70543148  1  0.021048  1e-06  0.098158  0.096114  -2.6e-05  0.985484  0.0
H  H71  1  0.48203336  0.63733052  0.79479299  1  0.045054  1e-06  0.098341  0.096091  -2.6e-05  0.987062  0.0
H  H72  1  0.64088502  0.31571531  0.10075250  1  0.050833  6.9e-05  0.115649  0.091  8e-06  0.974858  0.0
H  H73  1  0.71508206  0.53992519  0.39898090  1  0.049483  7e-05  0.11539  0.090229  9e-06  0.975748  0.0
H  H74  1  0.35910886  0.68428020  0.89924245  1  0.050793  6.9e-05  0.115659  0.091015  8e-06  0.974178  0.0
H  H75  1  0.28491667  0.46007411  0.60101586  1  0.049516  7e-05  0.115363  0.09019  9e-06  0.975773  0.0
H  H76  1  0.69153771  0.24441158  0.15516542  1  0.06971  0.000284  0.121932  0.105005  0.000116  0.958057  0.0
H  H77  1  0.58917280  0.53581889  0.34432695  1  0.063533  0.000284  0.122007  0.105129  0.000116  0.956685  0.0
H  H78  1  0.30846068  0.75559137  0.84483311  1  0.069654  0.000284  0.121961  0.105092  0.000116  0.957462  0.0
H  H79  1  0.41082464  0.46417568  0.65567229  1  0.063635  0.000284  0.122025  0.105111  0.000116  0.956624  0.0
H  H80  1  0.65561566  0.12261206  0.21033793  1  0.117777  0.000496  0.107956  0.128555  0.000178  1.01684  0.0
H  H81  1  0.41234015  0.44508392  0.28951941  1  0.099163  0.0005  0.10779  0.128421  0.000178  1.016874  0.0
H  H82  1  0.34438367  0.87739043  0.78966522  1  0.117795  0.000496  0.107927  0.128469  0.000178  1.016929  0.0
H  H83  1  0.58765656  0.55490787  0.71047550  1  0.098714  0.0005  0.10777  0.128413  0.000178  1.016859  0.0
H  H84  1  0.56624432  0.96818070  0.19869435  1  0.036923  -3e-06  0.096657  0.09336  -5.3e-05  1.038434  0.0
H  H85  1  0.26962884  0.36774692  0.30149281  1  0.079729  -3e-06  0.096808  0.093388  -5.3e-05  1.038418  0.0
H  H86  1  0.43375944  0.03182322  0.80131539  1  0.036994  -3e-06  0.096701  0.093404  -5.3e-05  1.038508  0.0
H  H87  1  0.73036999  0.63225204  0.69850699  1  0.079714  -3e-06  0.096802  0.093382  -5.3e-05  1.038419  0.0
H  H88  1  0.37668246  0.87315328  0.07990582  1  0.052466  -1.7e-05  0.096922  0.094948  -2.4e-05  1.009599  0.0
H  H89  1  0.29349781  0.29736637  0.42049962  1  0.050031  -1.6e-05  0.09672  0.094584  -2.3e-05  1.010043  0.0
H  H90  1  0.62331965  0.12684198  0.92010099  1  0.052419  -1.7e-05  0.096893  0.094952  -2.4e-05  1.009725  0.0
H  H91  1  0.70650363  0.70263212  0.57949985  1  0.050006  -1.7e-05  0.096707  0.094608  -2.4e-05  1.010024  0.0
H  H92  1  0.26869173  0.93050090  0.96414803  1  0.134244  0.00021  0.107877  0.121682  6e-06  1.014454  0.0
H  H93  1  0.46671376  0.30518148  0.53624931  1  0.081499  0.000218  0.108001  0.121442  8e-06  1.015434  0.0
H  H94  1  0.73131229  0.06949211  0.03584971  1  0.134229  0.00021  0.107886  0.121686  6e-06  1.014457  0.0
H  H95  1  0.53328761  0.69481268  0.46374504  1  0.081561  0.000218  0.108007  0.121543  8e-06  1.015344  0.0
H  H96  1  0.36724940  0.22920034  0.89175159  1  0.115527  0.000688  0.115282  0.174658  0.000173  0.980545  0.0
H  H97  1  0.83776776  0.47540359  0.60802892  1  0.121521  0.000641  0.115181  0.174654  0.00017  0.980708  0.0
H  H98  1  0.63275378  0.77079531  0.10824526  1  0.115326  0.000687  0.115273  0.174632  0.000172  0.980668  0.0
H  H99  1  0.16222955  0.52459707  0.39197005  1  0.121378  0.000641  0.11519  0.174653  0.00017  0.980711  0.0
H  H100  1  0.50395057  0.30044157  0.97371796  1  0.027431  0.000532  0.099518  0.137201  0.000181  1.012848  0.0
H  H101  1  0.82699484  0.53010918  0.52610372  1  0.046603  0.00052  0.09966  0.137389  0.000179  1.012709  0.0
H  H102  1  0.49605528  0.69955185  0.02628159  1  0.02753  0.000531  0.099474  0.137167  0.000181  1.012987  0.0
H  H103  1  0.17300255  0.46989073  0.47389389  1  0.046601  0.00052  0.09965  0.137396  0.000179  1.012711  0.0
H  H104  1  0.42269733  0.32527879  0.01818015  1  0.088724  1.9e-05  0.109442  0.163188  -0.00011  0.975138  0.0
H  H105  1  0.80729791  0.40438315  0.48156642  1  0.086208  1.9e-05  0.109685  0.163658  -0.00011  0.975488  0.0
H  H106  1  0.57730838  0.67471712  0.98181775  1  0.088832  1.9e-05  0.109413  0.163117  -0.00011  0.975246  0.0
H  H107  1  0.19270481  0.59561799  0.51843426  1  0.086212  1.9e-05  0.109688  0.163678  -0.00011  0.975508  0.0
C  C108  1  0.16532410  0.95825559  0.59324582  1  -0.011289  0.002145  -0.020759  -0.01154  0.00106  4.00716  0.001
C  C109  1  0.86540251  0.57239912  0.90698201  1  -0.049672  0.002176  -0.020435  -0.012053  0.001065  4.006604  0.001
C  C110  1  0.83467120  0.04174723  0.40675479  1  -0.011034  0.002145  -0.020745  -0.0115  0.00106  4.007047  0.001
C  C111  1  0.13459958  0.42760649  0.09302456  1  -0.049484  0.002177  -0.020419  -0.012115  0.001065  4.006723  0.001
C  C112  1  0.18482746  0.88032291  0.54609320  1  -0.014935  0.003171  -0.096518  -0.149385  0.001711  3.969641  0.002
C  C113  1  0.83463306  0.63903907  0.95419076  1  -0.022778  0.003168  -0.096156  -0.148451  0.001704  3.970155  0.002
C  C114  1  0.81517567  0.11968358  0.45391291  1  -0.014583  0.003171  -0.096522  -0.14935  0.001711  3.96967  0.002
C  C115  1  0.16537425  0.36097277  0.04581793  1  -0.023598  0.003168  -0.096204  -0.148457  0.001705  3.970449  0.002
C  C116  1  0.16290680  0.85272464  0.44578258  1  -0.048753  0.004246  -0.028112  -0.0259  0.002221  4.045347  0.003
C  C117  1  0.90741000  0.71746765  0.05450895  1  -0.034957  0.004258  -0.027689  -0.024263  0.002229  4.044667  0.003
C  C118  1  0.83709479  0.14728103  0.55422201  1  -0.048884  0.004246  -0.028126  -0.025978  0.002222  4.045589  0.003
C  C119  1  0.09259548  0.28254168  0.94550164  1  -0.035276  0.004259  -0.0277  -0.024289  0.002229  4.044611  0.003
C  C120  1  0.11715015  0.89964099  0.39185294  1  0.034153  0.001243  -0.104334  -0.243694  0.00055  3.967791  0.001
C  C121  1  0.00828705  0.72563862  0.10846907  1  -0.078817  0.001264  -0.10446  -0.243588  0.00054  3.968927  0.001
C  C122  1  0.88285006  0.10036237  0.60814740  1  0.035343  0.001243  -0.104262  -0.243508  0.00055  3.967916  0.001
C  C123  1  0.99171558  0.27436834  0.89153948  1  -0.078297  0.001264  -0.104414  -0.243524  0.00054  3.968633  0.001
C  C124  1  0.09465329  0.97567723  0.43760756  1  0.430455  0.000412  0.081704  0.323388  0.000111  4.089427  0.0
C  C125  1  0.03859677  0.65744479  0.06270729  1  0.464919  0.000411  0.081947  0.322864  0.000112  4.091746  0.0
C  C126  1  0.90534577  0.02432667  0.56239089  1  0.429236  0.000412  0.081592  0.323238  0.000111  4.089324  0.0
C  C127  1  0.96140550  0.34256541  0.93729861  1  0.46438  0.000411  0.082023  0.322832  0.000113  4.091546  0.0
C  C128  1  0.12218026  0.00734924  0.54039511  1  0.022347  0.002438  -0.088374  -0.200492  0.001329  3.888284  0.001
C  C129  1  0.96742710  0.58218197  0.95989040  1  0.055334  0.002421  -0.08824  -0.199949  0.00132  3.888138  0.001
C  C130  1  0.87781578  0.99265128  0.45960334  1  0.022366  0.002439  -0.088351  -0.200506  0.001329  3.888211  0.001
C  C131  1  0.03257431  0.41782628  0.04011763  1  0.055665  0.00242  -0.088309  -0.200003  0.001321  3.888092  0.001
C  C132  1  0.18885169  0.98693998  0.70031974  1  1.521965  0.002416  0.194661  0.549298  0.001775  4.225716  0.0
C  C133  1  0.78690264  0.48879103  0.79985869  1  1.542983  0.002381  0.194781  0.54844  0.001767  4.227318  0.0
C  C134  1  0.81114318  0.01306008  0.29968123  1  1.521725  0.002417  0.194651  0.549316  0.001774  4.225671  0.0
C  C135  1  0.21310142  0.51121457  0.20014763  1  1.542673  0.002384  0.194874  0.548572  0.001768  4.227219  0.0
C  C136  1  0.19536863  0.77929792  0.39848400  1  1.525585  0.000251  0.205772  0.574048  -0.000117  4.171593  -0.002
C  C137  1  0.88132213  0.79721279  0.10189022  1  1.533435  0.000229  0.205541  0.572814  -7e-05  4.172864  -0.001
C  C138  1  0.80463452  0.22070748  0.60152142  1  1.525461  0.000253  0.205822  0.574161  -0.000116  4.171354  -0.002
C  C139  1  0.11867980  0.20279431  0.89811910  1  1.534059  0.000229  0.205637  0.572973  -7e-05  4.172671  -0.001
C  C140  1  0.24413306  0.14695956  0.11477811  1  -0.041203  0.001386  -0.233072  -0.478413  0.000581  3.94469  0.001
C  C141  1  0.53174173  0.12941291  0.38508174  1  -0.076607  0.001398  -0.2324  -0.475306  0.000582  3.944759  0.001
C  C142  1  0.75586316  0.85303988  0.88522201  1  -0.038537  0.001386  -0.233013  -0.478318  0.000581  3.944576  0.001
C  C143  1  0.46825990  0.87059418  0.61492286  1  -0.076931  0.001399  -0.232278  -0.475073  0.000582  3.944467  0.001
C  C144  1  0.16674239  0.04809880  0.02571491  1  0.979067  -0.0035  0.231258  0.363141  -0.004539  3.944207  -0.002
C  C145  1  0.52208070  0.14099337  0.47416607  1  0.970727  -0.003478  0.230817  0.362437  -0.00454  3.943686  -0.002
C  C146  1  0.83324976  0.95189806  0.97427755  1  0.975867  -0.003501  0.231139  0.363068  -0.00454  3.944385  -0.002
C  C147  1  0.47792094  0.85901263  0.52583784  1  0.97079  -0.003477  0.23078  0.362423  -0.004539  3.943848  -0.002
C  C148  1  0.06941008  0.91789810  0.87165782  1  0.36653  0.001936  0.085054  0.141135  0.000866  4.082008  0.002
C  C149  1  0.54625071  0.19769415  0.62832922  1  0.402448  0.001866  0.084812  0.141512  0.000866  4.082661  0.002
C  C150  1  0.93059624  0.08209592  0.12833998  1  0.366271  0.001938  0.084954  0.14098  0.000866  4.082176  0.002
C  C151  1  0.45374642  0.80230550  0.37167181  1  0.402488  0.001865  0.084805  0.141565  0.000866  4.082534  0.002
C  C152  1  0.01823524  0.84923215  0.76675681  1  0.000587  0.001282  -0.08983  -0.148553  0.000528  3.96427  0.001
C  C153  1  0.58251837  0.25150833  0.73321697  1  0.003362  0.001268  -0.089734  -0.149306  0.000522  3.967479  0.001
C  C154  1  0.98176697  0.15076295  0.23323982  1  0.000348  0.001282  -0.089743  -0.148378  0.000528  3.964332  0.001
C  C155  1  0.41747650  0.74849172  0.26678400  1  0.003492  0.001268  -0.089718  -0.14947  0.000522  3.967532  0.001
C  C156  1  0.95083619  0.75547732  0.73371975  1  -0.067782  -0.000631  -0.106848  -0.105462  -0.000718  4.062519  0.0
C  C157  1  0.52188041  0.21715112  0.76632982  1  -0.076208  -0.000632  -0.107085  -0.105423  -0.000718  4.063988  0.0
C  C158  1  0.04916678  0.24451440  0.26627404  1  -0.067812  -0.000631  -0.106911  -0.105411  -0.000718  4.062272  0.0
C  C159  1  0.47811010  0.78284467  0.23366691  1  -0.076069  -0.000632  -0.10715  -0.105471  -0.000719  4.063852  0.0
C  C160  1  0.93490148  0.73036499  0.80259863  1  -0.085495  0.000454  -0.101825  -0.095932  0.000229  4.044044  0.0
C  C161  1  0.42797460  0.13221524  0.69756378  1  -0.057242  0.000446  -0.101754  -0.09449  0.000225  4.044336  0.0
C  C162  1  0.06511501  0.26963154  0.19740336  1  -0.085308  0.000454  -0.101815  -0.096008  0.000229  4.043343  0.0
C  C163  1  0.57202164  0.86778311  0.30243565  1  -0.058291  0.000446  -0.101787  -0.094505  0.000225  4.04433  0.0
C  C164  1  0.98319113  0.79897047  0.90666224  1  0.00631  0.000277  -0.101467  -0.168209  8.7e-05  4.005747  0.0
C  C165  1  0.39256826  0.07624450  0.59354454  1  -0.031354  0.000286  -0.102214  -0.170063  8.4e-05  4.007169  0.0
C  C166  1  0.01681522  0.20102456  0.09333116  1  0.006087  0.000278  -0.101458  -0.168085  8.7e-05  4.005271  0.0
C  C167  1  0.60742720  0.92374966  0.40645054  1  -0.030923  0.000286  -0.102202  -0.170114  8.4e-05  4.007291  0.0
C  C168  1  0.04988388  0.89313298  0.93944895  1  0.293401  0.002753  0.088979  0.087534  0.001204  4.026655  0.002
C  C169  1  0.45378355  0.11023028  0.56064037  1  0.283156  0.002743  0.089935  0.087738  0.001196  4.027686  0.002
C  C170  1  0.95011782  0.10686219  0.06054571  1  0.293933  0.002753  0.088905  0.087461  0.001204  4.026776  0.002
C  C171  1  0.54621707  0.88976977  0.43935751  1  0.282893  0.002743  0.089949  0.087743  0.001196  4.027567  0.002
C  C172  1  0.12539869  0.98811459  0.13354741  1  0.263531  0.000757  -0.050167  -0.04429  0.000411  3.845026  0.001
C  C173  1  0.35414004  0.99178113  0.36652237  1  0.313631  0.000753  -0.050337  -0.044937  0.00041  3.84632  0.001
C  C174  1  0.87459815  0.01188187  0.86645193  1  0.263284  0.000757  -0.050179  -0.04431  0.000411  3.845075  0.001
C  C175  1  0.64586181  0.00822122  0.63347741  1  0.313653  0.000753  -0.050376  -0.045081  0.00041  3.846405  0.001
C  C176  1  0.21216546  0.96043074  0.19118154  1  0.027528  6e-06  -0.161251  -0.161697  -3e-05  3.909063  0.0
C  C177  1  0.26887149  0.02107892  0.30902212  1  -0.02259  6e-06  -0.161519  -0.163647  -3.1e-05  3.91008  0.0
C  C178  1  0.78783577  0.03957100  0.80881764  1  0.027797  6e-06  -0.161221  -0.161563  -3e-05  3.908908  0.0
C  C179  1  0.73112941  0.97892181  0.69097675  1  -0.022885  6e-06  -0.161472  -0.163587  -3.1e-05  3.910135  0.0
C  C180  1  0.66499471  0.35243083  0.25255155  1  0.003084  0.000365  -0.159623  -0.170409  0.000184  3.939708  0.0
C  C181  1  0.60009371  0.41199065  0.24724740  1  -0.040632  0.000364  -0.159452  -0.170098  0.000184  3.940256  0.0
C  C182  1  0.33500352  0.64757213  0.74744461  1  0.003072  0.000364  -0.159645  -0.170193  0.000184  3.938177  0.0
C  C183  1  0.39990421  0.58801020  0.75274777  1  -0.040228  0.000364  -0.159476  -0.170095  0.000184  3.939984  0.0
C  C184  1  0.63670998  0.27856089  0.14588538  1  0.339912  0.000842  -0.044989  -0.056261  0.000554  3.899398  0.001
C  C185  1  0.63279881  0.49047183  0.35384116  1  0.346203  0.000837  -0.044844  -0.048576  0.000552  3.900848  0.001
C  C186  1  0.36328608  0.72143855  0.85411239  1  0.339923  0.000842  -0.045074  -0.050349  0.000553  3.901089  0.001
C  C187  1  0.36719997  0.50952530  0.64615421  1  0.345867  0.000837  -0.044797  -0.048478  0.000552  3.900855  0.001
C  C188  1  0.50959284  0.11726478  0.09776295  1  0.299799  0.002835  0.08953  0.077563  0.001474  4.024799  0.002
C  C189  1  0.51965763  0.41177117  0.40215676  1  0.287555  0.002828  0.08923  0.082643  0.001469  4.027901  0.002
C  C190  1  0.49040609  0.88273235  0.90223478  1  0.299607  0.002836  0.089534  0.083514  0.001473  4.026191  0.002
C  C191  1  0.48033999  0.58821682  0.59783325  1  0.288145  0.002828  0.089231  0.082618  0.001469  4.027857  0.002
C  C192  1  0.57157386  0.08460582  0.15986544  1  -0.04787  0.000519  -0.094364  -0.162204  0.000227  3.984383  0.0
C  C193  1  0.42487550  0.41164217  0.34006969  1  -0.01387  0.000512  -0.093958  -0.161858  0.000226  3.985507  0.0
C  C194  1  0.42842821  0.91539369  0.84013904  1  -0.04784  0.000519  -0.094397  -0.162154  0.000226  3.983444  0.0
C  C195  1  0.57512312  0.58835287  0.65992705  1  -0.013331  0.000512  -0.093947  -0.161825  0.000226  3.985457  0.0
C  C196  1  0.52062951  0.99614810  0.15157641  1  0.02196  0.000222  -0.098863  -0.077122  1.9e-05  4.019004  0.0
C  C197  1  0.34474809  0.36926673  0.34856744  1  -0.023833  0.000225  -0.098586  -0.076632  1.9e-05  4.019797  0.0
C  C198  1  0.47936884  0.00385176  0.84843024  1  0.022083  0.000222  -0.098889  -0.077259  1.9e-05  4.019397  0.0
C  C199  1  0.65525148  0.63072993  0.65143021  1  -0.024008  0.000224  -0.098563  -0.076634  1.9e-05  4.019785  0.0
C  C200  1  0.41276653  0.94202138  0.08339479  1  -0.012794  -0.000368  -0.106131  -0.110188  -0.000426  4.055288  0.0
C  C201  1  0.35886524  0.32979909  0.41688914  1  -0.027722  -0.000365  -0.105801  -0.109985  -0.000424  4.056892  0.0
C  C202  1  0.58723202  0.05797482  0.91660773  1  -0.012715  -0.000368  -0.106103  -0.110275  -0.000426  4.055672  0.0
C  C203  1  0.64113406  0.67019689  0.58310752  1  -0.027621  -0.000365  -0.105831  -0.110016  -0.000424  4.056915  0.0
C  C204  1  0.35151959  0.97386140  0.01971498  1  -0.080745  0.001185  -0.093795  -0.162595  0.000427  3.982339  0.001
C  C205  1  0.45440543  0.33220399  0.48051893  1  -0.050352  0.001183  -0.094184  -0.162388  0.000429  3.985635  0.001
C  C206  1  0.64848157  0.02613433  0.98028721  1  -0.081335  0.001186  -0.093834  -0.162689  0.000428  3.982471  0.001
C  C207  1  0.54559120  0.66779064  0.51947364  1  -0.050376  0.001183  -0.094203  -0.162628  0.000429  3.985692  0.001
C  C208  1  0.40127288  0.06334557  0.02815334  1  0.38117  0.002556  0.088555  0.153835  0.001467  4.065639  0.002
C  C209  1  0.53541182  0.37329857  0.47191389  1  0.414382  0.002543  0.088864  0.155046  0.001458  4.063526  0.002
C  C210  1  0.59872958  0.93665171  0.97184937  1  0.381663  0.002554  0.088613  0.154351  0.001466  4.063569  0.002
C  C211  1  0.46458579  0.62669301  0.52807751  1  0.413968  0.002545  0.088906  0.155247  0.001459  4.063414  0.002
C  C212  1  0.44342875  0.19412788  0.01048295  1  0.992637  0.002333  0.234776  0.360479  0.001258  3.944978  0.002
C  C213  1  0.68388300  0.43291505  0.48942490  1  0.98717  0.002376  0.234713  0.366809  0.001278  3.947137  0.002
C  C214  1  0.55657215  0.80586567  0.98951315  1  0.992713  0.002332  0.234887  0.366758  0.001258  3.945513  0.002
C  C215  1  0.31611336  0.56707889  0.51056668  1  0.986502  0.002378  0.234777  0.367025  0.001278  3.946915  0.002
C  C216  1  0.43481939  0.26667488  0.97194345  1  -0.05692  0.001401  -0.223553  -0.472676  0.000723  3.939254  0.001
C  C217  1  0.79497241  0.46275687  0.52783569  1  -0.077678  0.001427  -0.224045  -0.473711  0.000713  3.940681  0.001
C  C218  1  0.56518431  0.73331962  0.02805468  1  -0.057061  0.001402  -0.223486  -0.472567  0.000722  3.93819  0.001
C  C219  1  0.20502743  0.53724406  0.47216433  1  -0.077326  0.001427  -0.22404  -0.473768  0.000713  3.94071  0.001
N  N220  1  0.14336617  0.01446835  0.92822467  1  -1.200603  0.058036  -0.363008  -0.430329  0.031155  3.574387  0.037
N  N221  1  0.58605541  0.21516222  0.57164447  1  -1.220663  0.057781  -0.36258  -0.430717  0.031054  3.57235  0.037
N  N222  1  0.85663103  0.98553014  0.07177058  1  -1.200156  0.058032  -0.362921  -0.430272  0.031155  3.574456  0.037
N  N223  1  0.41394731  0.78484041  0.42836131  1  -1.220699  0.057786  -0.362585  -0.430794  0.031057  3.572429  0.037
N  N224  1  0.11097202  0.97762486  0.03547371  1  -1.217114  0.001718  -0.243899  -0.081579  0.000404  3.68865  0.002
N  N225  1  0.44199832  0.07534630  0.46453137  1  -1.209575  0.001705  -0.244174  -0.080454  0.000396  3.688161  0.002
N  N226  1  0.88902603  0.02237349  0.96452312  1  -1.21732  0.001718  -0.243872  -0.081618  0.000403  3.688813  0.002
N  N227  1  0.55799965  0.92465639  0.53546823  1  -1.209515  0.001705  -0.244108  -0.08036  0.000397  3.688154  0.002
N  N228  1  0.53370768  0.19958093  0.08477009  1  -1.216007  0.005944  -0.242265  -0.062815  0.00279  3.66829  0.005
N  N229  1  0.61497124  0.44874478  0.41504486  1  -1.225032  0.005954  -0.242231  -0.082182  0.002798  3.69194  0.005
N  N230  1  0.46629267  0.80041634  0.91523052  1  -1.215786  0.005945  -0.242261  -0.081645  0.002796  3.690511  0.005
N  N231  1  0.38502550  0.55124801  0.58494564  1  -1.224777  0.005956  -0.242247  -0.082324  0.002799  3.692037  0.005
N  N232  1  0.36281129  0.11368509  0.97572033  1  -1.21375  0.063392  -0.359371  -0.421588  0.033937  3.550305  0.044
N  N233  1  0.63822820  0.38727516  0.52434783  1  -1.203666  0.063287  -0.359607  -0.421945  0.033855  3.546211  0.044
N  N234  1  0.63718984  0.88630772  0.02427675  1  -1.21386  0.063391  -0.359426  -0.421302  0.033935  3.547882  0.044
N  N235  1  0.36177067  0.61272014  0.47564548  1  -1.203519  0.063291  -0.359665  -0.422126  0.033859  3.546355  0.044
O  O236  1  0.18967301  0.07110680  0.74877449  1  -1.129622  0.109279  -0.333993  -0.551892  0.055793  2.351793  0.084
O  O237  1  0.82251434  0.44093909  0.75142585  1  -1.135119  0.109179  -0.334483  -0.552328  0.055735  2.352471  0.084
O  O238  1  0.81031710  0.92889122  0.25122400  1  -1.129485  0.109271  -0.33399  -0.551968  0.055792  2.351768  0.084
O  O239  1  0.17748943  0.55906693  0.24858018  1  -1.134895  0.109178  -0.334481  -0.552302  0.055738  2.352347  0.084
O  O240  1  0.20534134  0.93203689  0.74061586  1  -1.171633  0.038101  -0.32175  -0.561721  0.018944  2.124144  0.031
O  O241  1  0.69167999  0.46514897  0.75954470  1  -1.175985  0.038011  -0.321956  -0.56125  0.018886  2.124164  0.031
O  O242  1  0.79466230  0.06796803  0.25938712  1  -1.1715  0.038105  -0.321778  -0.561763  0.018946  2.124062  0.031
O  O243  1  0.30832229  0.53485764  0.24045982  1  -1.17605  0.038013  -0.322052  -0.561367  0.018886  2.124155  0.031
O  O244  1  0.22467188  0.72803584  0.44373034  1  -1.144561  0.099572  -0.328012  -0.547533  0.051018  2.30868  0.08
O  O245  1  0.78477341  0.78124938  0.05655005  1  -1.138528  0.099507  -0.327918  -0.547325  0.050947  2.311272  0.08
O  O246  1  0.77533048  0.27197044  0.55627722  1  -1.144405  0.099572  -0.328041  -0.547532  0.05102  2.308746  0.08
O  O247  1  0.21522725  0.21875399  0.94345736  1  -1.138729  0.099504  -0.327955  -0.547387  0.050946  2.311224  0.08
O  O248  1  0.19944197  0.77319252  0.32105156  1  -1.186136  0.034683  -0.308611  -0.563979  0.017253  2.216206  0.029
O  O249  1  0.95268242  0.87866709  0.17943327  1  -1.189459  0.034416  -0.308309  -0.564126  0.017102  2.216422  0.028
O  O250  1  0.80057001  0.22681599  0.67895889  1  -1.186173  0.034686  -0.308628  -0.56407  0.017254  2.216119  0.029
O  O251  1  0.04731757  0.12134102  0.82057188  1  -1.189517  0.034416  -0.3084  -0.564266  0.017102  2.216349  0.028
O  O252  1  0.04782567  0.02002815  0.38449506  1  -1.145327  0.000198  -0.368144  -0.477985  -3.1e-05  2.276819  0.0
O  O253  1  0.13613838  0.66381863  0.11584659  1  -1.170511  0.00019  -0.368142  -0.475321  -3e-05  2.282177  0.0
O  O254  1  0.95217074  0.97997481  0.61550371  1  -1.145271  0.000198  -0.368116  -0.477948  -3.1e-05  2.276658  0.0
O  O255  1  0.86386367  0.33618914  0.88416135  1  -1.170152  0.00019  -0.368169  -0.475339  -3e-05  2.282301  0.0
