# generated using pymatgen
data_ZnH10C17O5F6
_symmetry_space_group_name_H-M   'P 1'
_cell_length_a   6.92199421
_cell_length_b   12.83893147
_cell_length_c   21.10417478
_cell_angle_alpha   94.26911046
_cell_angle_beta   90.00010119
_cell_angle_gamma   89.99992035
_symmetry_Int_Tables_number   1
_chemical_formula_structural   ZnH10C17O5F6
_chemical_formula_sum   'Zn4 H40 C68 O20 F24'
_cell_volume   1870.34543575
_cell_formula_units_Z   4
loop_
 _symmetry_equiv_pos_site_id
 _symmetry_equiv_pos_as_xyz
  1  'x, y, z'
loop_
 _atom_site_type_symbol
 _atom_site_label
 _atom_site_symmetry_multiplicity
 _atom_site_fract_x
 _atom_site_fract_y
 _atom_site_fract_z
 _atom_site_occupancy
 _atom_site_pbe_bader_charge
 _atom_site_pbe_bader_spin_density
 _atom_site_pbe_cm5_charge
 _atom_site_pbe_ddec_charge
 _atom_site_pbe_ddec_spin_density
 _atom_site_pbe_ddec_sum_bond_order
 _atom_site_pbe_magmom
Zn  Zn0  1  0.16812726  0.44837238  0.52055512  1  1.323165  0  0.665313  0.926168  0  2.30773  0
Zn  Zn1  1  0.16812759  0.05162834  0.97944530  1  1.322957  0  0.665239  0.926105  0  2.307977  0
Zn  Zn2  1  0.83187216  0.55162834  0.47944513  1  1.32297  0  0.665213  0.926091  0  2.308017  0
Zn  Zn3  1  0.83187328  0.94837238  0.02055542  1  1.323216  0  0.665308  0.926148  0  2.307727  0
H  H4  1  0.97926749  0.13558921  0.79108737  1  0.072241  0  0.100104  0.108429  0  1.014572  0
H  H5  1  0.97926408  0.36440863  0.70891147  1  0.072169  0  0.100118  0.108438  0  1.014543  0
H  H6  1  0.02073194  0.86440917  0.20891323  1  0.072175  0  0.100101  0.108409  0  1.014548  0
H  H7  1  0.02073390  0.63559366  0.29108838  1  0.072133  0  0.1001  0.108387  0  1.014547  0
H  H8  1  0.83049068  0.15462261  0.68646943  1  0.07609  0  0.090176  0.096884  0  1.059431  0
H  H9  1  0.83049224  0.34537689  0.81353035  1  0.076124  0  0.090156  0.096864  0  1.059446  0
H  H10  1  0.16950729  0.84537889  0.31353274  1  0.076063  0  0.090215  0.096897  0  1.059332  0
H  H11  1  0.16950574  0.65462306  0.18646938  1  0.076079  0  0.090188  0.096914  0  1.059382  0
H  H12  1  0.33899848  0.97589306  0.74240891  1  0.103764  0  0.105944  0.116004  0  0.989095  0
H  H13  1  0.33899621  0.52410443  0.75758892  1  0.103756  0  0.105953  0.116033  0  0.989171  0
H  H14  1  0.66100094  0.02410377  0.25759067  1  0.103801  0  0.105955  0.116029  0  0.989091  0
H  H15  1  0.66099743  0.47589318  0.24240976  1  0.10379  0  0.105943  0.11604  0  0.989101  0
H  H16  1  0.48515176  0.96235318  0.84800236  1  0.11648  0  0.107719  0.115366  0  1.018513  0
H  H17  1  0.48514743  0.53764576  0.65199657  1  0.116441  0  0.107708  0.115352  0  1.018486  0
H  H18  1  0.51484911  0.03764599  0.15199734  1  0.116494  0  0.107728  0.115381  0  1.018486  0
H  H19  1  0.51484911  0.46235419  0.34800317  1  0.116466  0  0.10774  0.115398  0  1.018493  0
H  H20  1  0.62592431  0.88251817  0.64325648  1  0.083213  0  0.103668  0.111529  0  0.996561  0
H  H21  1  0.62592668  0.61748224  0.85674165  1  0.083182  0  0.103655  0.111525  0  0.99656  0
H  H22  1  0.37407800  0.11748178  0.35674231  1  0.083254  0  0.103676  0.111526  0  0.996553  0
H  H23  1  0.37407419  0.38251694  0.14325709  1  0.083251  0  0.103652  0.111495  0  0.996581  0
H  H24  1  0.48913580  0.71189700  0.60314302  1  0.103473  0  0.109605  0.119881  0  0.997162  0
H  H25  1  0.48914085  0.78810507  0.89685558  1  0.104347  0  0.109575  0.119865  0  0.997167  0
H  H26  1  0.51086506  0.28810373  0.39685722  1  0.103498  0  0.109606  0.119904  0  0.997181  0
H  H27  1  0.51086291  0.21189489  0.10314320  1  0.103861  0  0.109607  0.119895  0  0.997174  0
H  H28  1  0.96773598  0.86407984  0.54985846  1  0.081786  0  0.10322  0.114234  0  1.000712  0
H  H29  1  0.96774315  0.63592189  0.95014183  1  0.081818  0  0.10324  0.114279  0  1.000727  0
H  H30  1  0.03226633  0.13592090  0.45014037  1  0.081748  0  0.103226  0.11422  0  1.000766  0
H  H31  1  0.03226061  0.36407884  0.04985842  1  0.081807  0  0.103234  0.114257  0  1.000725  0
H  H32  1  0.10470261  0.03511538  0.58633418  1  0.09864  0  0.089654  0.099247  0  1.057532  0
H  H33  1  0.10470874  0.46488539  0.91366620  1  0.098696  0  0.08967  0.099288  0  1.057506  0
H  H34  1  0.89529826  0.96488457  0.41366650  1  0.098649  0  0.089648  0.099243  0  1.057526  0
H  H35  1  0.89529502  0.53511533  0.08633451  1  0.098659  0  0.089671  0.09927  0  1.05754  0
H  H36  1  0.53434987  0.42665756  0.55153836  1  0.65926  0  0.300473  0.398981  0  0.935629  0
H  H37  1  0.53435142  0.07334135  0.94846218  1  0.659245  0  0.300471  0.398942  0  0.935674  0
H  H38  1  0.46564666  0.57334160  0.44846229  1  0.659261  0  0.300462  0.398942  0  0.935675  0
H  H39  1  0.46565089  0.92665781  0.05153846  1  0.659282  0  0.300461  0.398966  0  0.935642  0
H  H40  1  0.41358861  0.32791441  0.57084156  1  0.612463  0  0.305603  0.385145  0  0.932613  0
H  H41  1  0.41359269  0.17208459  0.92915797  1  0.612506  0  0.305555  0.385081  0  0.932722  0
H  H42  1  0.58640648  0.67208477  0.42915719  1  0.6125  0  0.305605  0.385157  0  0.932589  0
H  H43  1  0.58641107  0.82791536  0.07084177  1  0.612466  0  0.305564  0.385097  0  0.932694  0
C  C44  1  0.13464972  0.67366558  0.55177271  1  1.559046  0  0.216647  0.590857  0  4.173939  0
C  C45  1  0.13464483  0.82633202  0.94822927  1  1.558686  0  0.216655  0.590834  0  4.173824  0
C  C46  1  0.86536704  0.32632888  0.44823007  1  1.558827  0  0.21676  0.590913  0  4.173602  0
C  C47  1  0.86535170  0.17366636  0.05177181  1  1.558789  0  0.216644  0.590892  0  4.173985  0
C  C48  1  0.21770808  0.77707163  0.57534878  1  -0.073818  0  -0.01712  -0.030807  0  3.963359  0
C  C49  1  0.21771778  0.72293140  0.92465019  1  -0.074019  0  -0.017079  -0.03065  0  3.96305  0
C  C50  1  0.78228845  0.22292911  0.42465051  1  -0.074076  0  -0.017152  -0.030748  0  3.963317  0
C  C51  1  0.78228886  0.27707090  0.07534871  1  -0.073805  0  -0.017144  -0.030816  0  3.963264  0
C  C52  1  0.83655034  0.04016725  0.88970635  1  1.563328  0  0.219651  0.59213  0  4.162381  0
C  C53  1  0.83656492  0.45982834  0.61029277  1  1.563478  0  0.219644  0.592141  0  4.162458  0
C  C54  1  0.16343464  0.95982801  0.11029458  1  1.564075  0  0.219663  0.592136  0  4.162555  0
C  C55  1  0.16344894  0.54017004  0.38970688  1  1.563329  0  0.219548  0.592125  0  4.162392  0
C  C56  1  0.74286617  0.04856479  0.82633260  1  0.031643  0  -0.021569  -0.042295  0  3.976612  0
C  C57  1  0.74285801  0.45143477  0.67366620  1  0.031653  0  -0.021565  -0.042301  0  3.976518  0
C  C58  1  0.25713614  0.95143515  0.17366809  1  0.031594  0  -0.021606  -0.04235  0  3.976504  0
C  C59  1  0.25713563  0.54856752  0.32633412  1  0.031661  0  -0.021563  -0.042255  0  3.97657  0
C  C60  1  0.83812465  0.10160978  0.77998131  1  -0.038504  0  -0.084483  -0.072245  0  3.952857  0
C  C61  1  0.83812410  0.39838736  0.72001836  1  -0.038391  0  -0.084492  -0.072237  0  3.952727  0
C  C62  1  0.16187188  0.89839015  0.22002079  1  -0.038401  0  -0.084485  -0.072212  0  3.952732  0
C  C63  1  0.16187243  0.60161415  0.27998192  1  -0.038412  0  -0.084454  -0.072123  0  3.952635  0
C  C64  1  0.75406777  0.11105337  0.72076109  1  0.083486  0  -0.100863  -0.139557  0  3.986135  0
C  C65  1  0.75406180  0.38894619  0.77923676  1  0.083228  0  -0.100921  -0.139648  0  3.986432  0
C  C66  1  0.24593165  0.88894813  0.27923967  1  0.083446  0  -0.100932  -0.139633  0  3.986148  0
C  C67  1  0.24593329  0.61105455  0.22076206  1  0.083235  0  -0.100882  -0.139651  0  3.986217  0
C  C68  1  0.57425545  0.06547546  0.70622166  1  -0.099491  0  -0.016506  0.083207  0  3.940645  0
C  C69  1  0.57425811  0.43452109  0.79377783  1  -0.099503  0  -0.016437  0.083344  0  3.940578  0
C  C70  1  0.42574253  0.93452292  0.29377894  1  -0.09949  0  -0.016508  0.083245  0  3.940527  0
C  C71  1  0.42573987  0.56547730  0.20622182  1  -0.099472  0  -0.016495  0.083242  0  3.940568  0
C  C72  1  0.47910821  0.01184144  0.75275205  1  -0.080408  0  -0.089247  -0.118793  0  3.954532  0
C  C73  1  0.47910036  0.48815674  0.74724652  1  -0.080407  0  -0.089259  -0.118904  0  3.954391  0
C  C74  1  0.52089121  0.98815773  0.24724717  1  -0.080766  0  -0.089249  -0.118844  0  3.954459  0
C  C75  1  0.52089184  0.51184164  0.25275314  1  -0.080722  0  -0.089272  -0.118869  0  3.954314  0
C  C76  1  0.56152394  0.00383647  0.81233741  1  -0.074634  0  -0.082879  -0.087207  0  3.952715  0
C  C77  1  0.56152585  0.49616166  0.68766074  1  -0.074653  0  -0.082947  -0.087226  0  3.952893  0
C  C78  1  0.43847260  0.99616192  0.18766272  1  -0.074301  0  -0.082925  -0.087248  0  3.952866  0
C  C79  1  0.43847212  0.50383829  0.31233852  1  -0.074286  0  -0.082921  -0.087274  0  3.952728  0
C  C80  1  0.47106390  0.07549611  0.64224108  1  0.056165  0  -0.010848  -0.272177  0  3.860734  0
C  C81  1  0.47106693  0.42450442  0.85775855  1  0.056334  0  -0.010856  -0.272228  0  3.860832  0
C  C82  1  0.52893552  0.92450462  0.35775916  1  0.056208  0  -0.010818  -0.272108  0  3.860657  0
C  C83  1  0.52893249  0.57549475  0.14224162  1  0.056306  0  -0.01083  -0.272135  0  3.860713  0
C  C84  1  0.61004100  0.10446007  0.58800477  1  1.723319  0  0.303726  0.672373  0  3.96823  0
C  C85  1  0.61004730  0.39553958  0.91199490  1  1.723697  0  0.303776  0.672302  0  3.96835  0
C  C86  1  0.38996275  0.89553986  0.41199686  1  1.72332  0  0.303721  0.672303  0  3.968184  0
C  C87  1  0.38995357  0.60445881  0.08800476  1  1.723219  0  0.303795  0.672335  0  3.96837  0
C  C88  1  0.32397181  0.16665822  0.65384751  1  1.705677  0  0.304284  0.66873  0  3.967036  0
C  C89  1  0.32397501  0.33334162  0.84615295  1  1.705561  0  0.304337  0.668803  0  3.966983  0
C  C90  1  0.67602617  0.83334251  0.34615226  1  1.705551  0  0.304313  0.668743  0  3.966979  0
C  C91  1  0.67602441  0.66665755  0.15384722  1  1.705575  0  0.304292  0.668693  0  3.966997  0
C  C92  1  0.37446625  0.97150643  0.61885132  1  -0.062076  0  -0.018933  0.078914  0  3.954833  0
C  C93  1  0.37447187  0.52849414  0.88114904  1  -0.062262  0  -0.018872  0.079008  0  3.954796  0
C  C94  1  0.62553606  0.02849351  0.38114936  1  -0.0621  0  -0.018976  0.078974  0  3.954765  0
C  C95  1  0.62553044  0.47150581  0.11885117  1  -0.062273  0  -0.018902  0.078933  0  3.954871  0
C  C96  1  0.48118273  0.87919249  0.62292569  1  -0.085377  0  -0.091444  -0.125809  0  3.969258  0
C  C97  1  0.48118665  0.62081036  0.87707343  1  -0.085396  0  -0.091465  -0.125844  0  3.969271  0
C  C98  1  0.51881669  0.12080825  0.37707408  1  -0.085399  0  -0.091429  -0.125805  0  3.969225  0
C  C99  1  0.51881421  0.37919116  0.12292544  1  -0.085379  0  -0.091432  -0.125768  0  3.96928  0
C  C100  1  0.40439712  0.78306282  0.60111345  1  0.082246  0  -0.078932  -0.074093  0  3.942952  0
C  C101  1  0.40439947  0.71693617  0.89888544  1  0.081272  0  -0.078943  -0.07416  0  3.943117  0
C  C102  1  0.59560664  0.21693635  0.39888625  1  0.082223  0  -0.078965  -0.074192  0  3.943235  0
C  C103  1  0.59560140  0.28306222  0.10111327  1  0.081811  0  -0.078924  -0.074111  0  3.942992  0
C  C104  1  0.11173560  0.86889176  0.57069713  1  -0.020445  0  -0.08584  -0.081182  0  3.961292  0
C  C105  1  0.11173689  0.63110742  0.92930350  1  -0.0204  0  -0.085924  -0.081391  0  3.961131  0
C  C106  1  0.88826815  0.13110818  0.42930355  1  -0.020413  0  -0.085864  -0.081247  0  3.961219  0
C  C107  1  0.88826253  0.36889253  0.07069671  1  -0.020429  0  -0.085875  -0.081239  0  3.961275  0
C  C108  1  0.18978674  0.96538675  0.59178307  1  0.00078  0  -0.10475  -0.148608  0  4.000166  0
C  C109  1  0.18979394  0.53461472  0.90821771  1  0.000799  0  -0.104774  -0.14863  0  4.00019  0
C  C110  1  0.81021268  0.03461320  0.40821666  1  0.000736  0  -0.10472  -0.148604  0  4.000117  0
C  C111  1  0.81020981  0.46538679  0.09178257  1  0.000782  0  -0.10479  -0.148654  0  4.000184  0
O  O112  1  0.23589668  0.59308947  0.56001783  1  -1.158545  0  -0.31096  -0.54667  0  2.359833  0
O  O113  1  0.23590888  0.90691666  0.93998272  1  -1.157933  0  -0.31102  -0.546766  0  2.359385  0
O  O114  1  0.76409408  0.40691751  0.43998177  1  -1.157972  0  -0.311068  -0.546804  0  2.359035  0
O  O115  1  0.76410355  0.09308876  0.06001727  1  -1.158335  0  -0.310949  -0.546685  0  2.359803  0
O  O116  1  0.42206434  0.37939203  0.53948335  1  -1.213678  0  -0.560355  -0.702027  0  2.147224  0
O  O117  1  0.42206294  0.12060697  0.96051571  1  -1.21368  0  -0.560292  -0.701903  0  2.147304  0
O  O118  1  0.57793653  0.62060714  0.46051588  1  -1.213667  0  -0.560334  -0.701969  0  2.147198  0
O  O119  1  0.57793504  0.87939221  0.03948351  1  -1.2137  0  -0.560294  -0.701953  0  2.147267  0
O  O120  1  0.73216440  0.00367643  0.93358210  1  -1.18444  0  -0.312061  -0.574398  0  2.353978  0
O  O121  1  0.73215987  0.49632393  0.56641578  1  -1.184427  0  -0.312119  -0.574514  0  2.353626  0
O  O122  1  0.26783935  0.99632352  0.06641764  1  -1.184977  0  -0.312151  -0.574523  0  2.35372  0
O  O123  1  0.26783088  0.50367838  0.43358265  1  -1.184394  0  -0.311998  -0.57441  0  2.354086  0
O  O124  1  0.01032310  0.06934235  0.89631511  1  -1.157207  0  -0.306783  -0.537119  0  2.309866  0
O  O125  1  0.01030883  0.43066004  0.60368577  1  -1.157352  0  -0.306647  -0.536935  0  2.310317  0
O  O126  1  0.98968932  0.93065993  0.10368616  1  -1.157369  0  -0.306666  -0.536967  0  2.310342  0
O  O127  1  0.98967181  0.56934537  0.39631517  1  -1.157268  0  -0.306712  -0.537126  0  2.309783  0
O  O128  1  0.96920249  0.67406635  0.52493425  1  -1.161464  0  -0.317005  -0.550078  0  2.31873  0
O  O129  1  0.96922087  0.82593538  0.97506461  1  -1.161483  0  -0.316916  -0.549918  0  2.319015  0
O  O130  1  0.03078393  0.32593361  0.47506406  1  -1.161623  0  -0.316945  -0.549938  0  2.319237  0
O  O131  1  0.03079588  0.17406692  0.02493381  1  -1.161486  0  -0.316999  -0.550079  0  2.318831  0
F  F132  1  0.76124316  0.03680927  0.58198948  1  -0.632717  0  -0.078367  -0.182871  0  1.368483  0
F  F133  1  0.76124932  0.46319105  0.91801031  1  -0.632773  0  -0.078391  -0.182894  0  1.368484  0
F  F134  1  0.23875915  0.96319066  0.41801263  1  -0.632687  0  -0.07836  -0.182869  0  1.368523  0
F  F135  1  0.23875155  0.53680734  0.08198935  1  -0.632668  0  -0.078411  -0.182919  0  1.368499  0
F  F136  1  0.51787810  0.10084636  0.53131281  1  -0.615346  0  -0.088752  -0.193492  0  1.403855  0
F  F137  1  0.51788326  0.39915491  0.96868688  1  -0.615647  0  -0.088762  -0.193437  0  1.403887  0
F  F138  1  0.48212999  0.89915593  0.46868798  1  -0.615443  0  -0.088744  -0.193454  0  1.403774  0
F  F139  1  0.48212050  0.60084269  0.03131321  1  -0.615325  0  -0.08876  -0.193465  0  1.403884  0
F  F140  1  0.68699127  0.20285727  0.59731556  1  -0.617309  0  -0.095219  -0.211295  0  1.345842  0
F  F141  1  0.68700066  0.29714310  0.90268466  1  -0.617347  0  -0.095203  -0.211257  0  1.345902  0
F  F142  1  0.31301104  0.79714266  0.40268655  1  -0.617265  0  -0.09522  -0.211305  0  1.34584  0
F  F143  1  0.31300454  0.70285608  0.09731361  1  -0.617324  0  -0.095239  -0.211274  0  1.34593  0
F  F144  1  0.23893110  0.19664504  0.59932219  1  -0.614412  0  -0.085818  -0.203006  0  1.352908  0
F  F145  1  0.23893179  0.30335485  0.90067822  1  -0.614403  0  -0.085799  -0.202966  0  1.35284  0
F  F146  1  0.76106977  0.80335335  0.40067699  1  -0.614381  0  -0.085783  -0.202961  0  1.352873  0
F  F147  1  0.76106763  0.69664353  0.09932238  1  -0.614389  0  -0.085778  -0.202917  0  1.35287  0
F  F148  1  0.17918564  0.14036048  0.69296372  1  -0.626841  0  -0.074733  -0.180893  0  1.394433  0
F  F149  1  0.17919145  0.35963946  0.80703572  1  -0.626794  0  -0.074736  -0.180897  0  1.394434  0
F  F150  1  0.82080945  0.85964104  0.30703561  1  -0.62683  0  -0.074736  -0.180923  0  1.394468  0
F  F151  1  0.82080941  0.64036126  0.19296500  1  -0.626808  0  -0.074743  -0.180905  0  1.394394  0
F  F152  1  0.40899062  0.25414921  0.68144012  1  -0.619604  0  -0.092289  -0.203442  0  1.397671  0
F  F153  1  0.40899679  0.24585055  0.81856275  1  -0.618986  0  -0.092344  -0.203482  0  1.397692  0
F  F154  1  0.59100446  0.74585230  0.31856016  1  -0.619519  0  -0.092328  -0.203451  0  1.39765  0
F  F155  1  0.59100119  0.75414861  0.18143742  1  -0.618999  0  -0.092329  -0.203452  0  1.397678  0
