# generated using pymatgen
data_Sn2PH4C4O7
_symmetry_space_group_name_H-M   'P 1'
_cell_length_a   4.81015974
_cell_length_b   8.18508739
_cell_length_c   23.37471063
_cell_angle_alpha   90.00011525
_cell_angle_beta   89.99984211
_cell_angle_gamma   93.88027544
_symmetry_Int_Tables_number   1
_chemical_formula_structural   Sn2PH4C4O7
_chemical_formula_sum   'Sn8 P4 H16 C16 O28'
_cell_volume   918.18957728
_cell_formula_units_Z   4
loop_
 _symmetry_equiv_pos_site_id
 _symmetry_equiv_pos_as_xyz
  1  'x, y, z'
loop_
 _atom_site_type_symbol
 _atom_site_label
 _atom_site_symmetry_multiplicity
 _atom_site_fract_x
 _atom_site_fract_y
 _atom_site_fract_z
 _atom_site_occupancy
 _atom_site_hle17_bader_spin_density
 _atom_site_hle17_ddec_charge
 _atom_site_hle17_ddec_spin_density
 _atom_site_hle17_ddec_sum_bond_order
 _atom_site_hle17_magmom
 _atom_site_hse06_10hf_bader_charge
 _atom_site_hse06_10hf_bader_spin_density
 _atom_site_hse06_10hf_ddec_charge
 _atom_site_hse06_10hf_ddec_spin_density
 _atom_site_hse06_10hf_ddec_sum_bond_order
 _atom_site_hse06_10hf_magmom
 _atom_site_hse06_bader_spin_density
 _atom_site_hse06_ddec_charge
 _atom_site_hse06_ddec_spin_density
 _atom_site_hse06_ddec_sum_bond_order
 _atom_site_hse06_magmom
 _atom_site_pbe_bader_spin_density
 _atom_site_pbe_cm5_charge
 _atom_site_pbe_ddec_charge
 _atom_site_pbe_ddec_spin_density
 _atom_site_pbe_ddec_sum_bond_order
 _atom_site_pbe_magmom
Sn  Sn0  1  0.01321797  0.35847081  0.40967279  1  0  1.097266  0  1.90753  0  1.451429  0  0.923731  0  2.334513  0  0  0.962665  0  2.309947  0  0  0.550125  0.895658  0  2.351915  0
Sn  Sn1  1  0.01322216  0.85847014  0.09032784  1  0  1.097279  0  1.907491  0  1.451462  0  0.923712  0  2.334531  0  0  0.962668  0  2.309971  0  0  0.550156  0.895637  0  2.351938  0
Sn  Sn2  1  0.98678010  0.64152801  0.59032683  1  0  1.09722  0  1.907514  0  1.451434  0  0.92366  0  2.334533  0  0  0.962592  0  2.309958  0  0  0.550117  0.895587  0  2.351936  0
Sn  Sn3  1  0.98677992  0.14152745  0.90967306  1  0  1.097227  0  1.907513  0  1.451437  0  0.92364  0  2.334585  0  0  0.962587  0  2.310014  0  0  0.550138  0.895562  0  2.351994  0
Sn  Sn4  1  0.83252937  0.82595327  0.40958288  1  0  1.153771  0  1.84623  0  1.46644  0  0.970529  0  2.293226  0  0  1.012717  0  2.26542  0  0  0.56335  0.939839  0  2.313145  0
Sn  Sn5  1  0.83252941  0.32595350  0.09041597  1  0  1.153789  0  1.846233  0  1.466463  0  0.970539  0  2.293256  0  0  1.012713  0  2.265444  0  0  0.563372  0.939861  0  2.313145  0
Sn  Sn6  1  0.16747152  0.17405167  0.59041887  1  0  1.153745  0  1.846254  0  1.466434  0  0.970512  0  2.293244  0  0  1.012701  0  2.265422  0  0  0.563352  0.939816  0  2.313164  0
Sn  Sn7  1  0.16746955  0.67405267  0.90958108  1  0  1.153723  0  1.846355  0  1.466398  0  0.970475  0  2.293361  0  0  1.012672  0  2.265542  0  0  0.563332  0.939788  0  2.313277  0
P  P8  1  0.48864403  0.12634812  0.34404181  1  0  1.498049  0  4.770473  0  3.362624  0  1.34044  0  5.257078  0  0  1.39128  0  5.219557  0  0  0.365746  1.305048  0  5.282123  0
P  P9  1  0.48864530  0.62634780  0.15595795  1  0  1.49799  0  4.770568  0  3.36269  0  1.340392  0  5.25716  0  0  1.391233  0  5.219639  0  0  0.365726  1.305001  0  5.282205  0
P  P10  1  0.51135375  0.87364826  0.65595738  1  0  1.498058  0  4.770411  0  3.362638  0  1.340464  0  5.256999  0  0  1.391296  0  5.219493  0  0  0.365732  1.305068  0  5.282046  0
P  P11  1  0.51135471  0.37364980  0.84404295  1  0  1.497963  0  4.770465  0  3.362455  0  1.340371  0  5.257035  0  0  1.391211  0  5.219535  0  0  0.365746  1.304979  0  5.282075  0
H  H12  1  0.17900689  0.02682937  0.27163840  1  0  0.131113  0  0.939675  0  0.054322  0  0.144358  0  0.998999  0  0  0.147198  0  0.997685  0  0  0.108748  0.142286  0  1.000068  0
H  H13  1  0.17900278  0.52682698  0.22836147  1  0  0.131106  0  0.939629  0  0.054261  0  0.144346  0  0.998983  0  0  0.147186  0  0.997671  0  0  0.108736  0.142274  0  1.000051  0
H  H14  1  0.82099505  0.97316700  0.72836079  1  0  0.131155  0  0.939676  0  0.054336  0  0.144376  0  0.999044  0  0  0.147218  0  0.99773  0  0  0.108755  0.142304  0  1.000114  0
H  H15  1  0.82100331  0.47316938  0.77164029  1  0  0.131113  0  0.939664  0  0.054255  0  0.144361  0  0.999005  0  0  0.147202  0  0.997691  0  0  0.108741  0.142289  0  1.000075  0
H  H16  1  0.22434027  0.24268837  0.27017920  1  0  0.138904  0  0.943348  0  0.114002  0  0.153009  0  0.998286  0  0  0.155379  0  0.998352  0  0  0.108633  0.151251  0  0.998414  0
H  H17  1  0.22434208  0.74268353  0.22982037  1  0  0.138879  0  0.94335  0  0.113894  0  0.15298  0  0.998308  0  0  0.155349  0  0.998365  0  0  0.108652  0.151222  0  0.998435  0
H  H18  1  0.77565944  0.75730677  0.72982256  1  0  0.138963  0  0.943206  0  0.114066  0  0.153071  0  0.998147  0  0  0.15544  0  0.998212  0  0  0.108662  0.151318  0  0.998267  0
H  H19  1  0.77566550  0.25730792  0.77017796  1  0  0.138954  0  0.943199  0  0.114039  0  0.15303  0  0.998183  0  0  0.155403  0  0.998244  0  0  0.108654  0.151279  0  0.998301  0
H  H20  1  0.67571481  0.23379795  0.22026615  1  0  0.109274  0  0.936501  0  0.07803  0  0.125476  0  0.994577  0  0  0.127512  0  0.993744  0  0  0.103892  0.124003  0  0.995276  0
H  H21  1  0.67570990  0.73379461  0.27973401  1  0  0.109275  0  0.936454  0  0.07809  0  0.125466  0  0.994529  0  0  0.127503  0  0.993697  0  0  0.103895  0.123994  0  0.995228  0
H  H22  1  0.32428370  0.76620455  0.77973518  1  0  0.109211  0  0.93656  0  0.078051  0  0.125399  0  0.994644  0  0  0.127436  0  0.993815  0  0  0.103868  0.123928  0  0.995343  0
H  H23  1  0.32428846  0.26620667  0.72026646  1  0  0.109188  0  0.936532  0  0.078109  0  0.125383  0  0.994616  0  0  0.127418  0  0.993787  0  0  0.103862  0.123913  0  0.995316  0
H  H24  1  0.69533263  0.02373187  0.23491181  1  0  0.120521  0  0.915238  0  0.096154  0  0.135632  0  0.97565  0  0  0.137836  0  0.974672  0  0  0.112078  0.134021  0  0.976499  0
H  H25  1  0.69532568  0.52372723  0.26508862  1  0  0.120525  0  0.91523  0  0.096155  0  0.135633  0  0.975613  0  0  0.137837  0  0.974641  0  0  0.112075  0.134022  0  0.976462  0
H  H26  1  0.30467420  0.97627061  0.76508823  1  0  0.120459  0  0.915268  0  0.096173  0  0.135577  0  0.975656  0  0  0.137783  0  0.974682  0  0  0.112067  0.133967  0  0.976505  0
H  H27  1  0.30468100  0.47627402  0.73491271  1  0  0.120473  0  0.915249  0  0.096158  0  0.135594  0  0.97563  0  0  0.137803  0  0.974645  0  0  0.112073  0.133983  0  0.976485  0
C  C28  1  0.33600977  0.13048582  0.27368077  1  0  -0.415406  0  3.679189  0  -0.548015  0  -0.437268  0  3.932642  0  0  -0.446468  0  3.941094  0  0  -0.167387  -0.43072  0  3.92667  0
C  C29  1  0.33600970  0.63048219  0.22631908  1  0  -0.415294  0  3.679102  0  -0.547929  0  -0.437234  0  3.932694  0  0  -0.446425  0  3.941146  0  0  -0.167368  -0.430684  0  3.92672  0
C  C30  1  0.66398786  0.86950933  0.72632013  1  0  -0.415535  0  3.679073  0  -0.548257  0  -0.437437  0  3.932601  0  0  -0.446627  0  3.941043  0  0  -0.167409  -0.430889  0  3.926639  0
C  C31  1  0.66399803  0.36951049  0.77368096  1  0  -0.415445  0  3.679067  0  -0.547951  0  -0.437349  0  3.932604  0  0  -0.446538  0  3.94104  0  0  -0.167395  -0.430801  0  3.926642  0
C  C32  1  0.54904069  0.11847773  0.22561936  1  0  -0.2152  0  3.665235  0  -0.037099  0  -0.256008  0  3.915475  0  0  -0.260608  0  3.923701  0  0  -0.155141  -0.252843  0  3.909827  0
C  C33  1  0.54903184  0.61847559  0.27438079  1  0  -0.215269  0  3.66525  0  -0.036933  0  -0.256  0  3.915401  0  0  -0.260616  0  3.923652  0  0  -0.155169  -0.252837  0  3.909756  0
C  C34  1  0.45096362  0.88152108  0.77438068  1  0  -0.215027  0  3.665333  0  -0.037157  0  -0.255776  0  3.915532  0  0  -0.260391  0  3.923784  0  0  -0.155104  -0.25262  0  3.909884  0
C  C35  1  0.45097469  0.38152444  0.72562011  1  0  -0.215021  0  3.665245  0  -0.036918  0  -0.255784  0  3.915428  0  0  -0.2604  0  3.923694  0  0  -0.155088  -0.252632  0  3.909798  0
C  C36  1  0.42137112  0.06663702  0.16873911  1  0  0.724805  0  3.772139  0  1.567987  0  0.667897  0  4.07348  0  0  0.703559  0  4.064089  0  0  0.237336  0.643597  0  4.079137  0
C  C37  1  0.42135947  0.56663519  0.33126108  1  0  0.724867  0  3.77204  0  1.567695  0  0.667939  0  4.073382  0  0  0.703573  0  4.064012  0  0  0.237291  0.643641  0  4.079037  0
C  C38  1  0.57862695  0.93336180  0.83126051  1  0  0.72472  0  3.772174  0  1.567917  0  0.667704  0  4.073652  0  0  0.703359  0  4.064274  0  0  0.237255  0.643421  0  4.079277  0
C  C39  1  0.57863430  0.43336242  0.66873982  1  0  0.724783  0  3.772029  0  1.567329  0  0.667807  0  4.073445  0  0  0.703441  0  4.064083  0  0  0.237278  0.643511  0  4.079098  0
C  C40  1  0.58646265  0.08230569  0.49643296  1  0  0.546929  0  3.891685  0  1.628642  0  0.492638  0  4.18419  0  0  0.52392  0  4.1754  0  0  0.230652  0.471356  0  4.189629  0
C  C41  1  0.58645963  0.58230459  0.00356543  1  0  0.547018  0  3.89167  0  1.62863  0  0.492693  0  4.184199  0  0  0.523986  0  4.175404  0  0  0.230721  0.471413  0  4.189641  0
C  C42  1  0.41352190  0.91770173  0.50356708  1  0  0.546785  0  3.892263  0  1.655789  0  0.492548  0  4.184704  0  0  0.523829  0  4.175925  0  0  0.230634  0.471278  0  4.190127  0
C  C43  1  0.41352032  0.41769916  0.99643162  1  0  0.546809  0  3.892109  0  1.654046  0  0.492587  0  4.184552  0  0  0.523837  0  4.175817  0  0  0.23069  0.471302  0  4.189996  0
O  O44  1  0.26382165  0.15428047  0.38985251  1  0  -0.82605  0  2.037845  0  -1.466189  0  -0.72147  0  2.302261  0  0  -0.748941  0  2.285196  0  0  -0.334782  -0.701918  0  2.313534  0
O  O45  1  0.26382336  0.65427869  0.11014740  1  0  -0.826047  0  2.037849  0  -1.466192  0  -0.721444  0  2.30225  0  0  -0.748921  0  2.285188  0  0  -0.334781  -0.701894  0  2.313523  0
O  O46  1  0.73617805  0.84571467  0.61014754  1  0  -0.826038  0  2.037848  0  -1.46628  0  -0.721463  0  2.302263  0  0  -0.748949  0  2.285213  0  0  -0.334755  -0.70191  0  2.313535  0
O  O47  1  0.73617828  0.34571523  0.88985264  1  0  -0.825976  0  2.037815  0  -1.466285  0  -0.721401  0  2.302231  0  0  -0.748886  0  2.285175  0  0  -0.334761  -0.701848  0  2.3135  0
O  O48  1  0.73117172  0.25937184  0.34534876  1  0  -0.795094  0  2.033473  0  -1.454774  0  -0.691412  0  2.293833  0  0  -0.718336  0  2.277017  0  0  -0.332382  -0.672368  0  2.30497  0
O  O49  1  0.73117300  0.75937151  0.15465139  1  0  -0.795106  0  2.033509  0  -1.454777  0  -0.691408  0  2.293856  0  0  -0.718328  0  2.277032  0  0  -0.332389  -0.672363  0  2.304993  0
O  O50  1  0.26882843  0.74062698  0.65465300  1  0  -0.795121  0  2.033482  0  -1.454595  0  -0.691402  0  2.2938  0  0  -0.718329  0  2.27699  0  0  -0.332408  -0.672357  0  2.304936  0
O  O51  1  0.26882922  0.24062730  0.84534694  1  0  -0.795129  0  2.033424  0  -1.454588  0  -0.691422  0  2.293753  0  0  -0.718347  0  2.276938  0  0  -0.332458  -0.672376  0  2.304886  0
O  O52  1  0.58671225  0.95036450  0.35049007  1  0  -0.825831  0  2.044742  0  -1.463487  0  -0.722012  0  2.315877  0  0  -0.750523  0  2.299831  0  0  -0.340115  -0.701853  0  2.326583  0
O  O53  1  0.58671584  0.45036626  0.14950901  1  0  -0.825827  0  2.044767  0  -1.463475  0  -0.721993  0  2.315885  0  0  -0.750508  0  2.299844  0  0  -0.34012  -0.701839  0  2.326595  0
O  O54  1  0.41329814  0.04963307  0.64950954  1  0  -0.825799  0  2.044766  0  -1.463457  0  -0.721966  0  2.315863  0  0  -0.750467  0  2.299807  0  0  -0.340084  -0.701801  0  2.326564  0
O  O55  1  0.41329485  0.54963377  0.85049146  1  0  -0.825794  0  2.044823  0  -1.463462  0  -0.721921  0  2.315881  0  0  -0.750446  0  2.299847  0  0  -0.340063  -0.701765  0  2.326591  0
O  O56  1  0.54828606  0.09958012  0.12184310  1  0  -0.677225  0  2.116774  0  -1.243132  0  -0.594514  0  2.371967  0  0  -0.62313  0  2.36392  0  0  -0.282986  -0.574281  0  2.376928  0
O  O57  1  0.54826801  0.59958221  0.37815661  1  0  -0.677151  0  2.116617  0  -1.24327  0  -0.594492  0  2.371873  0  0  -0.623108  0  2.36384  0  0  -0.282936  -0.574258  0  2.376832  0
O  O58  1  0.45171246  0.90042238  0.87815780  1  0  -0.677081  0  2.116773  0  -1.24313  0  -0.594361  0  2.372036  0  0  -0.622974  0  2.363993  0  0  -0.282886  -0.574129  0  2.376978  0
O  O59  1  0.45172248  0.40042275  0.62184343  1  0  -0.677104  0  2.116646  0  -1.243034  0  -0.594405  0  2.371897  0  0  -0.623024  0  2.363867  0  0  -0.282927  -0.574168  0  2.376852  0
O  O60  1  0.18938426  0.98046771  0.17051920  1  0  -0.602903  0  2.065867  0  -1.213751  0  -0.521827  0  2.3088  0  0  -0.5509  0  2.302202  0  0  -0.269177  -0.501621  0  2.312824  0
O  O61  1  0.18937234  0.48046430  0.32948056  1  0  -0.603032  0  2.065886  0  -1.213516  0  -0.52192  0  2.308793  0  0  -0.550905  0  2.302124  0  0  -0.269155  -0.501713  0  2.312815  0
O  O62  1  0.81062213  0.01953109  0.82948170  1  0  -0.602962  0  2.065925  0  -1.213665  0  -0.521778  0  2.308823  0  0  -0.55084  0  2.302238  0  0  -0.269171  -0.501579  0  2.312839  0
O  O63  1  0.81062959  0.51953206  0.67051863  1  0  -0.603006  0  2.065863  0  -1.213463  0  -0.521877  0  2.3088  0  0  -0.550868  0  2.302138  0  0  -0.26917  -0.50167  0  2.31282  0
O  O64  1  0.79079969  0.08397733  0.46235590  1  0  -0.587978  0  2.182765  0  -1.214034  0  -0.506298  0  2.424737  0  0  -0.534333  0  2.420339  0  0  -0.245823  -0.486737  0  2.427249  0
O  O65  1  0.79079638  0.58397763  0.03764237  1  0  -0.587971  0  2.182752  0  -1.213952  0  -0.506282  0  2.424796  0  0  -0.534291  0  2.420332  0  0  -0.245849  -0.486722  0  2.427305  0
O  O66  1  0.20920995  0.91603127  0.53764200  1  0  -0.587759  0  2.183185  0  -1.214457  0  -0.506194  0  2.425304  0  0  -0.534165  0  2.42077  0  0  -0.245741  -0.486635  0  2.427801  0
O  O67  1  0.20920272  0.41602976  0.96235767  1  0  -0.587789  0  2.183052  0  -1.213346  0  -0.50625  0  2.425248  0  0  -0.534194  0  2.420667  0  0  -0.245801  -0.486689  0  2.427751  0
O  O68  1  0.51739287  0.20438858  0.52533263  1  0  -0.574937  0  2.137834  0  -1.1923  0  -0.502849  0  2.387821  0  0  -0.528848  0  2.383241  0  0  -0.252788  -0.484676  0  2.390518  0
O  O69  1  0.51738562  0.70438747  0.97466671  1  0  -0.575015  0  2.13783  0  -1.192329  0  -0.502895  0  2.387824  0  0  -0.528914  0  2.383266  0  0  -0.252833  -0.484723  0  2.39052  0
O  O70  1  0.48260222  0.79562005  0.47467041  1  0  -0.575005  0  2.137873  0  -1.192709  0  -0.502929  0  2.387848  0  0  -0.528915  0  2.38325  0  0  -0.252872  -0.484758  0  2.390539  0
O  O71  1  0.48260101  0.29561994  0.02532862  1  0  -0.574978  0  2.137886  0  -1.192132  0  -0.502926  0  2.387881  0  0  -0.528881  0  2.383274  0  0  -0.252864  -0.484742  0  2.39057  0
