# generated using pymatgen
data_ZnH24C31(NO4)2
_symmetry_space_group_name_H-M   'P 1'
_cell_length_a   9.48807500
_cell_length_b   10.99368827
_cell_length_c   28.02092314
_cell_angle_alpha   88.08832978
_cell_angle_beta   87.75004360
_cell_angle_gamma   89.09387244
_symmetry_Int_Tables_number   1
_chemical_formula_structural   ZnH24C31(NO4)2
_chemical_formula_sum   'Zn2 H48 C62 N4 O16'
_cell_volume   2918.64609373
_cell_formula_units_Z   2
loop_
 _symmetry_equiv_pos_site_id
 _symmetry_equiv_pos_as_xyz
  1  'x, y, z'
loop_
 _atom_site_type_symbol
 _atom_site_label
 _atom_site_symmetry_multiplicity
 _atom_site_fract_x
 _atom_site_fract_y
 _atom_site_fract_z
 _atom_site_occupancy
 _atom_site_pbe_bader_charge
 _atom_site_pbe_bader_spin_density
 _atom_site_pbe_cm5_charge
 _atom_site_pbe_ddec_charge
 _atom_site_pbe_ddec_spin_density
 _atom_site_pbe_ddec_sum_bond_order
 _atom_site_pbe_magmom
Zn  Zn0  1  0.64187127  0.50379289  0.49699966  1  1.275418  0  0.663191  0.794077  0  2.493027  0
Zn  Zn1  1  0.36003922  0.50727844  0.50233819  1  1.256042  0  0.663207  0.793358  0  2.494422  0
H  H2  1  0.71814629  0.55827471  0.34312985  1  0.095645  0  0.104647  0.118826  0  1.028225  0
H  H3  1  0.27519734  0.42373285  0.65533507  1  0.092307  0  0.107164  0.121396  0  1.009956  0
H  H4  1  0.71871152  0.49714365  0.64805156  1  0.092385  0  0.102457  0.106287  0  1.008219  0
H  H5  1  0.27230239  0.50228017  0.35283043  1  0.066112  0  0.101153  0.105538  0  1.012142  0
H  H6  1  0.71963278  0.49481528  0.73790547  1  0.096094  0  0.108023  0.113348  0  0.985426  0
H  H7  1  0.26922165  0.48943096  0.26325510  1  0.044253  0  0.106743  0.111807  0  0.984551  0
H  H8  1  0.43030118  0.76652237  0.86749876  1  0.12008  0  0.113312  0.11677  0  0.995764  0
H  H9  1  0.52469650  0.20052564  0.13300898  1  0.114997  0  0.110929  0.112778  0  1.013319  0
H  H10  1  0.42831886  0.78376504  0.95567416  1  0.05551  0  0.099559  0.094641  0  1.029574  0
H  H11  1  0.52696721  0.18166848  0.04493951  1  0.073671  0  0.098614  0.092538  0  1.039661  0
H  H12  1  0.45512178  0.79519516  0.02291817  1  0.055281  0  0.10409  0.11045  0  1.039091  0
H  H13  1  0.54268376  0.17533519  0.97657317  1  0.102814  0  0.102527  0.107462  0  1.060876  0
H  H14  1  0.27835264  0.89398402  0.50537276  1  0.067938  0  0.102308  0.105606  0  1.004359  0
H  H15  1  0.73120430  0.11692743  0.49245949  1  0.088415  0  0.102043  0.105738  0  1.004965  0
H  H16  1  0.27883737  0.12319268  0.49848694  1  0.083143  0  0.101835  0.104435  0  1.006225  0
H  H17  1  0.73078851  0.88781480  0.49920305  1  0.089638  0  0.101359  0.10439  0  1.006531  0
H  H18  1  0.12936282  0.37987529  0.55751170  1  0.151404  0  0.140941  0.123097  0  0.961407  0
H  H19  1  0.87224795  0.63355039  0.44298988  1  0.153662  0  0.140993  0.121518  0  0.960665  0
H  H20  1  0.14354833  0.63682958  0.44586194  1  0.152211  0  0.141285  0.123901  0  0.963801  0
H  H21  1  0.85814852  0.37490166  0.55405309  1  0.159938  0  0.141393  0.123377  0  0.962446  0
H  H22  1  0.94810020  0.57297267  0.24259351  1  0.038303  0  0.104144  0.070089  0  0.962391  0
H  H23  1  0.86246123  0.62257387  0.29609809  1  0.024379  0  0.09988  0.061083  0  0.999355  0
H  H24  1  0.83138216  0.74106672  0.19636657  1  0.008719  0  0.088775  0.079708  0  0.98792  0
H  H25  1  0.74087786  0.79015728  0.24856943  1  0.060634  0  0.097141  0.098285  0  0.967854  0
H  H26  1  0.97318031  0.83885980  0.28476116  1  0.00764  0  0.086866  0.111211  0  1.001777  0
H  H27  1  0.95703518  0.91752159  0.22905014  1  0.027648  0  0.089796  0.118184  0  0.997754  0
H  H28  1  0.06646505  0.78561208  0.23325831  1  0.032475  0  0.086644  0.112502  0  1.004239  0
H  H29  1  0.24331074  0.22807510  0.75573896  1  0.051435  0  0.100937  0.069557  0  0.970515  0
H  H30  1  0.14739704  0.29969423  0.70853688  1  0.055237  0  0.095859  0.054579  0  0.984826  0
H  H31  1  0.07529936  0.33243323  0.81489073  1  0.018904  0  0.090414  0.081986  0  0.973699  0
H  H32  1  0.97615126  0.38873623  0.76665047  1  0.016329  0  0.090069  0.080257  0  0.981128  0
H  H33  1  0.93102650  0.16956920  0.74366484  1  0.04103  0  0.088698  0.116055  0  0.996996  0
H  H34  1  0.86424177  0.20011423  0.80186721  1  0.043399  0  0.08706  0.119029  0  1.006928  0
H  H35  1  0.02541325  0.11681086  0.79392603  1  0.026862  0  0.084248  0.106708  0  1.00778  0
H  H36  1  0.49043649  0.01065988  0.11220641  1  0.045669  0  0.112832  0.087253  0  0.966871  0
H  H37  1  0.53572818  0.94114653  0.05700587  1  0.025122  0  0.086576  0.033936  0  1.022536  0
H  H38  1  0.68750898  0.89996973  0.15109911  1  0.043641  0  0.104139  0.108871  0  0.9659  0
H  H39  1  0.72846509  0.82088375  0.09833528  1  0.009009  0  0.089951  0.081094  0  0.982757  0
H  H40  1  0.78931307  0.02015407  0.05444001  1  0.027673  0  0.079816  0.100137  0  1.027837  0
H  H41  1  0.89516405  0.99298230  0.10458301  1  0.052053  0  0.093276  0.124602  0  0.991715  0
H  H42  1  0.75317802  0.09917489  0.10799250  1  0.045218  0  0.0875  0.117246  0  1.013351  0
H  H43  1  0.55932223  0.95857329  0.88670940  1  0.10228  0  0.117446  0.093217  0  0.951884  0
H  H44  1  0.50856581  0.02155831  0.94251385  1  -0.008698  0  0.094285  0.049476  0  0.998866  0
H  H45  1  0.80155973  0.03679851  0.89174021  1  0.058006  0  0.103146  0.104107  0  0.960502  0
H  H46  1  0.75835018  0.10231470  0.94717037  1  0.014837  0  0.089762  0.081903  0  0.993272  0
H  H47  1  0.70534739  0.89231286  0.98379752  1  0.028076  0  0.079183  0.097484  0  1.036751  0
H  H48  1  0.88084750  0.90019568  0.96001700  1  0.018227  0  0.092215  0.122081  0  0.99261  0
H  H49  1  0.75023148  0.82696353  0.92807888  1  0.033992  0  0.089816  0.119279  0  1.000393  0
C  C50  1  0.50458213  0.74236819  0.50552402  1  1.528803  0  0.216046  0.594141  0  4.165036  0
C  C51  1  0.50483404  0.26858571  0.49288878  1  1.543051  0  0.216087  0.593048  0  4.165835  0
C  C52  1  0.50047844  0.53326677  0.40564821  1  1.522394  0  0.215757  0.595559  0  4.15918  0
C  C53  1  0.49408643  0.47072034  0.59349868  1  1.582458  0  0.215686  0.596455  0  4.156906  0
C  C54  1  0.48246940  0.62371731  0.17635962  1  1.311098  0  0.240451  0.4543  0  4.087729  0
C  C55  1  0.50746196  0.34716902  0.82285374  1  1.361613  0  0.238999  0.454657  0  4.090789  0
C  C56  1  0.50217258  0.39587828  0.18316695  1  1.343898  0  0.238363  0.440589  0  4.114601  0
C  C57  1  0.47324528  0.57397090  0.81683306  1  1.327765  0  0.238399  0.440986  0  4.120274  0
C  C58  1  0.36686436  0.50566269  0.28114445  1  0.04564  0  -0.084149  -0.132638  0  4.012415  0
C  C59  1  0.62348898  0.47768321  0.71930683  1  -0.036345  0  -0.083836  -0.134768  0  4.000223  0
C  C60  1  0.36812683  0.51317753  0.33058216  1  -0.03391  0  -0.094874  -0.110063  0  4.005308  0
C  C61  1  0.62322873  0.47878071  0.66969153  1  -0.036385  0  -0.089452  -0.098848  0  3.993138  0
C  C62  1  0.62103200  0.54594575  0.32459356  1  -0.052642  0  -0.098012  -0.215934  0  3.961922  0
C  C63  1  0.37254556  0.43613132  0.67382270  1  0.066446  0  -0.090077  -0.19808  0  3.952182  0
C  C64  1  0.61997534  0.53977396  0.27490083  1  0.487346  0  0.092867  0.200393  0  4.042059  0
C  C65  1  0.37286578  0.43312484  0.72364940  1  0.475956  0  0.090117  0.193983  0  4.045233  0
C  C66  1  0.49112191  0.51867931  0.25359388  1  0.365849  0  0.083145  0.096755  0  4.008595  0
C  C67  1  0.49920188  0.45577565  0.74601511  1  0.31922  0  0.086726  0.106174  0  4.008217  0
C  C68  1  0.48870041  0.50093975  0.10179310  1  -0.022826  0  0.005767  0.055232  0  3.992515  0
C  C69  1  0.48906400  0.46744003  0.89779957  1  0.03925  0  0.003881  0.053531  0  3.999199  0
C  C70  1  0.47749592  0.61606618  0.12376108  1  0.077443  0  -0.020712  -0.18492  0  3.943298  0
C  C71  1  0.50849870  0.35352672  0.87550318  1  -0.023304  0  -0.023231  -0.190148  0  3.943241  0
C  C72  1  0.46693521  0.72103236  0.09407242  1  0.492429  0  0.103774  0.269187  0  4.052178  0
C  C73  1  0.52854171  0.24825861  0.90487369  1  0.511399  0  0.108673  0.27589  0  4.034384  0
C  C74  1  0.50172599  0.39302272  0.13047467  1  0.040177  0  -0.011448  -0.066786  0  3.985507  0
C  C75  1  0.46967859  0.57544060  0.86948726  1  0.04405  0  -0.011174  -0.065642  0  3.983447  0
C  C76  1  0.49590400  0.53256380  0.35226655  1  0.086362  0  -0.015576  -0.003654  0  3.985951  0
C  C77  1  0.49703997  0.45973184  0.64688048  1  -0.006585  0  -0.015394  -0.011448  0  3.980726  0
C  C78  1  0.46992223  0.59212292  0.96990678  1  -0.051858  0  0.001768  0.042219  0  3.978255  0
C  C79  1  0.50413523  0.37535273  0.02976311  1  0.025039  0  0.002328  0.04368  0  3.961462  0
C  C80  1  0.50698758  0.36812953  0.97750612  1  -0.050405  0  0.004051  0.069276  0  3.999745  0
C  C81  1  0.47556954  0.60015293  0.02186505  1  0.072053  0  0.00391  0.065806  0  4.002397  0
C  C82  1  0.48857692  0.47649581  0.94873524  1  0.008958  0  -0.004617  -0.018866  0  3.936639  0
C  C83  1  0.48946247  0.49151072  0.05086959  1  -0.048967  0  -0.002422  -0.013441  0  3.924518  0
C  C84  1  0.44696527  0.69502255  0.94031827  1  -0.027505  0  -0.09047  -0.132971  0  4.005996  0
C  C85  1  0.51625119  0.27173300  0.05984566  1  -0.071183  0  -0.090109  -0.131895  0  3.99139  0
C  C86  1  0.44719697  0.68666619  0.89084849  1  -0.073883  0  -0.073343  -0.078916  0  3.997672  0
C  C87  1  0.51499250  0.28071330  0.10933983  1  -0.045079  0  -0.073341  -0.08002  0  3.999669  0
C  C88  1  0.46666371  0.71120083  0.04411809  1  -0.068654  0  -0.09745  -0.249512  0  3.966808  0
C  C89  1  0.52702295  0.25795269  0.95499847  1  -0.004343  0  -0.104022  -0.265558  0  3.97696  0
C  C90  1  0.37666586  0.94402308  0.50245897  1  0.00042  0  -0.085105  -0.095774  0  3.985175  0
C  C91  1  0.63286443  0.06691687  0.49527296  1  -0.028653  0  -0.084712  -0.095803  0  3.983452  0
C  C92  1  0.37693479  0.07038582  0.49869914  1  -0.051919  0  -0.085531  -0.095107  0  3.986139  0
C  C93  1  0.63260784  0.94053779  0.49897966  1  -0.052768  0  -0.085376  -0.095983  0  3.984555  0
C  C94  1  0.50496785  0.13253965  0.49519692  1  0.018708  0  -0.014302  -0.023569  0  3.961861  0
C  C95  1  0.50450767  0.87839689  0.50263515  1  -0.017449  0  -0.014417  -0.023276  0  3.961422  0
C  C96  1  0.06996842  0.43529915  0.53208596  1  0.504372  0  0.081367  0.062043  0  3.864279  0
C  C97  1  0.93168105  0.57731063  0.46815116  1  0.526178  0  0.081111  0.063621  0  3.868259  0
C  C98  1  0.07781221  0.57972067  0.46989801  1  0.499209  0  0.080248  0.061288  0  3.867206  0
C  C99  1  0.92386136  0.43248604  0.53018840  1  0.499463  0  0.081654  0.064177  0  3.864619  0
C  C100  1  0.85352919  0.62017826  0.25710560  1  0.45728  0  -0.061547  0.039072  0  3.890031  0
C  C101  1  0.84031115  0.74830860  0.23522242  1  -0.033386  0  -0.169962  -0.141785  0  3.989595  0
C  C102  1  0.96607832  0.82654320  0.24614753  1  -0.047002  0  -0.241391  -0.35123  0  3.984066  0
C  C103  1  0.17536437  0.30691697  0.74618591  1  0.379251  0  -0.064259  0.038624  0  3.888923  0
C  C104  1  0.04351125  0.31203794  0.77865864  1  0.016547  0  -0.167207  -0.126226  0  3.996304  0
C  C105  1  0.96177044  0.19315709  0.77960291  1  -0.095066  0  -0.241999  -0.354041  0  3.98093  0
C  C106  1  0.53852344  0.92921956  0.09633835  1  0.425751  0  -0.059685  0.04254  0  3.88073  0
C  C107  1  0.68933296  0.90867290  0.11188099  1  0.011026  0  -0.168055  -0.144024  0  3.972762  0
C  C108  1  0.78669351  0.01096446  0.09371323  1  -0.110807  0  -0.242189  -0.351494  0  3.973492  0
C  C109  1  0.58138142  0.03183296  0.91094300  1  0.421821  0  -0.058933  0.033389  0  3.882708  0
C  C110  1  0.73519255  0.02549619  0.92463326  1  -0.015318  0  -0.168127  -0.145681  0  3.986048  0
C  C111  1  0.76972190  0.90469147  0.95048966  1  -0.072004  0  -0.240905  -0.348198  0  3.97467  0
N  N112  1  0.48828245  0.51136685  0.20249341  1  -1.17406  0  -0.233191  -0.215259  0  3.628433  0
N  N113  1  0.49833659  0.45997976  0.79721037  1  -1.176962  0  -0.234439  -0.217964  0  3.631901  0
N  N114  1  0.85714847  0.50347051  0.49820680  1  -1.194246  0  -0.295342  -0.136104  0  3.515445  0
N  N115  1  0.14457910  0.50866986  0.50185727  1  -1.200879  0  -0.294386  -0.133882  0  3.512789  0
O  O116  1  0.62418840  0.68794671  0.50349575  1  -1.165722  0  -0.320132  -0.549852  0  2.33636  0
O  O117  1  0.38532109  0.32322940  0.49388851  1  -1.162738  0  -0.319709  -0.548805  0  2.32729  0
O  O118  1  0.62439448  0.32035093  0.49081239  1  -1.158679  0  -0.321304  -0.548065  0  2.326781  0
O  O119  1  0.38531073  0.69027602  0.50921340  1  -1.159735  0  -0.319989  -0.547745  0  2.321655  0
O  O120  1  0.62135956  0.53088106  0.42405003  1  -1.151631  0  -0.320909  -0.549058  0  2.30569  0
O  O121  1  0.37355544  0.47406734  0.57482001  1  -1.164837  0  -0.320469  -0.548864  0  2.312372  0
O  O122  1  0.61242376  0.47795960  0.57050125  1  -1.177388  0  -0.318207  -0.556773  0  2.329525  0
O  O123  1  0.38241017  0.53402563  0.42899352  1  -1.17907  0  -0.318653  -0.556168  0  2.338416  0
O  O124  1  0.48188518  0.71889742  0.19813439  1  -1.086096  0  -0.271643  -0.433969  0  2.114449  0
O  O125  1  0.51532339  0.25270861  0.80051281  1  -1.096832  0  -0.276428  -0.437308  0  2.104045  0
O  O126  1  0.45677823  0.66615323  0.79135977  1  -1.100682  0  -0.288077  -0.445345  0  2.050662  0
O  O127  1  0.51384367  0.30346396  0.20885724  1  -1.10475  0  -0.287674  -0.443824  0  2.048794  0
O  O128  1  0.73664972  0.54646629  0.24478479  1  -1.07678  0  -0.190674  -0.214769  0  2.532392  0
O  O129  1  0.25361966  0.41683191  0.75234716  1  -1.066466  0  -0.201061  -0.234115  0  2.52143  0
O  O130  1  0.44795795  0.83193748  0.11357836  1  -1.054569  0  -0.180883  -0.198166  0  2.532837  0
O  O131  1  0.54752258  0.14070537  0.88354868  1  -1.043414  0  -0.158844  -0.165539  0  2.572857  0
