# generated using pymatgen
data_TbH18C12N6ClO8
_symmetry_space_group_name_H-M   'P 1'
_cell_length_a   8.39870756
_cell_length_b   10.80254030
_cell_length_c   11.75031712
_cell_angle_alpha   63.94289708
_cell_angle_beta   84.68395641
_cell_angle_gamma   88.84378384
_symmetry_Int_Tables_number   1
_chemical_formula_structural   TbH18C12N6ClO8
_chemical_formula_sum   'Tb2 H36 C24 N12 Cl2 O16'
_cell_volume   953.34575635
_cell_formula_units_Z   2
loop_
 _symmetry_equiv_pos_site_id
 _symmetry_equiv_pos_as_xyz
  1  'x, y, z'
loop_
 _atom_site_type_symbol
 _atom_site_label
 _atom_site_symmetry_multiplicity
 _atom_site_fract_x
 _atom_site_fract_y
 _atom_site_fract_z
 _atom_site_occupancy
 _atom_site_hle17_bader_spin_density
 _atom_site_hle17_ddec_charge
 _atom_site_hle17_ddec_spin_density
 _atom_site_hle17_ddec_sum_bond_order
 _atom_site_hle17_magmom
 _atom_site_hse06_10hf_bader_spin_density
 _atom_site_hse06_10hf_ddec_charge
 _atom_site_hse06_10hf_ddec_spin_density
 _atom_site_hse06_10hf_ddec_sum_bond_order
 _atom_site_hse06_10hf_magmom
 _atom_site_hse06_bader_spin_density
 _atom_site_hse06_ddec_charge
 _atom_site_hse06_ddec_spin_density
 _atom_site_hse06_ddec_sum_bond_order
 _atom_site_hse06_magmom
 _atom_site_pbe_bader_spin_density
 _atom_site_pbe_cm5_charge
 _atom_site_pbe_ddec_charge
 _atom_site_pbe_ddec_spin_density
 _atom_site_pbe_ddec_sum_bond_order
 _atom_site_pbe_magmom
Tb  Tb0  1  0.42369453  0.45547916  0.18080962  1  0  2.236909  0  1.699409  0  0  2.104399  0  2.161264  0  0  2.2181  0  1.992827  0  0  1.419814  2.065857  0  2.197584  0
Tb  Tb1  1  0.57630495  0.54452104  0.81918969  1  0  2.236909  0  1.699406  0  0  2.104386  0  2.161283  0  0  2.218106  0  1.992827  0  0  1.419812  2.06585  0  2.197603  0
H  H2  1  0.31561835  0.19020654  0.94601438  1  0  0.108348  0  0.928825  0  0  0.108995  0  1.005147  0  0  0.111363  0  1.00242  0  0  0.116389  0.107561  0  1.006813  0
H  H3  1  0.68438237  0.80979468  0.05398529  1  0  0.108351  0  0.92881  0  0  0.109  0  1.005131  0  0  0.111366  0  1.002404  0  0  0.116387  0.107568  0  1.006798  0
H  H4  1  0.47350789  0.09493305  0.03496245  1  0  0.107102  0  0.952489  0  0  0.108538  0  1.028115  0  0  0.110967  0  1.025383  0  0  0.115796  0.106848  0  1.030099  0
H  H5  1  0.52649159  0.90506715  0.96503686  1  0  0.107058  0  0.952513  0  0  0.108522  0  1.02811  0  0  0.110951  0  1.025377  0  0  0.115788  0.106834  0  1.030098  0
H  H6  1  0.08216193  0.78469585  0.80393718  1  0  0.104836  0  0.909418  0  0  0.11321  0  0.971781  0  0  0.115648  0  0.968753  0  0  0.118249  0.111594  0  0.973686  0
H  H7  1  0.91783763  0.21530641  0.19606216  1  0  0.104799  0  0.909434  0  0  0.113197  0  0.971757  0  0  0.115634  0  0.968729  0  0  0.118262  0.111585  0  0.973661  0
H  H8  1  0.97109991  0.62469706  0.86706361  1  0  0.132041  0  0.932227  0  0  0.139127  0  0.993935  0  0  0.142032  0  0.992454  0  0  0.12661  0.137015  0  0.995172  0
H  H9  1  0.02890324  0.37530517  0.13293719  1  0  0.132102  0  0.932168  0  0  0.139143  0  0.993913  0  0  0.142053  0  0.992437  0  0  0.126613  0.137031  0  0.995154  0
H  H10  1  0.07690891  0.57847696  0.28674035  1  0  0.036105  0  0.968893  0  0  0.039303  0  1.049431  0  0  0.040586  0  1.044763  0  0  0.117601  0.038199  0  1.052968  0
H  H11  1  0.92308939  0.42152324  0.71326074  1  0  0.036119  0  0.968887  0  0  0.039316  0  1.049415  0  0  0.040602  0  1.044749  0  0  0.117616  0.038214  0  1.052951  0
H  H12  1  0.77615124  0.24939218  0.42851706  1  0  0.105709  0  0.957017  0  0  0.125816  0  1.019958  0  0  0.12686  0  1.019669  0  0  0.107167  0.125106  0  1.019997  0
H  H13  1  0.22384938  0.75060595  0.57148470  1  0  0.105726  0  0.956998  0  0  0.125801  0  1.019968  0  0  0.126847  0  1.019676  0  0  0.107159  0.125091  0  1.020008  0
H  H14  1  0.87196475  0.23229059  0.56483760  1  0  0.103906  0  0.929746  0  0  0.120189  0  0.998074  0  0  0.120902  0  0.997263  0  0  0.101345  0.119568  0  0.998721  0
H  H15  1  0.12803584  0.76770651  0.43516458  1  0  0.103915  0  0.929784  0  0  0.120202  0  0.998085  0  0  0.120914  0  0.997274  0  0  0.101355  0.119581  0  0.998731  0
H  H16  1  0.98596195  0.21540715  0.43551936  1  0  0.109251  0  0.951788  0  0  0.127519  0  1.014675  0  0  0.129652  0  1.013112  0  0  0.110456  0.125976  0  1.015748  0
H  H17  1  0.01403866  0.78459098  0.56448155  1  0  0.109262  0  0.951785  0  0  0.127527  0  1.01466  0  0  0.12966  0  1.013096  0  0  0.110462  0.125984  0  1.015732  0
H  H18  1  0.84538184  0.61493704  0.35794908  1  0  0.105741  0  0.948568  0  0  0.123441  0  1.015481  0  0  0.1244  0  1.014929  0  0  0.106511  0.122714  0  1.015821  0
H  H19  1  0.15461999  0.38506107  0.64205345  1  0  0.10576  0  0.948578  0  0  0.123468  0  1.015473  0  0  0.124429  0  1.01492  0  0  0.106533  0.122741  0  1.015816  0
H  H20  1  0.76066403  0.48080893  0.50674608  1  0  0.101233  0  0.964559  0  0  0.118034  0  1.033632  0  0  0.118827  0  1.033448  0  0  0.095031  0.117429  0  1.033513  0
H  H21  1  0.23933661  0.51918918  0.49325739  1  0  0.101281  0  0.964561  0  0  0.118066  0  1.033647  0  0  0.118861  0  1.033465  0  0  0.09505  0.11746  0  1.033531  0
H  H22  1  0.69546775  0.49915059  0.36024743  1  0  0.100817  0  0.968716  0  0  0.114684  0  1.042348  0  0  0.115678  0  1.042768  0  0  0.103915  0.11334  0  1.043352  0
H  H23  1  0.30453285  0.50084650  0.63975646  1  0  0.100778  0  0.968768  0  0  0.114631  0  1.042415  0  0  0.115623  0  1.04284  0  0  0.1039  0.113291  0  1.043415  0
H  H24  1  0.48990114  0.30629106  0.56224049  1  0  0.053217  0  0.944018  0  0  0.066239  0  1.005249  0  0  0.067325  0  1.001234  0  0  0.119248  0.065458  0  1.007555  0
H  H25  1  0.51009831  0.69370811  0.43775924  1  0  0.053172  0  0.94407  0  0  0.066214  0  1.005274  0  0  0.067303  0  1.001246  0  0  0.119235  0.065431  0  1.00758  0
H  H26  1  0.38609306  0.97897747  0.74860803  1  0  0.108177  0  0.931205  0  0  0.127297  0  0.994057  0  0  0.128257  0  0.993621  0  0  0.106172  0.126503  0  0.994431  0
H  H27  1  0.61390515  0.02102068  0.25139134  1  0  0.108184  0  0.931205  0  0  0.127288  0  0.994071  0  0  0.128248  0  0.993635  0  0  0.106171  0.126481  0  0.99446  0
H  H28  1  0.21010933  0.07757950  0.73462680  1  0  0.096899  0  0.970548  0  0  0.106751  0  1.052131  0  0  0.107932  0  1.050737  0  0  0.096266  0.10586  0  1.053078  0
H  H29  1  0.78988891  0.92241969  0.26537130  1  0  0.096869  0  0.97059  0  0  0.106713  0  1.052177  0  0  0.107894  0  1.050783  0  0  0.09622  0.105822  0  1.053122  0
H  H30  1  0.39909947  0.14822843  0.74019729  1  0  0.112567  0  0.960602  0  0  0.130468  0  1.027587  0  0  0.131711  0  1.026847  0  0  0.10037  0.129492  0  1.028029  0
H  H31  1  0.60089994  0.85176971  0.25980200  1  0  0.112525  0  0.960676  0  0  0.130444  0  1.027634  0  0  0.131686  0  1.026896  0  0  0.100359  0.129468  0  1.028075  0
H  H32  1  0.32746413  0.11665574  0.40490407  1  0  0.136976  0  0.96281  0  0  0.152048  0  1.028456  0  0  0.155082  0  1.025698  0  0  0.118712  0.149682  0  1.030811  0
H  H33  1  0.67253414  0.88334448  0.59509362  1  0  0.136936  0  0.962825  0  0  0.152007  0  1.028478  0  0  0.155041  0  1.025721  0  0  0.118687  0.149642  0  1.030832  0
H  H34  1  0.17098075  0.05244694  0.53193358  1  0  0.093714  0  0.929514  0  0  0.118965  0  0.986142  0  0  0.118897  0  0.986463  0  0  0.106947  0.118877  0  0.98607  0
H  H35  1  0.82901749  0.94755224  0.46806537  1  0  0.093687  0  0.929516  0  0  0.118928  0  0.986157  0  0  0.118859  0  0.986478  0  0  0.106952  0.118841  0  0.986084  0
H  H36  1  0.35162731  0.96000721  0.54657679  1  0  0.098241  0  0.94063  0  0  0.120103  0  1.002365  0  0  0.120263  0  1.003022  0  0  0.107234  0.119956  0  1.001804  0
H  H37  1  0.64837216  0.03999300  0.45342167  1  0  0.098197  0  0.940619  0  0  0.120063  0  1.00235  0  0  0.120221  0  1.00301  0  0  0.107225  0.119916  0  1.001789  0
C  C38  1  0.38399518  0.25374616  0.08439062  1  0  0.728841  0  3.828351  0  0  0.681366  0  4.126727  0  0  0.715548  0  4.122289  0  0  0.218786  0.657859  0  4.133618  0
C  C39  1  0.61600430  0.74625404  0.91560869  1  0  0.728823  0  3.828516  0  0  0.681385  0  4.12683  0  0  0.715568  0  4.122394  0  0  0.218875  0.657883  0  4.133722  0
C  C40  1  0.35865774  0.14369841  0.04111573  1  0  -0.067222  0  3.561194  0  0  -0.123724  0  3.822442  0  0  -0.119763  0  3.82106  0  0  -0.0595  -0.126258  0  3.822658  0
C  C41  1  0.64134055  0.85630179  0.95888451  1  0  -0.067197  0  3.560949  0  0  -0.123717  0  3.822216  0  0  -0.119754  0  3.820833  0  0  -0.059513  -0.126256  0  3.822407  0
C  C42  1  0.18642996  0.95147945  0.09762262  1  0  0.464856  0  3.823693  0  0  0.421047  0  4.127328  0  0  0.437931  0  4.135086  0  0  0.324887  0.409135  0  4.122293  0
C  C43  1  0.81356959  0.04852281  0.90237587  1  0  0.464803  0  3.823708  0  0  0.421012  0  4.127339  0  0  0.437896  0  4.135098  0  0  0.324899  0.409092  0  4.122306  0
C  C44  1  0.05558981  0.78660970  0.02901070  1  0  0.463283  0  3.813282  0  0  0.41874  0  4.117585  0  0  0.435957  0  4.124853  0  0  0.329251  0.406584  0  4.112985  0
C  C45  1  0.94440971  0.21339152  0.97098990  1  0  0.463181  0  3.813408  0  0  0.418717  0  4.117613  0  0  0.435931  0  4.124885  0  0  0.329267  0.406559  0  4.113015  0
C  C46  1  0.05670488  0.68575531  0.88759024  1  0  -0.073044  0  3.535279  0  0  -0.132602  0  3.797579  0  0  -0.128635  0  3.79446  0  0  -0.059296  -0.135089  0  3.798574  0
C  C47  1  0.94330177  0.31424486  0.11240859  1  0  -0.073092  0  3.535192  0  0  -0.132606  0  3.797511  0  0  -0.128644  0  3.794395  0  0  -0.059343  -0.135104  0  3.798522  0
C  C48  1  0.21097098  0.60699504  0.92532665  1  0  0.738018  0  3.829054  0  0  0.690465  0  4.133638  0  0  0.725549  0  4.125179  0  0  0.232294  0.66689  0  4.141063  0
C  C49  1  0.78903330  0.39300513  0.07467404  1  0  0.738039  0  3.828909  0  0  0.690449  0  4.133536  0  0  0.72553  0  4.125085  0  0  0.232305  0.666873  0  4.140955  0
C  C50  1  0.06413626  0.46538840  0.33011749  1  0  0.40986  0  3.813572  0  0  0.336342  0  4.103156  0  0  0.365488  0  4.105102  0  0  0.17835  0.316834  0  4.103234  0
C  C51  1  0.93586440  0.53461075  0.66988386  1  0  0.409827  0  3.813519  0  0  0.336321  0  4.103101  0  0  0.365465  0  4.105048  0  0  0.178344  0.316815  0  4.103178  0
C  C52  1  0.88717856  0.26890411  0.46097017  1  0  -0.17071  0  3.629472  0  0  -0.266846  0  3.865944  0  0  -0.263488  0  3.875044  0  0  -0.13317  -0.268706  0  3.859294  0
C  C53  1  0.11282203  0.73109298  0.53903201  1  0  -0.170759  0  3.629506  0  0  -0.266856  0  3.865943  0  0  -0.263499  0  3.87504  0  0  -0.133176  -0.268716  0  3.859293  0
C  C54  1  0.79946322  0.50834371  0.40643731  1  0  -0.182454  0  3.643035  0  0  -0.284131  0  3.892148  0  0  -0.281193  0  3.902467  0  0  -0.13668  -0.285666  0  3.884811  0
C  C55  1  0.20053857  0.49165337  0.59356564  1  0  -0.182484  0  3.643076  0  0  -0.284124  0  3.892161  0  0  -0.281191  0  3.902479  0  0  -0.136698  -0.28566  0  3.884824  0
C  C56  1  0.45005535  0.25923515  0.50278509  1  0  0.429082  0  3.780436  0  0  0.357731  0  4.061624  0  0  0.386837  0  4.063019  0  0  0.191463  0.33859  0  4.061281  0
C  C57  1  0.54994409  0.74076402  0.49721378  1  0  0.429121  0  3.780524  0  0  0.357796  0  4.061643  0  0  0.386904  0  4.063041  0  0  0.191497  0.338655  0  4.0613  0
C  C58  1  0.33902529  0.08358687  0.70606069  1  0  -0.187844  0  3.657987  0  0  -0.292354  0  3.913613  0  0  -0.288984  0  3.923559  0  0  -0.140729  -0.294243  0  3.906681  0
C  C59  1  0.66097292  0.91641127  0.29393868  1  0  -0.187791  0  3.658065  0  0  -0.292285  0  3.913664  0  0  -0.288915  0  3.923612  0  0  -0.140691  -0.294165  0  3.906737  0
C  C60  1  0.30132320  0.06370649  0.50827090  1  0  -0.171744  0  3.625396  0  0  -0.272002  0  3.86764  0  0  -0.268303  0  3.876584  0  0  -0.128794  -0.274147  0  3.861311  0
C  C61  1  0.69867504  0.93629269  0.49172720  1  0  -0.171581  0  3.625322  0  0  -0.271821  0  3.867576  0  0  -0.268124  0  3.876519  0  0  -0.128735  -0.273969  0  3.861245  0
N  N62  1  0.26040449  0.93557248  0.99889020  1  0  -0.210684  0  2.999431  0  0  -0.184526  0  3.280981  0  0  -0.19029  0  3.292036  0  0  -0.160529  -0.180503  0  3.273651  0
N  N63  1  0.73959626  0.06442976  0.00110991  1  0  -0.210706  0  2.999504  0  0  -0.18451  0  3.281017  0  0  -0.190272  0  3.29207  0  0  -0.160551  -0.180489  0  3.273684  0
N  N64  1  0.19337749  0.84941962  0.96408391  1  0  -0.210621  0  2.992283  0  0  -0.193435  0  3.279528  0  0  -0.197774  0  3.28963  0  0  -0.159242  -0.190402  0  3.272779  0
N  N65  1  0.80662207  0.15058264  0.03591542  1  0  -0.210614  0  2.992389  0  0  -0.193458  0  3.279622  0  0  -0.197796  0  3.289724  0  0  -0.159265  -0.190419  0  3.272869  0
N  N66  1  0.98616612  0.79598145  0.13350409  1  0  -0.206423  0  2.960827  0  0  -0.189204  0  3.254355  0  0  -0.191957  0  3.259774  0  0  -0.15777  -0.187504  0  3.251303  0
N  N67  1  0.01383346  0.20402184  0.86649483  1  0  -0.206405  0  2.960785  0  0  -0.189197  0  3.254283  0  0  -0.191951  0  3.259705  0  0  -0.157732  -0.187495  0  3.251231  0
N  N68  1  0.05382404  0.88033165  0.16930500  1  0  -0.200407  0  2.942442  0  0  -0.18905  0  3.235911  0  0  -0.190293  0  3.240231  0  0  -0.160181  -0.188215  0  3.233453  0
N  N69  1  0.94617432  0.11967061  0.83069527  1  0  -0.200374  0  2.942432  0  0  -0.189036  0  3.235903  0  0  -0.190278  0  3.24022  0  0  -0.160199  -0.188202  0  3.233448  0
N  N70  1  0.92418700  0.41616966  0.39778615  1  0  -0.072616  0  3.479381  0  0  0.03505  0  3.705616  0  0  0.014857  0  3.7304  0  0  -0.274781  0.048778  0  3.687787  0
N  N71  1  0.07581360  0.58382743  0.60221688  1  0  -0.072574  0  3.479276  0  0  0.035068  0  3.705497  0  0  0.014875  0  3.73028  0  0  -0.274776  0.048795  0  3.687671  0
N  N72  1  0.36692621  0.14160607  0.56808970  1  0  -0.074196  0  3.497644  0  0  0.031315  0  3.728218  0  0  0.011256  0  3.75292  0  0  -0.273321  0.044767  0  3.710595  0
N  N73  1  0.63307320  0.85839207  0.43190959  1  0  -0.074228  0  3.497704  0  0  0.031243  0  3.728309  0  0  0.011183  0  3.753011  0  0  -0.273326  0.044697  0  3.710684  0
Cl  Cl74  1  0.40472367  0.65781181  0.25510635  1  0  -0.7228  0  0.721187  0  0  -0.685924  0  0.948265  0  0  -0.710407  0  0.919278  0  0  -0.377502  -0.675073  0  0.959472  0
Cl  Cl75  1  0.59527462  0.34218839  0.74489390  1  0  -0.722802  0  0.721193  0  0  -0.685923  0  0.948272  0  0  -0.710409  0  0.919283  0  0  -0.3775  -0.675068  0  0.95948  0
O  O76  1  0.33751937  0.23558129  0.19601366  1  0  -0.657237  0  1.97264  0  0  -0.616665  0  2.214839  0  0  -0.645312  0  2.201927  0  0  -0.363061  -0.601069  0  2.222568  0
O  O77  1  0.66248370  0.76441889  0.80398541  1  0  -0.657255  0  1.972681  0  0  -0.616708  0  2.214895  0  0  -0.645357  0  2.201983  0  0  -0.363109  -0.601117  0  2.222626  0
O  O78  1  0.45702587  0.36500500  0.00436686  1  0  -0.829917  0  2.202704  0  0  -0.773883  0  2.465475  0  0  -0.816763  0  2.45642  0  0  -0.428591  -0.753742  0  2.470636  0
O  O79  1  0.54297132  0.63499830  0.99563137  1  0  -0.829881  0  2.202768  0  0  -0.773876  0  2.465562  0  0  -0.816756  0  2.456506  0  0  -0.428652  -0.753726  0  2.470693  0
O  O80  1  0.24235467  0.04338153  0.13198410  1  0  -0.255763  0  2.310054  0  0  -0.193977  0  2.544618  0  0  -0.211814  0  2.544651  0  0  -0.151775  -0.181401  0  2.544194  0
O  O81  1  0.75764607  0.95662073  0.86801430  1  0  -0.255669  0  2.309792  0  0  -0.193945  0  2.544394  0  0  -0.211783  0  2.544429  0  0  -0.151743  -0.181345  0  2.543961  0
O  O82  1  0.97602418  0.70696988  0.99178499  1  0  -0.251146  0  2.302501  0  0  -0.186322  0  2.535644  0  0  -0.204991  0  2.537236  0  0  -0.145377  -0.173012  0  2.53381  0
O  O83  1  0.02397773  0.29303134  0.00821375  1  0  -0.251059  0  2.302569  0  0  -0.186283  0  2.535707  0  0  -0.204952  0  2.537299  0  0  -0.145371  -0.17297  0  2.533879  0
O  O84  1  0.30810663  0.61041559  0.83488135  1  0  -0.701814  0  1.990851  0  0  -0.657555  0  2.244284  0  0  -0.691493  0  2.231194  0  0  -0.384953  -0.639774  0  2.251243  0
O  O85  1  0.69189535  0.38958769  0.16511741  1  0  -0.701821  0  1.990718  0  0  -0.657573  0  2.244207  0  0  -0.691493  0  2.231085  0  0  -0.384956  -0.639788  0  2.251161  0
O  O86  1  0.22570256  0.54387999  0.04370970  1  0  -0.738686  0  2.108737  0  0  -0.692851  0  2.373183  0  0  -0.728813  0  2.36303  0  0  -0.402006  -0.67364  0  2.378285  0
O  O87  1  0.77429936  0.45612122  0.95629074  1  0  -0.738671  0  2.108668  0  0  -0.692826  0  2.373141  0  0  -0.728791  0  2.362991  0  0  -0.401999  -0.673634  0  2.378286  0
O  O88  1  0.17478117  0.39201846  0.31547923  1  0  -0.631467  0  2.134545  0  0  -0.582174  0  2.398348  0  0  -0.614013  0  2.391163  0  0  -0.370567  -0.565194  0  2.401658  0
O  O89  1  0.82521948  0.60798069  0.68452212  1  0  -0.631478  0  2.134499  0  0  -0.582187  0  2.398306  0  0  -0.614029  0  2.391122  0  0  -0.370593  -0.565207  0  2.401616  0
O  O90  1  0.48669691  0.31367435  0.38453242  1  0  -0.668948  0  2.194256  0  0  -0.619952  0  2.47441  0  0  -0.653623  0  2.463188  0  0  -0.401029  -0.602836  0  2.479625  0
O  O91  1  0.51330257  0.68632585  0.61546689  1  0  -0.668966  0  2.19424  0  0  -0.61998  0  2.47437  0  0  -0.653653  0  2.463147  0  0  -0.401057  -0.602866  0  2.479589  0
