# generated using pymatgen
data_AgH11C17N3O4
_symmetry_space_group_name_H-M   'P 1'
_cell_length_a   4.81941053
_cell_length_b   15.98786264
_cell_length_c   19.07700000
_cell_angle_alpha   90.00000000
_cell_angle_beta   92.43005756
_cell_angle_gamma   90.00000000
_symmetry_Int_Tables_number   1
_chemical_formula_structural   AgH11C17N3O4
_chemical_formula_sum   'Ag4 H44 C68 N12 O16'
_cell_volume   1468.60054392
_cell_formula_units_Z   4
loop_
 _symmetry_equiv_pos_site_id
 _symmetry_equiv_pos_as_xyz
  1  'x, y, z'
loop_
 _atom_site_type_symbol
 _atom_site_label
 _atom_site_symmetry_multiplicity
 _atom_site_fract_x
 _atom_site_fract_y
 _atom_site_fract_z
 _atom_site_occupancy
 _atom_site_hle17_bader_spin_density
 _atom_site_hle17_ddec_charge
 _atom_site_hle17_ddec_spin_density
 _atom_site_hle17_ddec_sum_bond_order
 _atom_site_hle17_magmom
 _atom_site_hse06_10hf_bader_spin_density
 _atom_site_hse06_10hf_ddec_charge
 _atom_site_hse06_10hf_ddec_spin_density
 _atom_site_hse06_10hf_ddec_sum_bond_order
 _atom_site_hse06_10hf_magmom
 _atom_site_hse06_bader_spin_density
 _atom_site_hse06_ddec_charge
 _atom_site_hse06_ddec_spin_density
 _atom_site_hse06_ddec_sum_bond_order
 _atom_site_hse06_magmom
 _atom_site_pbe_bader_charge
 _atom_site_pbe_bader_spin_density
 _atom_site_pbe_cm5_charge
 _atom_site_pbe_ddec_charge
 _atom_site_pbe_ddec_spin_density
 _atom_site_pbe_ddec_sum_bond_order
 _atom_site_pbe_magmom
Ag  Ag0  1  0.69937829  0.12473963  0.01583857  1  0  0.522577  0  1.463913  0  0  0.388537  0  1.897759  0  0  0.413813  0  1.859193  0  0.55913  0  0.489415  0.371524  0  1.924142  0
Ag  Ag1  1  0.80062486  0.62474267  0.48416110  1  0  0.522598  0  1.463937  0  0  0.388534  0  1.89778  0  0  0.413808  0  1.859218  0  0.559182  0  0.489431  0.371521  0  1.924161  0
Ag  Ag2  1  0.30062243  0.87525958  0.98415997  1  0  0.52265  0  1.463874  0  0  0.388594  0  1.89772  0  0  0.413871  0  1.859152  0  0.559143  0  0.489441  0.371576  0  1.924105  0
Ag  Ag3  1  0.19937378  0.37526029  0.51583847  1  0  0.522654  0  1.463903  0  0  0.388628  0  1.897705  0  0  0.413907  0  1.859131  0  0.559129  0  0.489457  0.37161  0  1.924091  0
H  H4  1  0.65688675  0.20306779  0.86900716  1  0  0.09084  0  0.955496  0  0  0.096204  0  1.024414  0  0  0.099187  0  1.021609  0  0.129701  0  0.118085  0.09394  0  1.026601  0
H  H5  1  0.84311640  0.70306771  0.63099408  1  0  0.090789  0  0.955478  0  0  0.096161  0  1.024402  0  0  0.099143  0  1.021595  0  0.12969  0  0.118086  0.093897  0  1.026589  0
H  H6  1  0.34311604  0.79693204  0.13099088  1  0  0.090834  0  0.955543  0  0  0.096221  0  1.024437  0  0  0.099213  0  1.021617  0  0.129694  0  0.11809  0.093956  0  1.026625  0
H  H7  1  0.15689055  0.29693400  0.36900662  1  0  0.090842  0  0.955478  0  0  0.096223  0  1.024386  0  0  0.099206  0  1.021602  0  0.129738  0  0.118096  0.093958  0  1.026573  0
H  H8  1  0.84789929  0.17916654  0.75058665  1  0  0.109138  0  0.956267  0  0  0.122209  0  1.009684  0  0  0.124632  0  1.010688  0  0.1203  0  0.111916  0.12044  0  1.009206  0
H  H9  1  0.65209970  0.67916583  0.74941403  1  0  0.10916  0  0.956219  0  0  0.12221  0  1.009659  0  0  0.124611  0  1.01069  0  0.120293  0  0.111914  0.120441  0  1.00918  0
H  H10  1  0.15210973  0.82083330  0.24941198  1  0  0.109094  0  0.956191  0  0  0.122131  0  1.009648  0  0  0.12454  0  1.010668  0  0.120336  0  0.111885  0.120362  0  1.009169  0
H  H11  1  0.34789478  0.32083838  0.25058602  1  0  0.109106  0  0.956256  0  0  0.122166  0  1.009686  0  0  0.124547  0  1.010741  0  0.120347  0  0.111908  0.120397  0  1.009207  0
H  H12  1  0.21118875  0.07003876  0.73652958  1  0  0.114928  0  0.959466  0  0  0.127969  0  1.014392  0  0  0.131283  0  1.01173  0  0.17229  0  0.11657  0.125494  0  1.016441  0
H  H13  1  0.28880538  0.57003930  0.76346989  1  0  0.114936  0  0.959467  0  0  0.127981  0  1.014386  0  0  0.131293  0  1.011729  0  0.172295  0  0.116572  0.125507  0  1.016432  0
H  H14  1  0.78881612  0.92996045  0.26347006  1  0  0.115001  0  0.959341  0  0  0.128042  0  1.014264  0  0  0.131356  0  1.011603  0  0.172259  0  0.116608  0.125571  0  1.016306  0
H  H15  1  0.71119118  0.42996491  0.23652966  1  0  0.115009  0  0.95938  0  0  0.128032  0  1.014316  0  0  0.131348  0  1.011653  0  0.172311  0  0.116597  0.125529  0  1.016398  0
H  H16  1  0.16987477  0.02004771  0.95859897  1  0  0.043774  0  1.021928  0  0  0.045013  0  1.119025  0  0  0.050294  0  1.109655  0  0.090947  0  0.092793  0.041105  0  1.125772  0
H  H17  1  0.33012352  0.52005013  0.54140002  1  0  0.043774  0  1.021909  0  0  0.044984  0  1.119079  0  0  0.050265  0  1.109709  0  0.090918  0  0.09279  0.041079  0  1.125819  0
H  H18  1  0.83012180  0.97995150  0.04139953  1  0  0.043762  0  1.021874  0  0  0.044968  0  1.119045  0  0  0.05025  0  1.109673  0  0.090923  0  0.092783  0.041058  0  1.125797  0
H  H19  1  0.66986889  0.47995596  0.45859948  1  0  0.043788  0  1.021823  0  0  0.044974  0  1.118988  0  0  0.050257  0  1.109615  0  0.090901  0  0.092784  0.041063  0  1.125731  0
H  H20  1  0.18659724  0.23151562  0.05703253  1  0  0.115802  0  0.966347  0  0  0.123786  0  1.030306  0  0  0.126829  0  1.027948  0  0.109872  0  0.102739  0.121545  0  1.032116  0
H  H21  1  0.31340935  0.73151929  0.44296602  1  0  0.115821  0  0.96629  0  0  0.12381  0  1.030214  0  0  0.126854  0  1.027856  0  0.109862  0  0.102723  0.121567  0  1.032028  0
H  H22  1  0.81340763  0.76848421  0.94296657  1  0  0.115825  0  0.966335  0  0  0.123806  0  1.030288  0  0  0.12685  0  1.02793  0  0.109905  0  0.102749  0.121564  0  1.0321  0
H  H23  1  0.68659552  0.26848367  0.55703257  1  0  0.115811  0  0.966351  0  0  0.123791  0  1.030313  0  0  0.126834  0  1.027956  0  0.109882  0  0.102738  0.12155  0  1.032124  0
H  H24  1  0.84394712  0.29908813  0.13252471  1  0  0.098669  0  0.961779  0  0  0.110945  0  1.01993  0  0  0.113368  0  1.018903  0  0.095579  0  0.101513  0.10918  0  1.020769  0
H  H25  1  0.65607264  0.79908492  0.36747514  1  0  0.09873  0  0.961701  0  0  0.111012  0  1.019859  0  0  0.113437  0  1.018826  0  0.095423  0  0.10152  0.109246  0  1.020699  0
H  H26  1  0.15605775  0.70091295  0.86747545  1  0  0.098717  0  0.961712  0  0  0.111  0  1.01986  0  0  0.113424  0  1.018832  0  0.095455  0  0.101544  0.109235  0  1.0207  0
H  H27  1  0.34394053  0.20091366  0.63252354  1  0  0.098697  0  0.961711  0  0  0.111002  0  1.01983  0  0  0.113426  0  1.0188  0  0.095436  0  0.101551  0.109236  0  1.02067  0
H  H28  1  0.76550808  0.24672779  0.25249282  1  0  0.082348  0  0.980404  0  0  0.094802  0  1.041669  0  0  0.096489  0  1.042643  0  0.062142  0  0.095592  0.09358  0  1.041084  0
H  H29  1  0.73450546  0.74672583  0.24750644  1  0  0.082286  0  0.980482  0  0  0.094775  0  1.041696  0  0  0.09645  0  1.042701  0  0.062231  0  0.095587  0.093557  0  1.041104  0
H  H30  1  0.23449887  0.75327079  0.74750736  1  0  0.082315  0  0.980448  0  0  0.094778  0  1.041706  0  0  0.096461  0  1.042683  0  0.062008  0  0.095583  0.093558  0  1.041112  0
H  H31  1  0.26549941  0.25327213  0.75249162  1  0  0.082309  0  0.980441  0  0  0.0948  0  1.041662  0  0  0.096475  0  1.042658  0  0.062262  0  0.095609  0.09358  0  1.041068  0
H  H32  1  0.03007636  0.12493853  0.30155716  1  0  0.115242  0  0.952085  0  0  0.123847  0  1.014111  0  0  0.12673  0  1.012333  0  0.098555  0  0.106146  0.121728  0  1.015499  0
H  H33  1  0.46992399  0.62493782  0.19844185  1  0  0.11523  0  0.952061  0  0  0.123841  0  1.014084  0  0  0.126724  0  1.012305  0  0.09855  0  0.106143  0.121719  0  1.015469  0
H  H34  1  0.96992850  0.87505943  0.69844143  1  0  0.115186  0  0.952149  0  0  0.123811  0  1.014136  0  0  0.126695  0  1.012359  0  0.098544  0  0.106144  0.121694  0  1.015523  0
H  H35  1  0.53007257  0.37506077  0.80155769  1  0  0.115245  0  0.952093  0  0  0.123874  0  1.01408  0  0  0.126757  0  1.012302  0  0.098565  0  0.10616  0.121753  0  1.015465  0
H  H36  1  0.80144520  0.39978452  0.06291707  1  0  0.111536  0  0.975624  0  0  0.117714  0  1.041268  0  0  0.122347  0  1.037807  0  0.151329  0  0.109311  0.114392  0  1.043766  0
H  H37  1  0.69854549  0.89978694  0.43708509  1  0  0.111581  0  0.975637  0  0  0.117757  0  1.041269  0  0  0.122389  0  1.037809  0  0.151484  0  0.109346  0.114436  0  1.043767  0
H  H38  1  0.19854721  0.60021406  0.93708977  1  0  0.111537  0  0.975714  0  0  0.117743  0  1.041321  0  0  0.122376  0  1.037858  0  0.151427  0  0.109295  0.114421  0  1.043819  0
H  H39  1  0.30145107  0.10021415  0.56291393  1  0  0.111512  0  0.975585  0  0  0.11772  0  1.041206  0  0  0.122354  0  1.037743  0  0.151457  0  0.109299  0.114399  0  1.043703  0
H  H40  1  0.54391866  0.98695244  0.73361773  1  0  0.315737  0  0.940545  0  0  0.293657  0  1.006946  0  0  0.303709  0  0.998517  0  0.568177  0  0.303364  0.286601  0  1.012813  0
H  H41  1  0.95608241  0.48695377  0.76638087  1  0  0.315763  0  0.940494  0  0  0.293641  0  1.006977  0  0  0.303693  0  0.998549  0  0.568189  0  0.303322  0.286585  0  1.012843  0
H  H42  1  0.45608413  0.01304490  0.26638031  1  0  0.315724  0  0.940515  0  0  0.293582  0  1.007028  0  0  0.303634  0  0.9986  0  0.568185  0  0.303302  0.286525  0  1.012893  0
H  H43  1  0.04392454  0.51304481  0.23362089  1  0  0.315661  0  0.940635  0  0  0.293578  0  1.007081  0  0  0.303629  0  0.998655  0  0.568179  0  0.303285  0.286524  0  1.012943  0
H  H44  1  0.17771472  0.32586094  0.90335087  1  0  0.387489  0  0.935734  0  0  0.354912  0  1.010551  0  0  0.368155  0  0.992748  0  0.647529  0  0.289444  0.345735  0  1.022831  0
H  H45  1  0.32227940  0.82586086  0.59664912  1  0  0.387421  0  0.935836  0  0  0.354864  0  1.010623  0  0  0.368106  0  0.992821  0  0.647526  0  0.289455  0.345688  0  1.022901  0
H  H46  1  0.82229845  0.67413639  0.09665147  1  0  0.387519  0  0.935603  0  0  0.354942  0  1.010492  0  0  0.368184  0  0.992688  0  0.6475  0  0.289461  0.345766  0  1.022771  0
H  H47  1  0.67770054  0.17413897  0.40335077  1  0  0.387575  0  0.935568  0  0  0.354995  0  1.010426  0  0  0.368238  0  0.992623  0  0.647505  0  0.289483  0.34582  0  1.022706  0
C  C48  1  0.81787900  0.15658566  0.86091770  1  0  0.136674  0  3.64934  0  0  0.100487  0  3.901833  0  0  0.109414  0  3.917745  0  0.411109  0  0.049637  0.094723  0  3.891142  0
C  C49  1  0.68211792  0.65658620  0.63908242  1  0  0.136673  0  3.649326  0  0  0.100475  0  3.901838  0  0  0.109404  0  3.917748  0  0.411137  0  0.04962  0.09471  0  3.891146  0
C  C50  1  0.18212171  0.84341543  0.13908084  1  0  0.136532  0  3.649411  0  0  0.100307  0  3.901917  0  0  0.109229  0  3.917834  0  0.411084  0  0.049557  0.094542  0  3.891227  0
C  C51  1  0.31788072  0.34341739  0.36091715  1  0  0.136526  0  3.649404  0  0  0.100285  0  3.901946  0  0  0.109202  0  3.917858  0  0.411503  0  0.049542  0.094522  0  3.891255  0
C  C52  1  0.92704653  0.14298409  0.79552364  1  0  -0.098174  0  3.71018  0  0  -0.109301  0  3.959944  0  0  -0.115583  0  3.978464  0  0.05797  0  -0.075257  -0.105497  0  3.947711  0
C  C53  1  0.57295039  0.64298401  0.70447701  1  0  -0.098193  0  3.710078  0  0  -0.109287  0  3.959842  0  0  -0.115557  0  3.978376  0  0.05856  0  -0.075274  -0.105486  0  3.947614  0
C  C54  1  0.07295834  0.85701762  0.20447442  1  0  -0.098083  0  3.710143  0  0  -0.109146  0  3.959899  0  0  -0.115418  0  3.978428  0  0.058562  0  -0.075212  -0.105345  0  3.947669  0
C  C55  1  0.42704409  0.35702021  0.29552409  1  0  -0.097999  0  3.710213  0  0  -0.109071  0  3.95994  0  0  -0.115325  0  3.978485  0  0.057994  0  -0.075196  -0.105266  0  3.947698  0
C  C56  1  0.12913813  0.08195154  0.78804992  1  0  -0.021977  0  3.635882  0  0  -0.052617  0  3.882334  0  0  -0.047217  0  3.896831  0  -0.05618  0  -0.057516  -0.055815  0  3.872589  0
C  C57  1  0.37085599  0.58195208  0.71194902  1  0  -0.022054  0  3.635784  0  0  -0.052689  0  3.882252  0  0  -0.047293  0  3.896749  0  -0.056957  0  -0.05755  -0.055888  0  3.872506  0
C  C58  1  0.87086674  0.91804704  0.21194709  1  0  -0.022023  0  3.635929  0  0  -0.052684  0  3.882373  0  0  -0.047284  0  3.896866  0  -0.056649  0  -0.057549  -0.055883  0  3.872623  0
C  C59  1  0.62914057  0.41805088  0.28805105  1  0  -0.022167  0  3.635833  0  0  -0.052768  0  3.882304  0  0  -0.047369  0  3.896791  0  -0.056381  0  -0.057572  -0.055946  0  3.872574  0
C  C60  1  0.22069431  0.03513353  0.84707224  1  0  -0.050717  0  3.786208  0  0  -0.027095  0  4.019072  0  0  -0.034685  0  4.042428  0  -0.071126  0  -0.000135  -0.022777  0  4.003877  0
C  C61  1  0.27930189  0.53513532  0.65292672  1  0  -0.050643  0  3.786171  0  0  -0.027059  0  4.019083  0  0  -0.034634  0  4.042408  0  -0.070971  0  -5.7e-05  -0.022741  0  4.003891  0
C  C62  1  0.77930640  0.96486506  0.15292682  1  0  -0.050805  0  3.786401  0  0  -0.02717  0  4.019247  0  0  -0.034766  0  4.042609  0  -0.071147  0  -0.000122  -0.02285  0  4.004054  0
C  C63  1  0.72069882  0.46486577  0.34707339  1  0  -0.050636  0  3.786149  0  0  -0.027105  0  4.019145  0  0  -0.034682  0  4.042485  0  -0.070954  0  -8.8e-05  -0.02279  0  4.003944  0
C  C64  1  0.10265050  0.05386336  0.91105917  1  0  0.084109  0  3.702864  0  0  0.046099  0  3.951301  0  0  0.054313  0  3.965852  0  0.516827  0  0.041255  0.04089  0  3.941638  0
C  C65  1  0.39734986  0.55386453  0.58893984  1  0  0.084127  0  3.703038  0  0  0.046133  0  3.951452  0  0  0.054347  0  3.966001  0  0.51685  0  0.041254  0.040926  0  3.941781  0
C  C66  1  0.89735230  0.94613647  0.08893992  1  0  0.084196  0  3.703059  0  0  0.04621  0  3.951453  0  0  0.054427  0  3.965997  0  0.516785  0  0.041278  0.041005  0  3.941778  0
C  C67  1  0.60264878  0.44613906  0.41105973  1  0  0.084109  0  3.702772  0  0  0.046173  0  3.95122  0  0  0.05439  0  3.965758  0  0.516798  0  0.041232  0.040966  0  3.941569  0
C  C68  1  0.42697556  0.96874425  0.84187289  1  0  0.345921  0  3.752309  0  0  0.308243  0  4.017893  0  0  0.325867  0  4.035197  0  1.005483  0  0.224401  0.2968  0  4.005786  0
C  C69  1  0.07302065  0.46874558  0.65812503  1  0  0.345968  0  3.752432  0  0  0.30834  0  4.018009  0  0  0.325965  0  4.035316  0  1.00548  0  0.224456  0.296893  0  4.005906  0
C  C70  1  0.57302516  0.03125496  0.15812513  1  0  0.345923  0  3.752375  0  0  0.308252  0  4.017962  0  0  0.325882  0  4.03526  0  1.005472  0  0.22443  0.296801  0  4.005865  0
C  C71  1  0.92698838  0.53125613  0.34187674  1  0  0.345859  0  3.752375  0  0  0.30823  0  4.018046  0  0  0.325845  0  4.03536  0  1.005397  0  0.224455  0.296793  0  4.005932  0
C  C72  1  0.29992462  0.13879091  0.13720172  1  0  0.132574  0  3.848867  0  0  0.128729  0  4.089245  0  0  0.131447  0  4.115727  0  0.397188  0  0.078235  0.126863  0  4.071457  0
C  C73  1  0.20007989  0.63879145  0.36279838  1  0  0.132551  0  3.848826  0  0  0.128657  0  4.089289  0  0  0.131376  0  4.115769  0  0.397422  0  0.078226  0.126791  0  4.071503  0
C  C74  1  0.70007610  0.86120767  0.86279682  1  0  0.132545  0  3.84896  0  0  0.128706  0  4.089323  0  0  0.131425  0  4.115805  0  0.397519  0  0.078222  0.12684  0  4.071536  0
C  C75  1  0.79992498  0.36120838  0.63720178  1  0  0.132677  0  3.848814  0  0  0.128802  0  4.089228  0  0  0.131521  0  4.11571  0  0.397393  0  0.078266  0.126935  0  4.071443  0
C  C76  1  0.15310245  0.20792273  0.10958197  1  0  -0.169965  0  3.766466  0  0  -0.180423  0  4.014997  0  0  -0.183329  0  4.034219  0  -0.047639  0  -0.105671  -0.178334  0  4.00207  0
C  C77  1  0.34690414  0.70792577  0.39041710  1  0  -0.169964  0  3.766348  0  0  -0.180373  0  4.014906  0  0  -0.18328  0  4.034127  0  -0.047394  0  -0.105663  -0.178286  0  4.001981  0
C  C78  1  0.84690035  0.79207648  0.89041712  1  0  -0.169931  0  3.766446  0  0  -0.180381  0  4.014973  0  0  -0.183287  0  4.034194  0  -0.047421  0  -0.105651  -0.178292  0  4.002043  0
C  C79  1  0.65310073  0.29207656  0.60958200  1  0  -0.170043  0  3.766496  0  0  -0.180497  0  4.015066  0  0  -0.183405  0  4.034287  0  -0.047403  0  -0.105688  -0.178408  0  4.002138  0
C  C80  1  0.96309580  0.24583774  0.15262572  1  0  -0.067004  0  3.764712  0  0  -0.08498  0  4.018019  0  0  -0.087351  0  4.040557  0  -0.071785  0  -0.097389  -0.08331  0  4.002611  0
C  C81  1  0.53690735  0.74583578  0.34737185  1  0  -0.067045  0  3.764833  0  0  -0.085048  0  4.018149  0  0  -0.087419  0  4.040689  0  -0.071601  0  -0.097349  -0.08338  0  4.002743  0
C  C82  1  0.03690492  0.75416397  0.84737229  1  0  -0.067094  0  3.764785  0  0  -0.085094  0  4.018103  0  0  -0.087465  0  4.040642  0  -0.071647  0  -0.09742  -0.083424  0  4.002695  0
C  C83  1  0.46309544  0.25416531  0.65262672  1  0  -0.066934  0  3.764755  0  0  -0.084937  0  4.018079  0  0  -0.087307  0  4.040619  0  -0.071629  0  -0.097385  -0.083267  0  4.002672  0
C  C84  1  0.91756589  0.21592129  0.22076832  1  0  -0.071071  0  3.776277  0  0  -0.089098  0  4.035497  0  0  -0.091948  0  4.059334  0  -0.064353  0  -0.09887  -0.08686  0  4.018976  0
C  C85  1  0.58243934  0.71591934  0.27923032  1  0  -0.0711  0  3.776519  0  0  -0.089148  0  4.035768  0  0  -0.092003  0  4.059609  0  -0.064561  0  -0.098958  -0.08691  0  4.019249  0
C  C86  1  0.08243690  0.78407666  0.77923129  1  0  -0.071082  0  3.776257  0  0  -0.089117  0  4.035484  0  0  -0.091966  0  4.05932  0  -0.064176  0  -0.098897  -0.086875  0  4.018965  0
C  C87  1  0.41756345  0.28407800  0.72076719  1  0  -0.071204  0  3.776374  0  0  -0.089273  0  4.035666  0  0  -0.092125  0  4.059505  0  -0.064405  0  -0.098972  -0.087031  0  4.019145  0
C  C88  1  0.06162727  0.14756256  0.24880605  1  0  -0.134699  0  3.725352  0  0  -0.156173  0  3.982645  0  0  -0.157778  0  4.001028  0  0.03733  0  -0.09424  -0.155042  0  3.970131  0
C  C89  1  0.43837517  0.64756436  0.25119403  1  0  -0.134671  0  3.725419  0  0  -0.156126  0  3.982719  0  0  -0.157726  0  4.001098  0  0.037319  0  -0.094197  -0.154989  0  3.970201  0
C  C90  1  0.93837345  0.85243539  0.75119196  1  0  -0.134575  0  3.725214  0  0  -0.156048  0  3.982497  0  0  -0.157651  0  4.000878  0  0.037165  0  -0.09423  -0.154923  0  3.969991  0
C  C91  1  0.56162762  0.35243610  0.74880716  1  0  -0.134625  0  3.725188  0  0  -0.156106  0  3.982475  0  0  -0.157706  0  4.000855  0  0.037172  0  -0.094215  -0.154973  0  3.969962  0
C  C92  1  0.25357645  0.11003722  0.20598188  1  0  0.164125  0  3.804236  0  0  0.157372  0  4.046654  0  0  0.160737  0  4.070211  0  0.364707  0  0.096481  0.155061  0  4.030886  0
C  C93  1  0.24642599  0.61003839  0.29401820  1  0  0.164198  0  3.804165  0  0  0.157461  0  4.046692  0  0  0.160827  0  4.070247  0  0.364228  0  0.096479  0.15515  0  4.030926  0
C  C94  1  0.74642427  0.88996011  0.79401718  1  0  0.164066  0  3.80418  0  0  0.157285  0  4.046627  0  0  0.160649  0  4.070184  0  0.364243  0  0.096443  0.154973  0  4.030864  0
C  C95  1  0.75357680  0.38996019  0.70598194  1  0  0.164119  0  3.804108  0  0  0.157397  0  4.046544  0  0  0.16076  0  4.070102  0  0.364255  0  0.096466  0.155085  0  4.03078  0
C  C96  1  0.51297627  0.32016725  0.96947699  1  0  0.642628  0  3.839073  0  0  0.592068  0  4.138056  0  0  0.625329  0  4.129371  0  1.552755  0  0.222955  0.56953  0  4.143362  0
C  C97  1  0.98702688  0.82017092  0.53052425  1  0  0.64225  0  3.839308  0  0  0.591728  0  4.138251  0  0  0.624992  0  4.129571  0  1.552621  0  0.222821  0.569188  0  4.143553  0
C  C98  1  0.48703483  0.67983008  0.03052638  1  0  0.642383  0  3.839161  0  0  0.591828  0  4.138123  0  0  0.625091  0  4.129447  0  1.552906  0  0.222792  0.569291  0  4.143426  0
C  C99  1  0.01296137  0.17983204  0.46947626  1  0  0.642185  0  3.839414  0  0  0.591657  0  4.138362  0  0  0.624917  0  4.129685  0  1.552862  0  0.222765  0.56912  0  4.143662  0
C  C100  1  0.49001090  0.41368131  0.98085862  1  0  -0.061565  0  3.677125  0  0  -0.048358  0  3.914008  0  0  -0.052669  0  3.934132  0  -0.060381  0  -0.004035  -0.045597  0  3.900557  0
C  C101  1  0.00998323  0.91368186  0.51914295  1  0  -0.061305  0  3.67719  0  0  -0.048078  0  3.914017  0  0  -0.052398  0  3.934157  0  -0.060471  0  -0.00395  -0.045317  0  3.900566  0
C  C102  1  0.50998566  0.58631602  0.01914669  1  0  -0.061318  0  3.677134  0  0  -0.048075  0  3.913947  0  0  -0.052401  0  3.934099  0  -0.060486  0  -0.003921  -0.045313  0  3.900493  0
C  C103  1  0.99001541  0.08631860  0.48085662  1  0  -0.061333  0  3.677243  0  0  -0.048117  0  3.91406  0  0  -0.05243  0  3.934185  0  -0.060465  0  -0.003973  -0.045358  0  3.900608  0
C  C104  1  0.31719537  0.47219195  0.94404709  1  0  -0.065231  0  3.685301  0  0  -0.052074  0  3.925144  0  0  -0.056469  0  3.945659  0  -0.011533  0  -0.006497  -0.049297  0  3.911411  0
C  C105  1  0.18279876  0.97219374  0.55595447  1  0  -0.065329  0  3.685355  0  0  -0.052208  0  3.925233  0  0  -0.056604  0  3.945754  0  -0.011595  0  -0.006524  -0.049433  0  3.911502  0
C  C106  1  0.68279911  0.52780476  0.05595767  1  0  -0.065472  0  3.685424  0  0  -0.052315  0  3.925198  0  0  -0.056706  0  3.945716  0  -0.011648  0  -0.006537  -0.049538  0  3.911467  0
C  C107  1  0.81719988  0.02780609  0.44404247  1  0  -0.065336  0  3.685425  0  0  -0.052147  0  3.925163  0  0  -0.056537  0  3.94567  0  -0.011472  0  -0.006508  -0.04937  0  3.911432  0
C  C108  1  0.11468353  0.45583579  0.88252737  1  0  0.638584  0  3.878165  0  0  0.586734  0  4.185869  0  0  0.619523  0  4.178383  0  1.586036  0  0.2155  0.564613  0  4.190219  0
C  C109  1  0.38531267  0.95583571  0.61747316  1  0  0.638618  0  3.878103  0  0  0.586788  0  4.185807  0  0  0.619576  0  4.178317  0  1.58594  0  0.215483  0.564668  0  4.190158  0
C  C110  1  0.88531718  0.54416404  0.11747589  1  0  0.638747  0  3.878047  0  0  0.586923  0  4.185699  0  0  0.619711  0  4.178212  0  1.586115  0  0.215585  0.564801  0  4.190047  0
C  C111  1  0.61468805  0.04416663  0.38252485  1  0  0.638752  0  3.877939  0  0  0.586915  0  4.185585  0  0  0.619702  0  4.178096  0  1.585956  0  0.21554  0.564794  0  4.189934  0
C  C112  1  0.66629055  0.44411753  0.03511931  1  0  -0.062322  0  3.700908  0  0  -0.098473  0  3.953292  0  0  -0.099141  0  3.972468  0  -0.008739  0  -0.074557  -0.097933  0  3.940409  0
C  C113  1  0.83370222  0.94411932  0.46488181  1  0  -0.062491  0  3.701058  0  0  -0.098665  0  3.953448  0  0  -0.099329  0  3.972629  0  -0.008879  0  -0.074582  -0.098127  0  3.940567  0
C  C114  1  0.33369978  0.55588043  0.96488698  1  0  -0.062463  0  3.701063  0  0  -0.098667  0  3.953473  0  0  -0.099332  0  3.97266  0  -0.008758  0  -0.074604  -0.098128  0  3.940589  0
C  C115  1  0.16629019  0.05587989  0.53511506  1  0  -0.06238  0  3.700928  0  0  -0.098577  0  3.953361  0  0  -0.099242  0  3.972543  0  -0.008723  0  -0.074547  -0.098036  0  3.940477  0
N  N116  1  0.90435322  0.11199558  0.91775632  1  0  -0.286981  0  3.358355  0  0  -0.198161  0  3.634036  0  0  -0.217446  0  3.651107  0  -1.197265  0  -0.346699  -0.18526  0  3.622208  0
N  N117  1  0.59564577  0.61199613  0.58224382  1  0  -0.286945  0  3.358503  0  0  -0.198119  0  3.63417  0  0  -0.217404  0  3.651247  0  -1.197276  0  -0.346693  -0.185217  0  3.622345  0
N  N118  1  0.09564749  0.88800550  0.08224327  1  0  -0.28696  0  3.358472  0  0  -0.198148  0  3.634175  0  0  -0.217433  0  3.651249  0  -1.197303  0  -0.346699  -0.185247  0  3.62235  0
N  N119  1  0.40435079  0.38800746  0.41775677  1  0  -0.287  0  3.358372  0  0  -0.198167  0  3.634054  0  0  -0.217451  0  3.651131  0  -1.197612  0  -0.346698  -0.185268  0  3.622229  0
N  N120  1  0.50033265  0.08836578  0.10853483  1  0  -0.463027  0  3.271104  0  0  -0.382442  0  3.563853  0  0  -0.407112  0  3.580565  0  -1.155095  0  -0.374746  -0.365748  0  3.552092  0
N  N121  1  0.99967673  0.58836633  0.39146595  1  0  -0.463011  0  3.271265  0  0  -0.382387  0  3.564013  0  0  -0.407052  0  3.580732  0  -1.155192  0  -0.37475  -0.365696  0  3.552245  0
N  N122  1  0.49967014  0.91163343  0.89146426  1  0  -0.462998  0  3.271072  0  0  -0.382421  0  3.563832  0  0  -0.40709  0  3.580548  0  -1.155148  0  -0.374737  -0.365727  0  3.552065  0
N  N123  1  0.00032606  0.41163476  0.60853471  1  0  -0.463146  0  3.271178  0  0  -0.382569  0  3.563956  0  0  -0.407242  0  3.580674  0  -1.155089  0  -0.3748  -0.365875  0  3.552192  0
N  N124  1  0.57359213  0.95741065  0.78310001  1  0  -0.382333  0  3.374339  0  0  -0.32219  0  3.604884  0  0  -0.342012  0  3.619187  0  -1.301623  0  -0.369435  -0.308957  0  3.595082  0
N  N125  1  0.92640687  0.45741136  0.71689908  1  0  -0.382338  0  3.374303  0  0  -0.322248  0  3.604962  0  0  -0.342075  0  3.619268  0  -1.30159  0  -0.369442  -0.309015  0  3.595164  0
N  N126  1  0.42640651  0.04258856  0.21689850  1  0  -0.382241  0  3.374291  0  0  -0.322099  0  3.604921  0  0  -0.341924  0  3.619224  0  -1.301595  0  -0.369408  -0.308866  0  3.595123  0
N  N127  1  0.07360008  0.54258785  0.28310214  1  0  -0.382235  0  3.374331  0  0  -0.32222  0  3.605082  0  0  -0.342046  0  3.619395  0  -1.301476  0  -0.369414  -0.308985  0  3.59527  0
O  O128  1  0.70431694  0.28119769  0.00081520  1  0  -0.568776  0  2.022675  0  0  -0.514902  0  2.277028  0  0  -0.53821  0  2.267196  0  -1.151684  0  -0.298807  -0.498681  0  2.283184  0
O  O129  1  0.79567582  0.78119760  0.49918278  1  0  -0.56878  0  2.022592  0  0  -0.514856  0  2.276869  0  0  -0.538165  0  2.267036  0  -1.151498  0  -0.298779  -0.498632  0  2.283024  0
O  O130  1  0.29569831  0.71880152  0.99918769  1  0  -0.568795  0  2.022758  0  0  -0.514867  0  2.277048  0  0  -0.538175  0  2.267218  0  -1.151727  0  -0.298723  -0.498648  0  2.283203  0
O  O131  1  0.20429789  0.21880348  0.50081651  1  0  -0.568716  0  2.022702  0  0  -0.514784  0  2.276973  0  0  -0.538088  0  2.267133  0  -1.151665  0  -0.298752  -0.498566  0  2.283128  0
O  O132  1  0.32981199  0.28114577  0.92874375  1  0  -0.568378  0  2.093281  0  0  -0.51694  0  2.319141  0  0  -0.539847  0  2.302802  0  -1.186883  0  -0.327589  -0.500975  0  2.329839  0
O  O133  1  0.17018213  0.78114632  0.57125677  1  0  -0.568122  0  2.093454  0  0  -0.516743  0  2.319307  0  0  -0.539651  0  2.30297  0  -1.186918  0  -0.32755  -0.50078  0  2.33  0
O  O134  1  0.67020326  0.71885093  0.07125862  1  0  -0.568239  0  2.093084  0  0  -0.516841  0  2.31898  0  0  -0.539751  0  2.302647  0  -1.186863  0  -0.32754  -0.500862  0  2.329641  0
O  O135  1  0.82978743  0.21885414  0.42874458  1  0  -0.568159  0  2.093189  0  0  -0.516788  0  2.319086  0  0  -0.539699  0  2.302758  0  -1.186963  0  -0.327501  -0.500808  0  2.329744  0
O  O136  1  0.03642517  0.51807175  0.84585748  1  0  -0.594151  0  1.959069  0  0  -0.550961  0  2.180316  0  0  -0.573132  0  2.171533  0  -1.181628  0  -0.316366  -0.535405  0  2.185752  0
O  O137  1  0.46357311  0.01806933  0.65414150  1  0  -0.59415  0  1.959166  0  0  -0.550987  0  2.180401  0  0  -0.573162  0  2.171628  0  -1.181525  0  -0.316359  -0.535433  0  2.18584  0
O  O138  1  0.96356931  0.48192621  0.15414623  1  0  -0.594292  0  1.958984  0  0  -0.55109  0  2.180184  0  0  -0.573262  0  2.171403  0  -1.181695  0  -0.316462  -0.535528  0  2.185616  0
O  O139  1  0.53643176  0.98192925  0.34585498  1  0  -0.594241  0  1.958952  0  0  -0.551059  0  2.180193  0  0  -0.573231  0  2.171405  0  -1.181577  0  -0.316406  -0.535504  0  2.185635  0
O  O140  1  0.02914180  0.38119167  0.86935550  1  0  -0.586278  0  2.03168  0  0  -0.535061  0  2.256271  0  0  -0.559447  0  2.246347  0  -1.168975  0  -0.317527  -0.518174  0  2.262523  0
O  O141  1  0.47085233  0.88119096  0.63064292  1  0  -0.586254  0  2.031662  0  0  -0.535065  0  2.256275  0  0  -0.55945  0  2.246352  0  -1.16896  0  -0.317537  -0.518172  0  2.262511  0
O  O142  1  0.97086307  0.61880504  0.13064570  1  0  -0.586225  0  2.031693  0  0  -0.535033  0  2.256307  0  0  -0.559416  0  2.246381  0  -1.16901  0  -0.317501  -0.518161  0  2.262584  0
O  O143  1  0.52914216  0.11880825  0.36935451  1  0  -0.586364  0  2.031619  0  0  -0.535134  0  2.256195  0  0  -0.559518  0  2.246269  0  -1.169069  0  -0.317535  -0.518255  0  2.26246  0
