# generated using pymatgen
data_U2H25C19SN12O17
_symmetry_space_group_name_H-M   'P 1'
_cell_length_a   12.04222640
_cell_length_b   12.12356650
_cell_length_c   12.69863326
_cell_angle_alpha   71.35097849
_cell_angle_beta   79.54461944
_cell_angle_gamma   75.14526897
_symmetry_Int_Tables_number   1
_chemical_formula_structural   U2H25C19SN12O17
_chemical_formula_sum   'U4 H50 C38 S2 N24 O34'
_cell_volume   1687.83739735
_cell_formula_units_Z   2
loop_
 _symmetry_equiv_pos_site_id
 _symmetry_equiv_pos_as_xyz
  1  'x, y, z'
loop_
 _atom_site_type_symbol
 _atom_site_label
 _atom_site_symmetry_multiplicity
 _atom_site_fract_x
 _atom_site_fract_y
 _atom_site_fract_z
 _atom_site_occupancy
 _atom_site_pbe_bader_charge
 _atom_site_pbe_bader_spin_density
 _atom_site_pbe_cm5_charge
 _atom_site_pbe_ddec_charge
 _atom_site_pbe_ddec_spin_density
 _atom_site_pbe_ddec_sum_bond_order
 _atom_site_pbe_magmom
U  U0  1  0.04695112  0.00910110  0.84609123  1  2.930347  0  2.173066  2.624263  0  4.747563  0
U  U1  1  0.95305068  0.99090077  0.15390897  1  2.930343  0  2.173107  2.624263  0  4.74763  0
U  U2  1  0.96549853  0.35161346  0.59508697  1  2.924034  0  2.154982  2.61167  0  4.700179  0
U  U3  1  0.03450446  0.64838659  0.40491204  1  2.924018  0  2.154954  2.61169  0  4.700145  0
H  H4  1  0.85272140  0.16250782  0.73711537  1  0.60657  0  0.329664  0.428889  0  0.856619  0
H  H5  1  0.14728007  0.83749133  0.26288341  1  0.606549  0  0.329694  0.428977  0  0.856529  0
H  H6  1  0.09495479  0.81266587  0.04521194  1  0.622614  0  0.339079  0.447058  0  0.834419  0
H  H7  1  0.90504581  0.18733779  0.95478789  1  0.622571  0  0.339136  0.447121  0  0.834324  0
H  H8  1  0.87515319  0.58670811  0.60965048  1  0.655979  0  0.294104  0.39196  0  0.95842  0
H  H9  1  0.12484962  0.41329281  0.39034748  1  0.655965  0  0.294085  0.391942  0  0.958449  0
H  H10  1  0.71492315  0.43682192  0.68264721  1  0.668661  0  0.310907  0.419906  0  0.903342  0
H  H11  1  0.28507596  0.56317645  0.31735539  1  0.668646  0  0.310914  0.419865  0  0.903394  0
H  H12  1  0.79718792  0.44753188  0.75833730  1  0.659891  0  0.31987  0.416857  0  0.894694  0
H  H13  1  0.20281204  0.55246646  0.24166438  1  0.660018  0  0.319869  0.416855  0  0.894697  0
H  H14  1  0.93158366  0.11453306  0.53108008  1  0.115739  0  0.121685  0.143458  0  1.00212  0
H  H15  1  0.06841426  0.88546713  0.46892372  1  0.115495  0  0.12168  0.143403  0  1.002101  0
H  H16  1  0.01397097  0.11026643  0.39920692  1  0.074739  0  0.123611  0.153844  0  0.961106  0
H  H17  1  0.98602441  0.88973376  0.60079576  1  0.07471  0  0.123582  0.153841  0  0.961077  0
H  H18  1  0.41287314  0.88388883  0.54442574  1  0.092249  0  0.12133  0.06162  0  0.986214  0
H  H19  1  0.58712664  0.11611036  0.45557411  1  0.092266  0  0.121336  0.061674  0  0.98617  0
H  H20  1  0.27959332  0.75952864  0.54896545  1  0.113836  0  0.135086  0.088163  0  0.949976  0
H  H21  1  0.72040699  0.24046792  0.45103674  1  0.113814  0  0.135102  0.088205  0  0.949968  0
H  H22  1  0.08745209  0.73601700  0.80461918  1  0.135576  0  0.137993  0.090827  0  1.029732  0
H  H23  1  0.91254837  0.26398311  0.19538183  1  0.135588  0  0.138001  0.090838  0  1.029722  0
H  H24  1  0.11344443  0.68741774  0.68033811  1  0.118127  0  0.130984  0.101165  0  0.985922  0
H  H25  1  0.88655550  0.31258502  0.31966134  1  0.118118  0  0.13098  0.101144  0  0.985933  0
H  H26  1  0.44385698  0.44953380  0.59077814  1  0.152103  0  0.132886  0.098091  0  1.0042  0
H  H27  1  0.55614432  0.55046624  0.40922038  1  0.152153  0  0.132894  0.098103  0  1.004208  0
H  H28  1  0.30088467  0.53707368  0.56538632  1  0.114472  0  0.131189  0.100611  0  0.987991  0
H  H29  1  0.69911628  0.46292820  0.43461402  1  0.114457  0  0.131192  0.10061  0  0.987977  0
H  H30  1  0.15032640  0.46751695  0.71548910  1  0.141744  0  0.13686  0.090682  0  0.996703  0
H  H31  1  0.84967321  0.53248311  0.28450971  1  0.141767  0  0.136857  0.090637  0  0.996794  0
H  H32  1  0.13572005  0.30165677  0.88187713  1  0.131299  0  0.138145  0.093326  0  0.956346  0
H  H33  1  0.86427956  0.69834330  0.11812168  1  0.131309  0  0.138157  0.093371  0  0.956321  0
H  H34  1  0.07506575  0.40015549  0.12526477  1  0.145711  0  0.133139  0.095662  0  1.006057  0
H  H35  1  0.92493404  0.59984370  0.87473508  1  0.145677  0  0.133156  0.095672  0  1.006048  0
H  H36  1  0.08324074  0.27364175  0.07650240  1  0.100933  0  0.127963  0.095994  0  1.010391  0
H  H37  1  0.91675820  0.72635743  0.92349682  1  0.100958  0  0.127966  0.095981  0  1.010388  0
H  H38  1  0.28545612  0.10720389  0.96307807  1  0.123127  0  0.132733  0.099072  0  0.976728  0
H  H39  1  0.71454247  0.89279711  0.03692219  1  0.12314  0  0.132708  0.099046  0  0.976733  0
H  H40  1  0.43194186  0.11604490  0.90663102  1  0.163301  0  0.132618  0.098659  0  0.998936  0
H  H41  1  0.56805623  0.88395431  0.09336913  1  0.163272  0  0.132632  0.098679  0  0.998919  0
H  H42  1  0.24320152  0.08954378  0.16218251  1  0.143359  0  0.135866  0.093682  0  0.961884  0
H  H43  1  0.75679844  0.91045454  0.83781838  1  0.143374  0  0.135867  0.093687  0  0.961883  0
H  H44  1  0.35864873  0.04408690  0.31845476  1  0.114419  0  0.124932  0.077176  0  0.984013  0
H  H45  1  0.64135257  0.95591320  0.68154610  1  0.114419  0  0.124921  0.077124  0  0.984069  0
H  H46  1  0.70161795  0.69985537  0.57398623  1  0.166904  0  0.144271  0.117741  0  0.979706  0
H  H47  1  0.29838046  0.30014650  0.42601300  1  0.166879  0  0.144257  0.11772  0  0.979721  0
H  H48  1  0.62683794  0.85192176  0.54431241  1  0.094005  0  0.118623  0.071172  0  0.998675  0
H  H49  1  0.37315980  0.14807921  0.45568644  1  0.094002  0  0.118659  0.071195  0  0.998665  0
H  H50  1  0.34032142  0.97460714  0.80132670  1  0.167894  0  0.146323  0.110865  0  1.006216  0
H  H51  1  0.65967868  0.02539469  0.19867145  1  0.167917  0  0.146327  0.110869  0  1.006204  0
H  H52  1  0.42712501  0.00648105  0.66911371  1  0.052718  0  0.122484  0.075178  0  0.961513  0
H  H53  1  0.57287544  0.99351898  0.33088418  1  0.052751  0  0.122471  0.07515  0  0.961484  0
C  C54  1  0.00491288  0.06386169  0.48898429  1  -0.144632  0  -0.144813  -0.322581  0  3.898366  0
C  C55  1  0.99508080  0.93613850  0.51101790  1  -0.116989  0  -0.144748  -0.322477  0  3.898165  0
C  C56  1  0.27383121  0.80579337  0.77251947  1  1.853488  0  0.353627  0.578759  0  4.200325  0
C  C57  1  0.72616671  0.19420682  0.22748433  1  1.853506  0  0.353622  0.578737  0  4.200312  0
C  C58  1  0.41409740  0.80635035  0.61929616  1  0.666353  0  0.133392  0.137242  0  3.870119  0
C  C59  1  0.58590256  0.19364795  0.38070395  1  0.666346  0  0.13341  0.137162  0  3.870196  0
C  C60  1  0.32993257  0.72640966  0.62112453  1  0.675022  0  0.140163  0.145161  0  3.83278  0
C  C61  1  0.67006789  0.27359047  0.37887726  1  0.675083  0  0.140148  0.145096  0  3.83285  0
C  C62  1  0.51991169  0.61341074  0.62298408  1  1.855997  0  0.343378  0.546227  0  4.223353  0
C  C63  1  0.48008996  0.38658757  0.37701730  1  1.856016  0  0.343337  0.546148  0  4.223323  0
C  C64  1  0.14877595  0.68119544  0.75658875  1  0.655773  0  0.055077  0.058582  0  3.907306  0
C  C65  1  0.85122366  0.31880468  0.24341241  1  0.655773  0  0.055076  0.05868  0  3.907302  0
C  C66  1  0.36850308  0.50788808  0.62201426  1  0.645693  0  0.049773  0.062343  0  3.909228  0
C  C67  1  0.63149772  0.49211021  0.37798570  1  0.645671  0  0.049766  0.062283  0  3.909378  0
C  C68  1  0.14845745  0.52453103  0.94013450  1  1.815509  0  0.328403  0.530883  0  4.236486  0
C  C69  1  0.85154233  0.47546812  0.05986379  1  1.815519  0  0.328397  0.530931  0  4.236407  0
C  C70  1  0.20681756  0.46008185  0.77738277  1  0.653961  0  0.131067  0.132313  0  3.853961  0
C  C71  1  0.79318137  0.53991734  0.22261723  1  0.653957  0  0.131014  0.132298  0  3.854041  0
C  C72  1  0.20203498  0.34979768  0.88138126  1  0.672164  0  0.134687  0.141228  0  3.83968  0
C  C73  1  0.79796480  0.65020149  0.11861781  1  0.672183  0  0.134697  0.141129  0  3.83973  0
C  C74  1  0.38755406  0.32547205  0.78114475  1  1.820014  0  0.325598  0.540263  0  4.236468  0
C  C75  1  0.61244640  0.67452808  0.21885704  1  1.819974  0  0.325629  0.540296  0  4.236423  0
C  C76  1  0.13160488  0.33541631  0.08462800  1  0.658053  0  0.047335  0.054411  0  3.914603  0
C  C77  1  0.86839490  0.66458286  0.91537107  1  0.658097  0  0.047332  0.054386  0  3.914563  0
C  C78  1  0.35244345  0.15901335  0.94802458  1  0.635735  0  0.052524  0.065495  0  3.909556  0
C  C79  1  0.64755531  0.84098677  0.05197673  1  0.635748  0  0.052482  0.065458  0  3.909345  0
C  C80  1  0.24170918  0.30744915  0.23954172  1  1.869824  0  0.344951  0.545991  0  4.223883  0
C  C81  1  0.75829209  0.69255532  0.76045458  1  1.869815  0  0.345008  0.546169  0  4.22372  0
C  C82  1  0.29616844  0.15451913  0.15268948  1  0.646424  0  0.136448  0.14203  0  3.831305  0
C  C83  1  0.70383032  0.84548098  0.84731104  1  0.646401  0  0.136504  0.142085  0  3.831239  0
C  C84  1  0.37173425  0.12431137  0.25035994  1  0.675708  0  0.131137  0.13275  0  3.864773  0
C  C85  1  0.62826705  0.87568871  0.74964014  1  0.675675  0  0.131108  0.132811  0  3.864797  0
C  C86  1  0.49267637  0.12784874  0.08074736  1  1.818047  0  0.329061  0.531526  0  4.241426  0
C  C87  1  0.50732476  0.87215217  0.91925012  1  1.817991  0  0.329129  0.531645  0  4.241241  0
C  C88  1  0.63371038  0.76392011  0.60678189  1  0.636295  0  0.051793  0.070421  0  3.915463  0
C  C89  1  0.36628905  0.23608088  0.39321822  1  0.636488  0  0.051811  0.070432  0  3.915426  0
C  C90  1  0.41038454  0.93606725  0.74658967  1  0.679895  0  0.059433  0.073707  0  3.919419  0
C  C91  1  0.58961556  0.06393461  0.25340926  1  0.679786  0  0.059444  0.073713  0  3.919315  0
S  S92  1  0.13108744  0.06713524  0.54210768  1  3.168604  0  0.544118  1.286011  0  6.059658  0
S  S93  1  0.86891610  0.93285758  0.45788885  1  3.168611  0  0.54408  1.285966  0  6.059529  0
N  N94  1  0.37028337  0.84705947  0.71796759  1  -1.158261  0  -0.278866  -0.22656  0  3.606098  0
N  N95  1  0.62971726  0.15293972  0.28203289  1  -1.158331  0  -0.278829  -0.22643  0  3.606175  0
N  N96  1  0.25270956  0.72974741  0.72319927  1  -1.135928  0  -0.278248  -0.220254  0  3.586905  0
N  N97  1  0.74729125  0.27025094  0.27680304  1  -1.135995  0  -0.278244  -0.220307  0  3.587042  0
N  N98  1  0.40634853  0.61260139  0.62206884  1  -1.178081  0  -0.281714  -0.224798  0  3.617613  0
N  N99  1  0.59365295  0.38739784  0.37793306  1  -1.178113  0  -0.28173  -0.224689  0  3.617717  0
N  N100  1  0.52603911  0.72577080  0.62300477  1  -1.167993  0  -0.289079  -0.237343  0  3.62193  0
N  N101  1  0.47396152  0.27422842  0.37699650  1  -1.168003  0  -0.289128  -0.237415  0  3.622025  0
N  N102  1  0.16741755  0.55940436  0.82437396  1  -1.205633  0  -0.290878  -0.232294  0  3.639998  0
N  N103  1  0.83258290  0.44059571  0.17562549  1  -1.205615  0  -0.290807  -0.23236  0  3.640034  0
N  N104  1  0.17449426  0.40094893  0.97490190  1  -1.106609  0  -0.290355  -0.238482  0  3.590985  0
N  N105  1  0.82550365  0.59905115  0.02509721  1  -1.106643  0  -0.290392  -0.238395  0  3.590929  0
N  N106  1  0.31632421  0.27566794  0.87299671  1  -1.174744  0  -0.287679  -0.22736  0  3.6282  0
N  N107  1  0.68367473  0.72433126  0.12700329  1  -1.174738  0  -0.287678  -0.227347  0  3.62807  0
N  N108  1  0.32740189  0.43990886  0.73109951  1  -1.156387  0  -0.294213  -0.242467  0  3.589778  0
N  N109  1  0.67259789  0.56009035  0.26890112  1  -1.156351  0  -0.294232  -0.242434  0  3.589677  0
N  N110  1  0.22042906  0.26818107  0.15762870  1  -1.179479  0  -0.281124  -0.217688  0  3.620954  0
N  N111  1  0.77957122  0.73181989  0.84237048  1  -1.179499  0  -0.281162  -0.217768  0  3.620926  0
N  N112  1  0.33175372  0.22817826  0.29305196  1  -1.185267  0  -0.285112  -0.230819  0  3.615167  0
N  N113  1  0.66824705  0.77182447  0.70694656  1  -1.185126  0  -0.285119  -0.230955  0  3.615268  0
N  N114  1  0.48798511  0.10953172  0.19568456  1  -1.195259  0  -0.294928  -0.243097  0  3.640458  0
N  N115  1  0.51201414  0.89047012  0.80431374  1  -1.195319  0  -0.294941  -0.243134  0  3.640527  0
N  N116  1  0.37975711  0.15926558  0.05485844  1  -1.129496  0  -0.287135  -0.234705  0  3.596909  0
N  N117  1  0.62024250  0.84073449  0.94514038  1  -1.129498  0  -0.287134  -0.234727  0  3.596721  0
O  O118  1  0.94636411  0.91776941  0.84898922  1  -0.912009  0  -0.766097  -0.769604  0  1.813713  0
O  O119  1  0.05363871  0.08223163  0.15101422  1  -0.912093  0  -0.766164  -0.769669  0  1.813728  0
O  O120  1  0.14958660  0.10078048  0.83256606  1  -0.874357  0  -0.750327  -0.735823  0  1.80745  0
O  O121  1  0.85041653  0.89922310  0.16743098  1  -0.874253  0  -0.750301  -0.735765  0  1.807483  0
O  O122  1  0.88025901  0.33706588  0.49651948  1  -0.922388  0  -0.76862  -0.779845  0  1.813458  0
O  O123  1  0.11974261  0.66293681  0.50347733  1  -0.922381  0  -0.768635  -0.779829  0  1.813467  0
O  O124  1  0.04116376  0.36247476  0.70086914  1  -0.861873  0  -0.745719  -0.699796  0  1.825331  0
O  O125  1  0.95884011  0.63752083  0.29913116  1  -0.861827  0  -0.745669  -0.699784  0  1.825277  0
O  O126  1  0.12389768  0.98979653  0.65902832  1  -1.342709  0  -0.381978  -0.706013  0  2.414927  0
O  O127  1  0.87610059  0.01020182  0.34097365  1  -1.342808  0  -0.381995  -0.706021  0  2.414928  0
O  O128  1  0.12226269  0.19286545  0.53632210  1  -1.320096  0  -0.358605  -0.677642  0  2.306763  0
O  O129  1  0.87773981  0.80713282  0.46367757  1  -1.320198  0  -0.358522  -0.677593  0  2.307165  0
O  O130  1  0.23194136  0.01952238  0.47478524  1  -1.34183  0  -0.33397  -0.591952  0  2.153984  0
O  O131  1  0.76805031  0.98047513  0.52521660  1  -1.341747  0  -0.334013  -0.591988  0  2.153473  0
O  O132  1  0.93427139  0.16589897  0.72171920  1  -1.195861  0  -0.692726  -1.019957  0  2.030586  0
O  O133  1  0.06573075  0.83410105  0.27827839  1  -1.195857  0  -0.692756  -1.020091  0  2.0305  0
O  O134  1  0.07592617  0.89895315  0.03167944  1  -1.17311  0  -0.701193  -0.98942  0  1.998435  0
O  O135  1  0.92407715  0.10104961  0.96832099  1  -1.173025  0  -0.701278  -0.989524  0  1.998427  0
O  O136  1  0.90500954  0.55781593  0.54259066  1  -1.220323  0  -0.719371  -1.013672  0  2.068287  0
O  O137  1  0.09499635  0.44218234  0.45740998  1  -1.220283  0  -0.71933  -1.013666  0  2.068348  0
O  O138  1  0.78661818  0.39309504  0.71927310  1  -1.261805  0  -0.606529  -0.813342  0  2.004804  0
O  O139  1  0.21338330  0.60690417  0.28072802  1  -1.261931  0  -0.606554  -0.813312  0  2.004831  0
O  O140  1  0.21184869  0.83614083  0.85310059  1  -1.184207  0  -0.335664  -0.598721  0  2.340639  0
O  O141  1  0.78815279  0.16385834  0.14689897  1  -1.18415  0  -0.335685  -0.598738  0  2.340562  0
O  O142  1  0.60285435  0.52954659  0.61885717  1  -1.19077  0  -0.285273  -0.520058  0  2.233335  0
O  O143  1  0.39714678  0.47045442  0.38114422  1  -1.190784  0  -0.285237  -0.520009  0  2.233261  0
O  O144  1  0.11107884  0.59085412  0.00048028  1  -1.18674  0  -0.306799  -0.510993  0  2.103958  0
O  O145  1  0.88892161  0.40914595  0.99951916  1  -1.186776  0  -0.306783  -0.510994  0  2.103904  0
O  O146  1  0.48417055  0.27718605  0.74725464  1  -1.175151  0  -0.327044  -0.5236  0  2.071662  0
O  O147  1  0.51583161  0.72281412  0.25274920  1  -1.175148  0  -0.327052  -0.523607  0  2.071703  0
O  O148  1  0.18469270  0.39970803  0.26322609  1  -1.206683  0  -0.285474  -0.536759  0  2.280857  0
O  O149  1  0.81530856  0.60029642  0.73676943  1  -1.206632  0  -0.285522  -0.536849  0  2.280777  0
O  O150  1  0.58083811  0.11405945  0.01664010  1  -1.158993  0  -0.292833  -0.487226  0  2.116167  0
O  O151  1  0.41916149  0.88594059  0.98335793  1  -1.158945  0  -0.292855  -0.487271  0  2.116105  0
