# generated using pymatgen
data_CdH12(CN)12
_symmetry_space_group_name_H-M   'P 1'
_cell_length_a   6.34388189
_cell_length_b   7.74566631
_cell_length_c   9.74295309
_cell_angle_alpha   104.37531246
_cell_angle_beta   96.75395930
_cell_angle_gamma   110.57550069
_symmetry_Int_Tables_number   1
_chemical_formula_structural   CdH12(CN)12
_chemical_formula_sum   'Cd1 H12 C12 N12'
_cell_volume   422.95064814
_cell_formula_units_Z   1
loop_
 _symmetry_equiv_pos_site_id
 _symmetry_equiv_pos_as_xyz
  1  'x, y, z'
loop_
 _atom_site_type_symbol
 _atom_site_label
 _atom_site_symmetry_multiplicity
 _atom_site_fract_x
 _atom_site_fract_y
 _atom_site_fract_z
 _atom_site_occupancy
 _atom_site_hle17_bader_spin_density
 _atom_site_hle17_ddec_charge
 _atom_site_hle17_ddec_spin_density
 _atom_site_hle17_ddec_sum_bond_order
 _atom_site_hle17_magmom
 _atom_site_hse06_10hf_bader_spin_density
 _atom_site_hse06_10hf_ddec_charge
 _atom_site_hse06_10hf_ddec_spin_density
 _atom_site_hse06_10hf_ddec_sum_bond_order
 _atom_site_hse06_10hf_magmom
 _atom_site_hse06_bader_spin_density
 _atom_site_hse06_ddec_charge
 _atom_site_hse06_ddec_spin_density
 _atom_site_hse06_ddec_sum_bond_order
 _atom_site_hse06_magmom
 _atom_site_pbe_bader_spin_density
 _atom_site_pbe_cm5_charge
 _atom_site_pbe_ddec_charge
 _atom_site_pbe_ddec_spin_density
 _atom_site_pbe_ddec_sum_bond_order
 _atom_site_pbe_magmom
Cd  Cd0  1  0.00000130  0.00000290  0.00000067  1  0  1.146212  0  1.875175  0  0  0.962024  0  2.360218  0  0  1.008361  0  2.314633  0  0  0.828549  0.929246  0  2.39145  0
H  H1  1  0.45867386  0.18166791  0.50031888  1  0  0.089023  0  0.95031  0  0  0.094998  0  1.029825  0  0  0.096783  0  1.028522  0  0  0.113197  0.093645  0  1.030949  0
H  H2  1  0.54130938  0.81833294  0.49967887  1  0  0.08905  0  0.950329  0  0  0.095047  0  1.029797  0  0  0.096834  0  1.028488  0  0  0.113202  0.093694  0  1.030923  0
H  H3  1  0.35625012  0.19477651  0.32658653  1  0  0.07516  0  0.956098  0  0  0.089507  0  1.026493  0  0  0.088952  0  1.028012  0  0  0.109194  0.089798  0  1.02562  0
H  H4  1  0.64374783  0.80522174  0.67340670  1  0  0.075144  0  0.956096  0  0  0.089476  0  1.0265  0  0  0.088923  0  1.028012  0  0  0.109165  0.089772  0  1.025616  0
H  H5  1  0.65892932  0.53528360  0.39314085  1  0  0.072543  0  0.929229  0  0  0.091728  0  0.986532  0  0  0.092012  0  0.987785  0  0  0.092859  0.091491  0  0.985707  0
H  H6  1  0.34105776  0.46471875  0.60685441  1  0  0.072587  0  0.929204  0  0  0.091796  0  0.986473  0  0  0.092087  0  0.987714  0  0  0.092856  0.091558  0  0.985649  0
H  H7  1  0.74407494  0.52460958  0.56984887  1  0  0.074097  0  0.936573  0  0  0.090428  0  0.998442  0  0  0.091097  0  0.999554  0  0  0.090698  0.089874  0  0.99779  0
H  H8  1  0.25590924  0.47538984  0.43014559  1  0  0.074191  0  0.936542  0  0  0.090497  0  0.99841  0  0  0.091152  0  0.999538  0  0  0.090764  0.089944  0  0.997758  0
H  H9  1  0.02025408  0.96973911  0.36271461  1  0  0.092382  0  0.957827  0  0  0.097514  0  1.027691  0  0  0.099915  0  1.025035  0  0  0.131992  0.095575  0  1.030019  0
H  H10  1  0.97973461  0.03025615  0.63729478  1  0  0.09242  0  0.957944  0  0  0.097524  0  1.02783  0  0  0.099925  0  1.025172  0  0  0.131971  0.095586  0  1.03016  0
H  H11  1  0.64287705  0.21488496  0.14634343  1  0  0.115431  0  0.954749  0  0  0.121891  0  1.023877  0  0  0.124184  0  1.021275  0  0  0.138151  0.120099  0  1.025934  0
H  H12  1  0.35714658  0.78511387  0.85366830  1  0  0.115601  0  0.95427  0  0  0.121929  0  1.023557  0  0  0.124226  0  1.020957  0  0  0.138213  0.120135  0  1.025615  0
C  C13  1  0.50769280  0.24994021  0.41658879  1  0  -0.022985  0  3.631769  0  0  -0.09999  0  3.890847  0  0  -0.096523  0  3.902284  0  0  -0.054783  -0.102114  0  3.883072  0
C  C14  1  0.49230416  0.75005227  0.58340530  1  0  -0.022909  0  3.63177  0  0  -0.099916  0  3.890847  0  0  -0.096447  0  3.902292  0  0  -0.054757  -0.10204  0  3.883075  0
C  C15  1  0.59654871  0.47013052  0.47666714  1  0  -0.121288  0  3.674145  0  0  -0.161372  0  3.938438  0  0  -0.163418  0  3.953283  0  0  -0.162951  -0.159782  0  3.928155  0
C  C16  1  0.40344508  0.52986909  0.52332706  1  0  -0.121616  0  3.674339  0  0  -0.161689  0  3.938653  0  0  -0.16372  0  3.953479  0  0  -0.16303  -0.160097  0  3.92837  0
C  C17  1  0.90863689  0.04254079  0.33882959  1  0  0.190622  0  3.722604  0  0  0.137871  0  4.013516  0  0  0.149119  0  4.027007  0  0  0.139398  0.130734  0  4.003741  0
C  C18  1  0.09134824  0.95745007  0.66117559  1  0  0.190373  0  3.722413  0  0  0.137623  0  4.013339  0  0  0.148875  0  4.026821  0  0  0.139332  0.130483  0  4.003571  0
C  C19  1  0.72258141  0.16760542  0.22663866  1  0  0.176218  0  3.629035  0  0  0.100123  0  3.888394  0  0  0.113782  0  3.901203  0  0  0.162705  0.091545  0  3.879367  0
C  C20  1  0.27741761  0.83241299  0.77336065  1  0  0.176098  0  3.629112  0  0  0.100145  0  3.888542  0  0  0.113801  0  3.901351  0  0  0.162729  0.091568  0  3.879513  0
C  C21  1  0.73860428  0.26667493  0.85786358  1  0  0.530495  0  3.973592  0  0  0.491052  0  4.253276  0  0  0.518205  0  4.263677  0  0  0.312326  0.4722  0  4.246875  0
C  C22  1  0.26140425  0.73332924  0.14212238  1  0  0.530253  0  3.97306  0  0  0.490765  0  4.252783  0  0  0.517928  0  4.263189  0  0  0.312152  0.471914  0  4.246381  0
C  C23  1  0.66973409  0.54354238  0.86896907  1  0  0.509457  0  3.993532  0  0  0.470342  0  4.276923  0  0  0.49646  0  4.289079  0  0  0.303588  0.452615  0  4.268098  0
C  C24  1  0.33024944  0.45645558  0.13102404  1  0  0.509399  0  3.99457  0  0  0.470235  0  4.277972  0  0  0.496355  0  4.290131  0  0  0.303503  0.452515  0  4.269142  0
N  N25  1  0.67446196  0.17989156  0.35849267  1  0  0.055272  0  3.541375  0  0  0.177333  0  3.725599  0  0  0.168037  0  3.747055  0  0  -0.129847  0.18296  0  3.711732  0
N  N26  1  0.32553378  0.82010527  0.64151551  1  0  0.055186  0  3.541461  0  0  0.177177  0  3.7257  0  0  0.167847  0  3.747208  0  0  -0.129924  0.182805  0  3.711833  0
N  N27  1  0.79230286  0.10105530  0.43218625  1  0  -0.275828  0  2.854237  0  0  -0.274846  0  3.12056  0  0  -0.282751  0  3.132991  0  0  -0.222196  -0.269272  0  3.112571  0
N  N28  1  0.20769382  0.89894010  0.56781864  1  0  -0.27567  0  2.853993  0  0  -0.274644  0  3.120322  0  0  -0.28254  0  3.132754  0  0  -0.222106  -0.26907  0  3.112332  0
N  N29  1  0.87196586  0.08184714  0.21108577  1  0  -0.426042  0  3.219049  0  0  -0.351726  0  3.510799  0  0  -0.374768  0  3.526306  0  0  -0.350774  -0.335681  0  3.499239  0
N  N30  1  0.12804495  0.91815143  0.78892287  1  0  -0.425975  0  3.219113  0  0  -0.351642  0  3.510805  0  0  -0.374681  0  3.526309  0  0  -0.350802  -0.3356  0  3.49925  0
N  N31  1  0.66321527  0.37498460  0.80303107  1  0  -0.45364  0  3.304354  0  0  -0.396931  0  3.563218  0  0  -0.421092  0  3.567847  0  0  -0.303152  -0.380293  0  3.559868  0
N  N32  1  0.33681752  0.62499567  0.19696643  1  0  -0.453548  0  3.304036  0  0  -0.396765  0  3.562864  0  0  -0.420942  0  3.567497  0  0  -0.303048  -0.38013  0  3.55951  0
N  N33  1  0.79986300  0.15397281  0.89347808  1  0  -0.624316  0  2.801511  0  0  -0.572271  0  3.080123  0  0  -0.595785  0  3.084565  0  0  -0.388764  -0.556222  0  3.077782  0
N  N34  1  0.20012990  0.84603543  0.10652493  1  0  -0.62405  0  2.801696  0  0  -0.571984  0  3.080307  0  0  -0.595493  0  3.084751  0  0  -0.388598  -0.555943  0  3.077972  0
N  N35  1  0.66500137  0.69855407  0.91505158  1  0  -0.629655  0  2.761433  0  0  -0.586601  0  3.036226  0  0  -0.608326  0  3.041053  0  0  -0.395891  -0.571725  0  3.032738  0
N  N36  1  0.33502657  0.30147929  0.08495285  1  0  -0.629691  0  2.761814  0  0  -0.586647  0  3.0366  0  0  -0.608371  0  3.041421  0  0  -0.395922  -0.571784  0  3.033147  0
