# generated using pymatgen
data_Cd3H22(C5O3)6
_symmetry_space_group_name_H-M   'P 1'
_cell_length_a   6.56521962
_cell_length_b   14.69999258
_cell_length_c   20.04724282
_cell_angle_alpha   86.33787314
_cell_angle_beta   80.57302165
_cell_angle_gamma   77.08238737
_symmetry_Int_Tables_number   1
_chemical_formula_structural   Cd3H22(C5O3)6
_chemical_formula_sum   'Cd6 H44 C60 O36'
_cell_volume   1859.55506171
_cell_formula_units_Z   2
loop_
 _symmetry_equiv_pos_site_id
 _symmetry_equiv_pos_as_xyz
  1  'x, y, z'
loop_
 _atom_site_type_symbol
 _atom_site_label
 _atom_site_symmetry_multiplicity
 _atom_site_fract_x
 _atom_site_fract_y
 _atom_site_fract_z
 _atom_site_occupancy
 _atom_site_hle17_bader_spin_density
 _atom_site_hle17_ddec_charge
 _atom_site_hle17_ddec_spin_density
 _atom_site_hle17_ddec_sum_bond_order
 _atom_site_hle17_magmom
 _atom_site_hse06_10hf_bader_spin_density
 _atom_site_hse06_10hf_ddec_charge
 _atom_site_hse06_10hf_ddec_spin_density
 _atom_site_hse06_10hf_ddec_sum_bond_order
 _atom_site_hse06_10hf_magmom
 _atom_site_hse06_bader_spin_density
 _atom_site_hse06_ddec_charge
 _atom_site_hse06_ddec_spin_density
 _atom_site_hse06_ddec_sum_bond_order
 _atom_site_hse06_magmom
 _atom_site_pbe_bader_spin_density
 _atom_site_pbe_cm5_charge
 _atom_site_pbe_ddec_charge
 _atom_site_pbe_ddec_spin_density
 _atom_site_pbe_ddec_sum_bond_order
 _atom_site_pbe_magmom
Cd  Cd0  1  0.46870229  0.24999927  0.74997530  1  0  1.221245  0  1.532292  0  0  1.036887  0  1.949824  0  0  1.103816  0  1.889845  0  0  0.773595  0.989244  0  1.990486  0
Cd  Cd1  1  0.53132111  0.74999513  0.25001932  1  0  1.221212  0  1.532379  0  0  1.036838  0  1.94989  0  0  1.103756  0  1.889938  0  0  0.773581  0.989193  0  1.990545  0
Cd  Cd2  1  0.06701646  0.03751809  0.74296084  1  0  1.284025  0  1.50105  0  0  1.113471  0  1.935768  0  0  1.173356  0  1.875073  0  0  0.777694  1.070455  0  1.97779  0
Cd  Cd3  1  0.84687755  0.46245206  0.75707845  1  0  1.283838  0  1.502627  0  0  1.112874  0  1.937767  0  0  1.172779  0  1.876982  0  0  0.77782  1.069849  0  1.979823  0
Cd  Cd4  1  0.93302496  0.96248123  0.25703638  1  0  1.284049  0  1.500898  0  0  1.113503  0  1.935609  0  0  1.173389  0  1.874914  0  0  0.77774  1.070482  0  1.977627  0
Cd  Cd5  1  0.15313666  0.53754591  0.24292198  1  0  1.283732  0  1.502621  0  0  1.112737  0  1.937747  0  0  1.172649  0  1.876969  0  0  0.777795  1.069722  0  1.979792  0
H  H6  1  0.12378669  0.73466602  0.87612765  1  0  0.101199  0  0.939196  0  0  0.113051  0  0.996823  0  0  0.116335  0  0.99523  0  0  0.105837  0.110719  0  0.998014  0
H  H7  1  0.73328097  0.76524152  0.62394403  1  0  0.101072  0  0.939732  0  0  0.112579  0  0.997666  0  0  0.115952  0  0.99596  0  0  0.105223  0.110161  0  0.998954  0
H  H8  1  0.87621742  0.26533265  0.12387326  1  0  0.101177  0  0.93906  0  0  0.113034  0  0.996678  0  0  0.116317  0  0.995084  0  0  0.105828  0.110685  0  0.997885  0
H  H9  1  0.26673492  0.23475503  0.37605544  1  0  0.101137  0  0.939742  0  0  0.112647  0  0.997674  0  0  0.116017  0  0.995969  0  0  0.105229  0.110225  0  0.998962  0
H  H10  1  0.19950624  0.55966995  0.87833837  1  0  0.10048  0  0.920938  0  0  0.11606  0  0.968378  0  0  0.118619  0  0.967449  0  0  0.111384  0.114211  0  0.969107  0
H  H11  1  0.63601089  0.94034805  0.62176080  1  0  0.098527  0  0.921917  0  0  0.114988  0  0.968653  0  0  0.117503  0  0.967787  0  0  0.110924  0.113093  0  0.969461  0
H  H12  1  0.80049241  0.44033159  0.12166961  1  0  0.100547  0  0.920996  0  0  0.116118  0  0.968434  0  0  0.118677  0  0.967505  0  0  0.111398  0.11428  0  0.969162  0
H  H13  1  0.36401554  0.05964707  0.37823504  1  0  0.09855  0  0.921726  0  0  0.11494  0  0.968539  0  0  0.117501  0  0.967614  0  0  0.110897  0.113044  0  0.969348  0
H  H14  1  0.30098937  0.73802804  0.66036022  1  0  0.12647  0  0.952794  0  0  0.136187  0  1.012353  0  0  0.139888  0  1.010658  0  0  0.111216  0.133582  0  1.013656  0
H  H15  1  0.69995567  0.76194629  0.83965167  1  0  0.12619  0  0.951996  0  0  0.136081  0  1.011591  0  0  0.139778  0  1.009913  0  0  0.111503  0.133476  0  1.012894  0
H  H16  1  0.69901652  0.26196578  0.33964448  1  0  0.126326  0  0.952864  0  0  0.136161  0  1.012276  0  0  0.139862  0  1.010585  0  0  0.111226  0.133555  0  1.013577  0
H  H17  1  0.30003691  0.23805306  0.16034806  1  0  0.126161  0  0.951963  0  0  0.136028  0  1.011598  0  0  0.139727  0  1.009918  0  0  0.111484  0.133425  0  1.012901  0
H  H18  1  0.08215866  0.64131251  0.59758810  1  0  0.13484  0  0.961542  0  0  0.142841  0  1.022364  0  0  0.14702  0  1.02016  0  0  0.109448  0.139724  0  1.024197  0
H  H19  1  0.32176169  0.85877357  0.90247392  1  0  0.134109  0  0.960138  0  0  0.141987  0  1.021192  0  0  0.146233  0  1.018897  0  0  0.109345  0.138904  0  1.023006  0
H  H20  1  0.91781359  0.35870152  0.40241207  1  0  0.134933  0  0.961537  0  0  0.142883  0  1.02241  0  0  0.147094  0  1.020163  0  0  0.10947  0.139796  0  1.024208  0
H  H21  1  0.67822889  0.14121957  0.09753254  1  0  0.134081  0  0.960194  0  0  0.141939  0  1.02128  0  0  0.146184  0  1.018987  0  0  0.109328  0.138845  0  1.023109  0
H  H22  1  0.11095428  0.71145182  0.47972467  1  0  0.092976  0  0.942687  0  0  0.104556  0  0.99952  0  0  0.10788  0  0.99721  0  0  0.103987  0.102116  0  1.001258  0
H  H23  1  0.30249991  0.78898363  0.02038340  1  0  0.092668  0  0.943182  0  0  0.104192  0  1.000242  0  0  0.107502  0  0.997946  0  0  0.103627  0.101769  0  1.001954  0
H  H24  1  0.88902761  0.28855243  0.52027551  1  0  0.092933  0  0.942698  0  0  0.104494  0  0.999542  0  0  0.107823  0  0.997226  0  0  0.103972  0.102053  0  1.001279  0
H  H25  1  0.69751088  0.21101434  0.97961736  1  0  0.092632  0  0.943321  0  0  0.10414  0  1.000387  0  0  0.10745  0  0.998091  0  0  0.103629  0.101714  0  1.002118  0
H  H26  1  0.78737785  0.60640959  0.45224325  1  0  0.097438  0  0.958361  0  0  0.1086  0  1.018475  0  0  0.111794  0  1.01607  0  0  0.104396  0.106304  0  1.020183  0
H  H27  1  0.84648287  0.89382364  0.04785767  1  0  0.09904  0  0.957983  0  0  0.10968  0  1.018372  0  0  0.112838  0  1.016036  0  0  0.10584  0.107405  0  1.020045  0
H  H28  1  0.21259924  0.39359539  0.54775982  1  0  0.097364  0  0.958315  0  0  0.108626  0  1.018319  0  0  0.111818  0  1.015916  0  0  0.104386  0.106326  0  1.020032  0
H  H29  1  0.15351726  0.10618261  0.95213406  1  0  0.099003  0  0.95799  0  0  0.109583  0  1.018458  0  0  0.112739  0  1.016121  0  0  0.105839  0.107308  0  1.020132  0
H  H30  1  0.75613780  0.53880479  0.57064107  1  0  0.133624  0  0.930099  0  0  0.143726  0  0.987484  0  0  0.147578  0  0.985343  0  0  0.113358  0.14096  0  0.989172  0
H  H31  1  0.86590643  0.96148607  0.92944933  1  0  0.132826  0  0.92934  0  0  0.143553  0  0.986113  0  0  0.147285  0  0.984094  0  0  0.113249  0.140854  0  0.98771  0
H  H32  1  0.24384797  0.46120929  0.42936408  1  0  0.133594  0  0.930118  0  0  0.143748  0  0.987463  0  0  0.147601  0  0.985319  0  0  0.113327  0.140982  0  0.989151  0
H  H33  1  0.13408298  0.03852432  0.07053863  1  0  0.132711  0  0.929551  0  0  0.143507  0  0.986274  0  0  0.147237  0  0.98426  0  0  0.11328  0.140819  0  0.987875  0
H  H34  1  0.09781126  0.15092641  0.85010080  1  0  0.425746  0  0.879624  0  0  0.393452  0  0.94579  0  0  0.404547  0  0.929625  0  0  0.288459  0.385457  0  0.957426  0
H  H35  1  0.09890226  0.34916115  0.64996537  1  0  0.425011  0  0.880558  0  0  0.392598  0  0.946912  0  0  0.403701  0  0.930725  0  0  0.288628  0.384613  0  0.958551  0
H  H36  1  0.90221365  0.84907081  0.14989548  1  0  0.425769  0  0.879561  0  0  0.393482  0  0.945718  0  0  0.404572  0  0.929559  0  0  0.288493  0.385491  0  0.957353  0
H  H37  1  0.90109156  0.65083471  0.35003338  1  0  0.425086  0  0.880464  0  0  0.392691  0  0.946778  0  0  0.403793  0  0.930596  0  0  0.288713  0.384707  0  0.958415  0
H  H38  1  0.85001331  0.15521895  0.85225226  1  0  0.422828  0  0.882639  0  0  0.390019  0  0.949406  0  0  0.400825  0  0.933787  0  0  0.288108  0.382269  0  0.960591  0
H  H39  1  0.85754934  0.34481989  0.64779152  1  0  0.424774  0  0.879864  0  0  0.391502  0  0.947259  0  0  0.402344  0  0.931618  0  0  0.289061  0.383747  0  0.958433  0
H  H40  1  0.15000618  0.84478735  0.14774478  1  0  0.422821  0  0.882617  0  0  0.390031  0  0.949356  0  0  0.400832  0  0.933741  0  0  0.288151  0.382298  0  0.960527  0
H  H41  1  0.14243967  0.65517669  0.35221012  1  0  0.424647  0  0.880042  0  0  0.391315  0  0.947512  0  0  0.402153  0  0.931882  0  0  0.288995  0.38356  0  0.958686  0
H  H42  1  0.93310970  0.17881171  0.63812600  1  0  0.434327  0  0.860042  0  0  0.402303  0  0.923983  0  0  0.412633  0  0.908969  0  0  0.293714  0.39494  0  0.934671  0
H  H43  1  0.74977114  0.32139051  0.86191659  1  0  0.434299  0  0.860429  0  0  0.402412  0  0.924034  0  0  0.412737  0  0.909026  0  0  0.293796  0.395048  0  0.934729  0
H  H44  1  0.06688728  0.82118556  0.36187503  1  0  0.434277  0  0.860105  0  0  0.402251  0  0.924054  0  0  0.412581  0  0.909037  0  0  0.293708  0.394889  0  0.934742  0
H  H45  1  0.25023289  0.67861726  0.13808591  1  0  0.434461  0  0.86021  0  0  0.402573  0  0.923811  0  0  0.412895  0  0.908806  0  0  0.293881  0.395211  0  0.934504  0
H  H46  1  0.17601296  0.17148992  0.63976947  1  0  0.431538  0  0.842302  0  0  0.403927  0  0.904813  0  0  0.413244  0  0.891236  0  0  0.303327  0.397207  0  0.914636  0
H  H47  1  0.98712694  0.32854953  0.86020474  1  0  0.430026  0  0.843034  0  0  0.402165  0  0.907111  0  0  0.411493  0  0.89352  0  0  0.302311  0.395427  0  0.916963  0
H  H48  1  0.82398244  0.82851156  0.36023253  1  0  0.431544  0  0.842145  0  0  0.403942  0  0.904756  0  0  0.413258  0  0.89118  0  0  0.303355  0.397223  0  0.914578  0
H  H49  1  0.01287985  0.67146170  0.13979475  1  0  0.430011  0  0.843189  0  0  0.402123  0  0.907214  0  0  0.411454  0  0.893618  0  0  0.302253  0.395385  0  0.917067  0
C  C50  1  0.15905650  0.84989322  0.76484159  1  0  0.616783  0  3.947071  0  0  0.567626  0  4.23973  0  0  0.600927  0  4.237515  0  0  0.188888  0.545017  0  4.240397  0
C  C51  1  0.77350296  0.65004953  0.73519274  1  0  0.615758  0  3.948438  0  0  0.566887  0  4.241044  0  0  0.600192  0  4.238868  0  0  0.188774  0.544287  0  4.241697  0
C  C52  1  0.84095579  0.15010473  0.23515768  1  0  0.616825  0  3.946967  0  0  0.567683  0  4.239661  0  0  0.60099  0  4.237445  0  0  0.188941  0.545071  0  4.240329  0
C  C53  1  0.22648203  0.34994427  0.26480972  1  0  0.615921  0  3.948372  0  0  0.567032  0  4.240964  0  0  0.600339  0  4.238782  0  0  0.188743  0.544431  0  4.241622  0
C  C54  1  0.20892561  0.74541997  0.76791191  1  0  -0.0185  0  3.748999  0  0  0.005869  0  3.982499  0  0  0.001477  0  4.003696  0  0  -0.009498  0.00866  0  3.968456  0
C  C55  1  0.72188566  0.75454526  0.73212514  1  0  -0.019581  0  3.749775  0  0  0.003857  0  3.984519  0  0  -0.000555  0  4.005781  0  0  -0.009713  0.006665  0  3.970437  0
C  C56  1  0.79108135  0.25458080  0.23208969  1  0  -0.018595  0  3.749102  0  0  0.00564  0  3.982818  0  0  0.001225  0  4.004058  0  0  -0.009599  0.008435  0  3.968767  0
C  C57  1  0.27809914  0.24544993  0.26787678  1  0  -0.019707  0  3.750113  0  0  0.003783  0  3.984785  0  0  -0.000643  0  4.00607  0  0  -0.009694  0.006589  0  3.970704  0
C  C58  1  0.18175725  0.69618528  0.82967141  1  0  -0.072477  0  3.706197  0  0  -0.103765  0  3.966182  0  0  -0.104451  0  3.983922  0  0  -0.086054  -0.103263  0  3.954173  0
C  C59  1  0.70663835  0.80372803  0.67038488  1  0  -0.070122  0  3.707235  0  0  -0.10064  0  3.967106  0  0  -0.101377  0  3.984834  0  0  -0.084702  -0.100071  0  3.955105  0
C  C60  1  0.81824002  0.30381623  0.17033333  1  0  -0.072372  0  3.706013  0  0  -0.103625  0  3.966027  0  0  -0.104305  0  3.983773  0  0  -0.086005  -0.103106  0  3.954025  0
C  C61  1  0.29336810  0.19626991  0.32961406  1  0  -0.070344  0  3.707632  0  0  -0.100895  0  3.967484  0  0  -0.101628  0  3.985228  0  0  -0.084801  -0.100326  0  3.955481  0
C  C62  1  0.22398820  0.59894174  0.83078092  1  0  -0.036392  0  3.735623  0  0  -0.059942  0  3.990658  0  0  -0.057968  0  4.008086  0  0  -0.079066  -0.06114  0  3.9787  0
C  C63  1  0.65278649  0.90099878  0.66927756  1  0  -0.034574  0  3.735721  0  0  -0.059316  0  3.990987  0  0  -0.057261  0  4.00851  0  0  -0.078075  -0.060513  0  3.978974  0
C  C64  1  0.77600665  0.40105976  0.16922315  1  0  -0.03641  0  3.735686  0  0  -0.059988  0  3.990691  0  0  -0.058017  0  4.008105  0  0  -0.079  -0.061195  0  3.978743  0
C  C65  1  0.34723224  0.09899913  0.33071838  1  0  -0.034377  0  3.735605  0  0  -0.059048  0  3.990816  0  0  -0.057022  0  4.008334  0  0  -0.077941  -0.060246  0  3.978803  0
C  C66  1  0.29859256  0.55089042  0.77064817  1  0  -0.188521  0  3.781744  0  0  -0.174552  0  4.034571  0  0  -0.18352  0  4.052624  0  0  -0.029376  -0.16854  0  4.022453  0
C  C67  1  0.61997702  0.94905857  0.72937641  1  0  -0.19008  0  3.78261  0  0  -0.175496  0  4.034742  0  0  -0.184573  0  4.052978  0  0  -0.030518  -0.1694  0  4.022449  0
C  C68  1  0.70138615  0.44911034  0.22935235  1  0  -0.188519  0  3.781881  0  0  -0.174432  0  4.034549  0  0  -0.183372  0  4.052553  0  0  -0.029377  -0.168419  0  4.022436  0
C  C69  1  0.38004066  0.05093446  0.27061999  1  0  -0.190096  0  3.782372  0  0  -0.175564  0  4.0344  0  0  -0.184649  0  4.052655  0  0  -0.030526  -0.16946  0  4.022107  0
C  C70  1  0.32781196  0.60086740  0.70907039  1  0  0.270315  0  3.778696  0  0  0.250973  0  4.046818  0  0  0.262437  0  4.061436  0  0  0.089223  0.242994  0  4.037021  0
C  C71  1  0.63817134  0.89910339  0.79095187  1  0  0.267785  0  3.779558  0  0  0.248492  0  4.047335  0  0  0.260009  0  4.061966  0  0  0.089657  0.240477  0  4.037521  0
C  C72  1  0.67219365  0.39912502  0.29093376  1  0  0.270324  0  3.778671  0  0  0.25103  0  4.046713  0  0  0.262489  0  4.061323  0  0  0.089285  0.243051  0  4.036917  0
C  C73  1  0.36181371  0.10089453  0.20904532  1  0  0.267769  0  3.779635  0  0  0.248719  0  4.047219  0  0  0.260246  0  4.061839  0  0  0.089736  0.2407  0  4.037405  0
C  C74  1  0.28120739  0.69781047  0.70744454  1  0  -0.183629  0  3.711621  0  0  -0.217241  0  3.966259  0  0  -0.221426  0  3.985292  0  0  -0.093695  -0.214465  0  3.953782  0
C  C75  1  0.68670127  0.80216006  0.79256397  1  0  -0.1807  0  3.709554  0  0  -0.21471  0  3.965088  0  0  -0.218849  0  3.98405  0  0  -0.094146  -0.211933  0  3.952565  0
C  C76  1  0.71880957  0.30218266  0.29256025  1  0  -0.18351  0  3.711799  0  0  -0.217169  0  3.966423  0  0  -0.22135  0  3.985462  0  0  -0.093746  -0.214389  0  3.953939  0
C  C77  1  0.31328500  0.19783513  0.20743804  1  0  -0.180683  0  3.709688  0  0  -0.21471  0  3.965131  0  0  -0.218842  0  3.984082  0  0  -0.094181  -0.211934  0  3.952614  0
C  C78  1  0.34954125  0.44707494  0.76812285  1  0  0.714606  0  3.837721  0  0  0.654523  0  4.134027  0  0  0.692994  0  4.123576  0  0  0.222685  0.628186  0  4.140346  0
C  C79  1  0.56464770  0.05287858  0.73186936  1  0  0.719468  0  3.833794  0  0  0.659647  0  4.129389  0  0  0.698027  0  4.11914  0  0  0.225514  0.63337  0  4.135572  0
C  C80  1  0.65044363  0.55292098  0.23188171  1  0  0.714456  0  3.838278  0  0  0.654273  0  4.134663  0  0  0.692738  0  4.12422  0  0  0.222591  0.627934  0  4.140975  0
C  C81  1  0.43536585  0.94711379  0.26812997  1  0  0.719254  0  3.834122  0  0  0.659495  0  4.129617  0  0  0.697877  0  4.119365  0  0  0.225532  0.633199  0  4.135839  0
C  C82  1  0.41907578  0.58846874  0.58919186  1  0  0.298533  0  3.757907  0  0  0.28808  0  4.019677  0  0  0.299521  0  4.035337  0  0  0.096508  0.280311  0  4.008907  0
C  C83  1  0.59742816  0.91167164  0.91081972  1  0  0.29698  0  3.758764  0  0  0.286945  0  4.020286  0  0  0.298367  0  4.035986  0  0  0.09672  0.279171  0  4.009516  0
C  C84  1  0.58090576  0.41153206  0.41081199  1  0  0.298513  0  3.757777  0  0  0.288242  0  4.01935  0  0  0.299684  0  4.035009  0  0  0.096548  0.280468  0  4.008592  0
C  C85  1  0.40255314  0.08833396  0.08917727  1  0  0.29689  0  3.758719  0  0  0.287183  0  4.020058  0  0  0.298606  0  4.035756  0  0  0.096882  0.279407  0  4.009287  0
C  C86  1  0.23482013  0.63583831  0.56498754  1  0  -0.18113  0  3.718735  0  0  -0.198113  0  3.963407  0  0  -0.205251  0  3.983496  0  0  -0.092268  -0.193274  0  3.949855  0
C  C87  1  0.43632548  0.86435007  0.93505013  1  0  -0.179876  0  3.714655  0  0  -0.196976  0  3.959592  0  0  -0.204147  0  3.979648  0  0  -0.092161  -0.192184  0  3.94601  0
C  C88  1  0.76516482  0.36416457  0.43501492  1  0  -0.181233  0  3.718897  0  0  -0.198228  0  3.963499  0  0  -0.205389  0  3.983569  0  0  -0.092296  -0.193414  0  3.949933  0
C  C89  1  0.56367532  0.13564931  0.06495217  1  0  -0.179823  0  3.71463  0  0  -0.196945  0  3.959482  0  0  -0.204115  0  3.979538  0  0  -0.092165  -0.192146  0  3.945908  0
C  C90  1  0.25240449  0.67396544  0.49960270  1  0  -0.037198  0  3.737532  0  0  -0.060305  0  3.984868  0  0  -0.058562  0  4.005988  0  0  -0.078173  -0.061158  0  3.970397  0
C  C91  1  0.42648668  0.82634895  0.00048336  1  0  -0.036628  0  3.736362  0  0  -0.060011  0  3.983506  0  0  -0.058255  0  4.004654  0  0  -0.078075  -0.060881  0  3.969003  0
C  C92  1  0.74757672  0.32604020  0.50039745  1  0  -0.037176  0  3.73757  0  0  -0.060177  0  3.984887  0  0  -0.058439  0  4.006016  0  0  -0.078205  -0.061032  0  3.97042  0
C  C93  1  0.57352651  0.17365111  0.99951702  1  0  -0.036609  0  3.736436  0  0  -0.059917  0  3.983623  0  0  -0.058161  0  4.004774  0  0  -0.078055  -0.060793  0  3.969135  0
C  C94  1  0.45144656  0.66531269  0.45884984  1  0  -0.102306  0  3.793397  0  0  -0.085325  0  4.039753  0  0  -0.09635  0  4.064724  0  0  -0.030099  -0.078181  0  4.02295  0
C  C95  1  0.57620896  0.83489787  0.04122959  1  0  -0.103348  0  3.791855  0  0  -0.085451  0  4.03705  0  0  -0.096438  0  4.062  0  0  -0.031467  -0.07833  0  4.020263  0
C  C96  1  0.54853333  0.33469158  0.54115234  1  0  -0.102067  0  3.793046  0  0  -0.085283  0  4.03967  0  0  -0.096312  0  4.064641  0  0  -0.029999  -0.078135  0  4.02286  0
C  C97  1  0.42380497  0.16510983  0.95876767  1  0  -0.103179  0  3.791695  0  0  -0.085428  0  4.037064  0  0  -0.096417  0  4.062018  0  0  -0.031462  -0.078304  0  4.020274  0
C  C98  1  0.63341211  0.61576193  0.48417478  1  0  -0.042792  0  3.732774  0  0  -0.066509  0  3.981696  0  0  -0.064787  0  4.00266  0  0  -0.080228  -0.067353  0  3.967335  0
C  C99  1  0.73394060  0.88444300  0.01589156  1  0  -0.042717  0  3.733941  0  0  -0.066379  0  3.983148  0  0  -0.064639  0  4.004035  0  0  -0.079916  -0.067234  0  3.968817  0
C  C100  1  0.36656874  0.38424235  0.51582798  1  0  -0.042909  0  3.732547  0  0  -0.06666  0  3.981571  0  0  -0.064933  0  4.002529  0  0  -0.080256  -0.067505  0  3.967208  0
C  C101  1  0.26607140  0.11556600  0.98409768  1  0  -0.042598  0  3.733652  0  0  -0.066099  0  3.982917  0  0  -0.064361  0  4.003815  0  0  -0.079837  -0.066956  0  3.968591  0
C  C102  1  0.61797040  0.57688325  0.54938248  1  0  -0.162398  0  3.710087  0  0  -0.185904  0  3.96668  0  0  -0.192002  0  3.986464  0  0  -0.089422  -0.181915  0  3.953339  0
C  C103  1  0.74480264  0.92329857  0.95066997  1  0  -0.162055  0  3.711036  0  0  -0.186125  0  3.967183  0  0  -0.192118  0  3.986974  0  0  -0.090057  -0.182179  0  3.953803  0
C  C104  1  0.38200886  0.42312032  0.45061913  1  0  -0.162229  0  3.710006  0  0  -0.185835  0  3.966559  0  0  -0.19193  0  3.986337  0  0  -0.089372  -0.181846  0  3.953216  0
C  C105  1  0.25519546  0.07670978  0.04932271  1  0  -0.162044  0  3.71116  0  0  -0.186313  0  3.967376  0  0  -0.192307  0  3.987166  0  0  -0.090198  -0.18239  0  3.954019  0
C  C106  1  0.46788159  0.70581587  0.38932233  1  0  0.679779  0  3.842441  0  0  0.623744  0  4.134383  0  0  0.659886  0  4.126767  0  0  0.214657  0.599095  0  4.138809  0
C  C107  1  0.56355289  0.79425879  0.11073964  1  0  0.675851  0  3.843536  0  0  0.619653  0  4.135557  0  0  0.655752  0  4.127986  0  0  0.212785  0.595017  0  4.139961  0
C  C108  1  0.53211249  0.29418347  0.61067590  1  0  0.679635  0  3.842504  0  0  0.623626  0  4.134494  0  0  0.659769  0  4.126884  0  0  0.214643  0.598975  0  4.138916  0
C  C109  1  0.43647613  0.20574608  0.88925478  1  0  0.675478  0  3.843716  0  0  0.619309  0  4.135788  0  0  0.655419  0  4.128223  0  0  0.212609  0.594675  0  4.140184  0
O  O110  1  0.12343400  0.89531211  0.81882969  1  0  -0.640144  0  1.945741  0  0  -0.58797  0  2.187069  0  0  -0.615791  0  2.179455  0  0  -0.323665  -0.568387  0  2.191678  0
O  O111  1  0.83676152  0.60461431  0.68119304  1  0  -0.640059  0  1.946318  0  0  -0.588006  0  2.187853  0  0  -0.615821  0  2.180212  0  0  -0.323909  -0.56837  0  2.192323  0
O  O112  1  0.87658598  0.10468513  0.18116842  1  0  -0.64022  0  1.945653  0  0  -0.588074  0  2.187042  0  0  -0.615895  0  2.179422  0  0  -0.323733  -0.56849  0  2.191653  0
O  O113  1  0.16324536  0.39538158  0.31880960  1  0  -0.640079  0  1.946342  0  0  -0.588009  0  2.187873  0  0  -0.615846  0  2.180275  0  0  -0.323857  -0.568371  0  2.19234  0
O  O114  1  0.99342101  0.11435211  0.84283922  1  0  -0.842822  0  1.852851  0  0  -0.780871  0  2.049207  0  0  -0.803881  0  2.013142  0  0  -0.588148  -0.76449  0  2.074638  0
O  O115  1  0.95060416  0.38563884  0.65727123  1  0  -0.843654  0  1.851964  0  0  -0.781294  0  2.049398  0  0  -0.804327  0  2.013089  0  0  -0.589168  -0.764922  0  2.074866  0
O  O116  1  0.00658883  0.88565000  0.15715727  1  0  -0.84278  0  1.85276  0  0  -0.780872  0  2.049107  0  0  -0.803871  0  2.013062  0  0  -0.588233  -0.764523  0  2.074479  0
O  O117  1  0.04938549  0.61435637  0.34273202  1  0  -0.843591  0  1.852007  0  0  -0.781179  0  2.049544  0  0  -0.80421  0  2.01324  0  0  -0.5892  -0.764813  0  2.075027  0
O  O118  1  0.15304860  0.89060929  0.70613894  1  0  -0.656533  0  1.962869  0  0  -0.587975  0  2.198544  0  0  -0.620675  0  2.192605  0  0  -0.333788  -0.565069  0  2.201895  0
O  O119  1  0.74995897  0.60933105  0.79390859  1  0  -0.656173  0  1.963448  0  0  -0.587537  0  2.198998  0  0  -0.620236  0  2.19306  0  0  -0.333744  -0.564618  0  2.202308  0
O  O120  1  0.84695748  0.10938729  0.29386260  1  0  -0.656487  0  1.962881  0  0  -0.587931  0  2.198574  0  0  -0.620631  0  2.192629  0  0  -0.33374  -0.565023  0  2.201924  0
O  O121  1  0.25001667  0.39066693  0.20609334  1  0  -0.656241  0  1.963357  0  0  -0.58759  0  2.198903  0  0  -0.620298  0  2.192976  0  0  -0.333752  -0.564672  0  2.202219  0
O  O122  1  0.06777512  0.13454319  0.64287292  1  0  -0.82976  0  1.804272  0  0  -0.768381  0  1.972478  0  0  -0.78916  0  1.939621  0  0  -0.586074  -0.753726  0  1.995665  0
O  O123  1  0.84499189  0.36558679  0.85721232  1  0  -0.827828  0  1.805624  0  0  -0.766283  0  1.9748  0  0  -0.787087  0  1.941944  0  0  -0.584667  -0.751616  0  1.997988  0
O  O124  1  0.93222165  0.86545833  0.35713232  1  0  -0.829731  0  1.804142  0  0  -0.768364  0  1.972423  0  0  -0.789134  0  1.939575  0  0  -0.586107  -0.75371  0  1.995607  0
O  O125  1  0.15501293  0.63442161  0.14278442  1  0  -0.82794  0  1.805517  0  0  -0.766378  0  1.974608  0  0  -0.787181  0  1.941759  0  0  -0.584662  -0.751709  0  1.997791  0
O  O126  1  0.54252747  0.40249390  0.76067410  1  0  -0.662344  0  2.064117  0  0  -0.582437  0  2.326662  0  0  -0.617457  0  2.313574  0  0  -0.312482  -0.55783  0  2.334761  0
O  O127  1  0.70549475  0.09741618  0.73944930  1  0  -0.66459  0  2.062942  0  0  -0.585372  0  2.325761  0  0  -0.620302  0  2.312694  0  0  -0.314091  -0.560842  0  2.333879  0
O  O128  1  0.45747477  0.59750757  0.23932723  1  0  -0.662232  0  2.064293  0  0  -0.582269  0  2.326834  0  0  -0.617287  0  2.313755  0  0  -0.312441  -0.55767  0  2.334951  0
O  O129  1  0.29451076  0.90257836  0.26055695  1  0  -0.664552  0  2.063302  0  0  -0.58536  0  2.326085  0  0  -0.62029  0  2.313022  0  0  -0.314151  -0.560808  0  2.334174  0
O  O130  1  0.20234783  0.40261676  0.77149778  1  0  -0.663277  0  2.050432  0  0  -0.585264  0  2.306927  0  0  -0.619304  0  2.294009  0  0  -0.311818  -0.561299  0  2.314959  0
O  O131  1  0.37640877  0.09740273  0.72837123  1  0  -0.665512  0  2.048211  0  0  -0.587868  0  2.305216  0  0  -0.621893  0  2.29231  0  0  -0.312975  -0.563891  0  2.313208  0
O  O132  1  0.79764672  0.59737636  0.22850627  1  0  -0.663157  0  2.050547  0  0  -0.585127  0  2.307077  0  0  -0.619167  0  2.294167  0  0  -0.311788  -0.561158  0  2.315104  0
O  O133  1  0.62361107  0.90258814  0.27161949  1  0  -0.665435  0  2.048255  0  0  -0.587775  0  2.30515  0  0  -0.621821  0  2.292303  0  0  -0.313017  -0.563782  0  2.31312  0
O  O134  1  0.40926160  0.54665113  0.65315483  1  0  -0.297888  0  2.356837  0  0  -0.229793  0  2.584854  0  0  -0.248557  0  2.587523  0  0  -0.149682  -0.216335  0  2.5825  0
O  O135  1  0.61009779  0.95332932  0.84681015  1  0  -0.29602  0  2.358598  0  0  -0.22814  0  2.586469  0  0  -0.24691  0  2.589182  0  0  -0.14912  -0.214654  0  2.584065  0
O  O136  1  0.59072365  0.45334615  0.34684712  1  0  -0.297914  0  2.356702  0  0  -0.229992  0  2.584765  0  0  -0.248755  0  2.587432  0  0  -0.149721  -0.216536  0  2.582422  0
O  O137  1  0.38985245  0.04667699  0.15318666  1  0  -0.295875  0  2.358608  0  0  -0.228367  0  2.586533  0  0  -0.247136  0  2.589233  0  0  -0.149231  -0.214867  0  2.584107  0
O  O138  1  0.30224118  0.73026399  0.36030851  1  0  -0.686974  0  2.053739  0  0  -0.607399  0  2.277593  0  0  -0.637417  0  2.265975  0  0  -0.318443  -0.58627  0  2.284963  0
O  O139  1  0.39331063  0.76978103  0.13969427  1  0  -0.685104  0  2.052755  0  0  -0.605816  0  2.276741  0  0  -0.63578  0  2.265099  0  0  -0.318082  -0.584692  0  2.284118  0
O  O140  1  0.69775348  0.26973115  0.63968975  1  0  -0.686954  0  2.05386  0  0  -0.607368  0  2.277706  0  0  -0.637395  0  2.266084  0  0  -0.318427  -0.586241  0  2.285079  0
O  O141  1  0.60671685  0.23022389  0.86030322  1  0  -0.684922  0  2.05278  0  0  -0.605646  0  2.276762  0  0  -0.63564  0  2.265148  0  0  -0.317975  -0.584517  0  2.284127  0
O  O142  1  0.64806166  0.71532650  0.35669024  1  0  -0.671455  0  2.030744  0  0  -0.595253  0  2.263541  0  0  -0.625915  0  2.25153  0  0  -0.317931  -0.57372  0  2.27122  0
O  O143  1  0.72064422  0.78458082  0.14337394  1  0  -0.66988  0  2.032615  0  0  -0.593615  0  2.265251  0  0  -0.624257  0  2.253279  0  0  -0.31677  -0.572086  0  2.272904  0
O  O144  1  0.35193092  0.28467285  0.64330949  1  0  -0.671367  0  2.030706  0  0  -0.595139  0  2.263481  0  0  -0.625805  0  2.251474  0  0  -0.317916  -0.573605  0  2.271157  0
O  O145  1  0.27939161  0.21541424  0.85661717  1  0  -0.669798  0  2.032629  0  0  -0.593547  0  2.2653  0  0  -0.624176  0  2.253291  0  0  -0.316799  -0.572015  0  2.272951  0
