# generated using pymatgen
data_CdH6C6(N2O)4
_symmetry_space_group_name_H-M   'P 1'
_cell_length_a   8.61281393
_cell_length_b   8.61281811
_cell_length_c   9.55776176
_cell_angle_alpha   66.07518107
_cell_angle_beta   66.07492992
_cell_angle_gamma   61.84871073
_symmetry_Int_Tables_number   1
_chemical_formula_structural   CdH6C6(N2O)4
_chemical_formula_sum   'Cd2 H12 C12 N16 O8'
_cell_volume   550.86460096
_cell_formula_units_Z   2
loop_
 _symmetry_equiv_pos_site_id
 _symmetry_equiv_pos_as_xyz
  1  'x, y, z'
loop_
 _atom_site_type_symbol
 _atom_site_label
 _atom_site_symmetry_multiplicity
 _atom_site_fract_x
 _atom_site_fract_y
 _atom_site_fract_z
 _atom_site_occupancy
 _atom_site_hle17_bader_spin_density
 _atom_site_hle17_ddec_charge
 _atom_site_hle17_ddec_spin_density
 _atom_site_hle17_ddec_sum_bond_order
 _atom_site_hle17_magmom
 _atom_site_hse06_10hf_bader_spin_density
 _atom_site_hse06_10hf_ddec_charge
 _atom_site_hse06_10hf_ddec_spin_density
 _atom_site_hse06_10hf_ddec_sum_bond_order
 _atom_site_hse06_10hf_magmom
 _atom_site_hse06_bader_spin_density
 _atom_site_hse06_ddec_charge
 _atom_site_hse06_ddec_spin_density
 _atom_site_hse06_ddec_sum_bond_order
 _atom_site_hse06_magmom
 _atom_site_pbe_bader_spin_density
 _atom_site_pbe_cm5_charge
 _atom_site_pbe_ddec_charge
 _atom_site_pbe_ddec_spin_density
 _atom_site_pbe_ddec_sum_bond_order
 _atom_site_pbe_magmom
Cd  Cd0  1  0.53547894  0.46452080  0.74999992  1  0  1.191913  0  1.686562  0  0  1.010169  0  2.144226  0  0  1.063927  0  2.089723  0  0  0.794723  0.971489  0  2.181909  0
Cd  Cd1  1  0.46451425  0.53548519  0.25000028  1  0  1.191951  0  1.68649  0  0  1.010201  0  2.144136  0  0  1.063962  0  2.089632  0  0  0.794817  0.971525  0  2.181812  0
H  H2  1  0.49430217  0.13156588  0.64542292  1  0  0.133104  0  0.95919  0  0  0.132072  0  1.037946  0  0  0.135459  0  1.033813  0  0  0.147676  0.129521  0  1.040988  0
H  H3  1  0.86843550  0.50569881  0.85457537  1  0  0.133128  0  0.959153  0  0  0.132124  0  1.037885  0  0  0.135514  0  1.033744  0  0  0.147696  0.129574  0  1.040929  0
H  H4  1  0.50569939  0.86843463  0.35457832  1  0  0.133116  0  0.959165  0  0  0.132084  0  1.037917  0  0  0.135472  0  1.03378  0  0  0.147679  0.129533  0  1.04096  0
H  H5  1  0.13156578  0.49429896  0.14542174  1  0  0.133113  0  0.959161  0  0  0.132089  0  1.037905  0  0  0.135476  0  1.033771  0  0  0.147682  0.129539  0  1.040947  0
H  H6  1  0.31433867  0.91957794  0.70410192  1  0  0.131243  0  0.942127  0  0  0.135609  0  1.018309  0  0  0.13834  0  1.016241  0  0  0.125384  0.133636  0  1.019865  0
H  H7  1  0.08042017  0.68566182  0.79589941  1  0  0.131197  0  0.942131  0  0  0.135573  0  1.018319  0  0  0.138302  0  1.016251  0  0  0.125374  0.1336  0  1.019876  0
H  H8  1  0.68566490  0.08041712  0.29590477  1  0  0.131145  0  0.942151  0  0  0.135538  0  1.01834  0  0  0.138271  0  1.016274  0  0  0.125364  0.133565  0  1.019896  0
H  H9  1  0.91958414  0.31433458  0.20409500  1  0  0.131137  0  0.942144  0  0  0.135522  0  1.018372  0  0  0.138253  0  1.016309  0  0  0.125361  0.133549  0  1.019929  0
H  H10  1  0.09211919  0.97527571  0.83823096  1  0  0.127525  0  0.922824  0  0  0.135141  0  0.99282  0  0  0.137606  0  0.990771  0  0  0.127013  0.133391  0  0.994307  0
H  H11  1  0.02472341  0.90788074  0.66177068  1  0  0.127479  0  0.922823  0  0  0.135095  0  0.992836  0  0  0.137557  0  0.990786  0  0  0.126984  0.133345  0  0.994323  0
H  H12  1  0.90788033  0.02472344  0.16177152  1  0  0.127447  0  0.922903  0  0  0.135071  0  0.992916  0  0  0.137536  0  0.990872  0  0  0.126983  0.133322  0  0.994404  0
H  H13  1  0.97527737  0.09211840  0.33822820  1  0  0.127467  0  0.922835  0  0  0.135097  0  0.992858  0  0  0.137562  0  0.990815  0  0  0.127001  0.133347  0  0.994345  0
C  C14  1  0.38510793  0.16775678  0.74866871  1  0  0.170319  0  3.595887  0  0  0.089398  0  3.862384  0  0  0.103073  0  3.872268  0  0  0.181826  0.080622  0  3.855628  0
C  C15  1  0.83224262  0.61489028  0.75133263  1  0  0.170311  0  3.5958  0  0  0.089366  0  3.862293  0  0  0.103041  0  3.872176  0  0  0.181784  0.080589  0  3.855538  0
C  C16  1  0.61489539  0.83224236  0.25133029  1  0  0.170347  0  3.595971  0  0  0.089401  0  3.862449  0  0  0.103074  0  3.872335  0  0  0.181853  0.080625  0  3.855694  0
C  C17  1  0.16775789  0.38510614  0.24866840  1  0  0.170392  0  3.595919  0  0  0.08942  0  3.862407  0  0  0.103092  0  3.872295  0  0  0.181846  0.080644  0  3.855653  0
C  C18  1  0.30188862  0.76646345  0.95130554  1  0  0.693683  0  3.893827  0  0  0.639243  0  4.208573  0  0  0.672911  0  4.202008  0  0  0.206922  0.616331  0  4.212079  0
C  C19  1  0.23353441  0.69811159  0.54869365  1  0  0.693642  0  3.893876  0  0  0.639262  0  4.208552  0  0  0.672927  0  4.201988  0  0  0.206951  0.616349  0  4.212057  0
C  C20  1  0.69811429  0.23354392  0.04871046  1  0  0.693593  0  3.893875  0  0  0.639306  0  4.208416  0  0  0.672975  0  4.201848  0  0  0.206916  0.616392  0  4.211926  0
C  C21  1  0.76645411  0.30188617  0.45128827  1  0  0.693626  0  3.893793  0  0  0.639289  0  4.208415  0  0  0.672956  0  4.201849  0  0  0.206906  0.616375  0  4.211924  0
C  C22  1  0.23705721  0.94182512  0.82223313  1  0  -0.19113  0  3.606821  0  0  -0.263784  0  3.853934  0  0  -0.265312  0  3.859905  0  0  -0.050632  -0.262463  0  3.849789  0
C  C23  1  0.05817575  0.76294328  0.67776841  1  0  -0.190906  0  3.60664  0  0  -0.263598  0  3.853787  0  0  -0.265126  0  3.859775  0  0  -0.050557  -0.262279  0  3.849641  0
C  C24  1  0.76294690  0.05817539  0.17776822  1  0  -0.190816  0  3.606722  0  0  -0.263602  0  3.853837  0  0  -0.26514  0  3.859823  0  0  -0.050572  -0.262282  0  3.849693  0
C  C25  1  0.94182553  0.23705450  0.32223079  1  0  -0.190797  0  3.606648  0  0  -0.263614  0  3.853843  0  0  -0.265142  0  3.859808  0  0  -0.050561  -0.262293  0  3.849699  0
N  N26  1  0.19547460  0.30481625  0.93205731  1  0  -0.059119  0  2.930627  0  0  -0.05811  0  3.238553  0  0  -0.056341  0  3.249689  0  0  -0.073596  -0.059026  0  3.230912  0
N  N27  1  0.69518311  0.80452425  0.56794332  1  0  -0.059042  0  2.930433  0  0  -0.058029  0  3.238356  0  0  -0.056261  0  3.249488  0  0  -0.073566  -0.058946  0  3.230714  0
N  N28  1  0.80452823  0.69518426  0.06794346  1  0  -0.05898  0  2.93057  0  0  -0.05797  0  3.238499  0  0  -0.056201  0  3.249636  0  0  -0.073541  -0.058886  0  3.230858  0
N  N29  1  0.30481513  0.19547490  0.43205649  1  0  -0.059068  0  2.930562  0  0  -0.058066  0  3.238491  0  0  -0.056297  0  3.249626  0  0  -0.073593  -0.058982  0  3.23085  0
N  N30  1  0.34962911  0.29836895  0.80976672  1  0  -0.280052  0  3.109726  0  0  -0.218463  0  3.407971  0  0  -0.236059  0  3.420603  0  0  -0.220115  -0.206578  0  3.399182  0
N  N31  1  0.70163295  0.65036937  0.69023284  1  0  -0.280107  0  3.109584  0  0  -0.218521  0  3.40784  0  0  -0.236116  0  3.420472  0  0  -0.220134  -0.206635  0  3.39905  0
N  N32  1  0.65037272  0.70163429  0.19023237  1  0  -0.280131  0  3.109707  0  0  -0.218559  0  3.407986  0  0  -0.236159  0  3.420624  0  0  -0.220151  -0.206672  0  3.399198  0
N  N33  1  0.29836578  0.34962841  0.30976625  1  0  -0.280134  0  3.109764  0  0  -0.218542  0  3.408042  0  0  -0.236141  0  3.42068  0  0  -0.220145  -0.206655  0  3.399254  0
N  N34  1  0.25472277  0.09631011  0.83173545  1  0  0.065533  0  3.552538  0  0  0.182269  0  3.740269  0  0  0.172243  0  3.761328  0  0  -0.115244  0.187784  0  3.727669  0
N  N35  1  0.90368885  0.74527803  0.66826415  1  0  0.065463  0  3.552444  0  0  0.182198  0  3.74022  0  0  0.17217  0  3.761281  0  0  -0.115252  0.187715  0  3.727618  0
N  N36  1  0.74527751  0.90369041  0.16826625  1  0  0.065434  0  3.552485  0  0  0.18228  0  3.740129  0  0  0.172266  0  3.761171  0  0  -0.115233  0.187794  0  3.727532  0
N  N37  1  0.09631015  0.25472248  0.33173279  1  0  0.065409  0  3.552499  0  0  0.182284  0  3.740134  0  0  0.172273  0  3.761176  0  0  -0.115221  0.187799  0  3.727537  0
N  N38  1  0.13743494  0.18342243  0.94604342  1  0  -0.086838  0  2.855074  0  0  -0.097024  0  3.136728  0  0  -0.096179  0  3.14637  0  0  -0.062787  -0.097362  0  3.130383  0
N  N39  1  0.81657689  0.86256574  0.55395749  1  0  -0.086853  0  2.855046  0  0  -0.097037  0  3.136702  0  0  -0.09619  0  3.146343  0  0  -0.062777  -0.097375  0  3.130356  0
N  N40  1  0.86256789  0.81657808  0.05395839  1  0  -0.086884  0  2.855131  0  0  -0.097087  0  3.136737  0  0  -0.096242  0  3.146375  0  0  -0.062806  -0.097425  0  3.130393  0
N  N41  1  0.18342135  0.13743341  0.44604129  1  0  -0.086813  0  2.855055  0  0  -0.097024  0  3.136664  0  0  -0.09618  0  3.1463  0  0  -0.062776  -0.097362  0  3.130319  0
O  O42  1  0.31106231  0.62182037  0.93763633  1  0  -0.671972  0  2.045056  0  0  -0.609608  0  2.313979  0  0  -0.637965  0  2.30178  0  0  -0.335575  -0.589488  0  2.32163  0
O  O43  1  0.37818076  0.68893829  0.56236335  1  0  -0.672016  0  2.044928  0  0  -0.609674  0  2.313828  0  0  -0.63803  0  2.301632  0  0  -0.335613  -0.589552  0  2.321477  0
O  O44  1  0.68894126  0.37817469  0.06237140  1  0  -0.671886  0  2.045452  0  0  -0.60958  0  2.314325  0  0  -0.637934  0  2.302125  0  0  -0.335571  -0.58946  0  2.321975  0
O  O45  1  0.62182736  0.31105810  0.43762757  1  0  -0.671887  0  2.045458  0  0  -0.609559  0  2.314357  0  0  -0.637909  0  2.302156  0  0  -0.335571  -0.589441  0  2.322011  0
O  O46  1  0.33477911  0.78192526  0.06134553  1  0  -0.628256  0  2.00085  0  0  -0.57183  0  2.254583  0  0  -0.59974  0  2.244029  0  0  -0.328272  -0.552118  0  2.261037  0
O  O47  1  0.21807507  0.66521974  0.43865661  1  0  -0.628245  0  2.000999  0  0  -0.571831  0  2.254702  0  0  -0.599745  0  2.244161  0  0  -0.328275  -0.55212  0  2.261157  0
O  O48  1  0.66521437  0.21808346  0.93865566  1  0  -0.628379  0  2.000534  0  0  -0.57199  0  2.254168  0  0  -0.599908  0  2.243618  0  0  -0.328296  -0.552274  0  2.260625  0
O  O49  1  0.78191636  0.33478761  0.56134374  1  0  -0.628408  0  2.000431  0  0  -0.571999  0  2.254095  0  0  -0.599922  0  2.24355  0  0  -0.32831  -0.552282  0  2.260551  0
