# generated using pymatgen
data_AgH5C4(SN2)2
_symmetry_space_group_name_H-M   'P 1'
_cell_length_a   7.35116945
_cell_length_b   7.62171042
_cell_length_c   8.50956909
_cell_angle_alpha   77.40828119
_cell_angle_beta   82.11310363
_cell_angle_gamma   61.44081581
_symmetry_Int_Tables_number   1
_chemical_formula_structural   AgH5C4(SN2)2
_chemical_formula_sum   'Ag2 H10 C8 S4 N8'
_cell_volume   408.39070222
_cell_formula_units_Z   2
loop_
 _symmetry_equiv_pos_site_id
 _symmetry_equiv_pos_as_xyz
  1  'x, y, z'
loop_
 _atom_site_type_symbol
 _atom_site_label
 _atom_site_symmetry_multiplicity
 _atom_site_fract_x
 _atom_site_fract_y
 _atom_site_fract_z
 _atom_site_occupancy
 _atom_site_hle17_bader_spin_density
 _atom_site_hle17_ddec_charge
 _atom_site_hle17_ddec_spin_density
 _atom_site_hle17_ddec_sum_bond_order
 _atom_site_hle17_magmom
 _atom_site_hse06_10hf_bader_spin_density
 _atom_site_hse06_10hf_ddec_charge
 _atom_site_hse06_10hf_ddec_spin_density
 _atom_site_hse06_10hf_ddec_sum_bond_order
 _atom_site_hse06_10hf_magmom
 _atom_site_hse06_bader_spin_density
 _atom_site_hse06_ddec_charge
 _atom_site_hse06_ddec_spin_density
 _atom_site_hse06_ddec_sum_bond_order
 _atom_site_hse06_magmom
 _atom_site_pbe_bader_spin_density
 _atom_site_pbe_cm5_charge
 _atom_site_pbe_ddec_charge
 _atom_site_pbe_ddec_spin_density
 _atom_site_pbe_ddec_sum_bond_order
 _atom_site_pbe_magmom
Ag  Ag0  1  0.43782785  0.05377380  0.18868617  1  0  0.403892  0  1.840912  0  0  0.301539  0  2.355184  0  0  0.318247  0  2.316125  0  0  0.344634  0.290601  0  2.381117  0
Ag  Ag1  1  0.56220151  0.94621735  0.81135030  1  0  0.403892  0  1.841189  0  0  0.301528  0  2.355506  0  0  0.318236  0  2.316444  0  0  0.344601  0.290593  0  2.381436  0
H  H2  1  0.79406767  0.13508318  0.15162075  1  0  0.308947  0  0.922078  0  0  0.283996  0  0.990983  0  0  0.292685  0  0.984171  0  0  0.313274  0.277861  0  0.995832  0
H  H3  1  0.20593946  0.86491868  0.84836888  1  0  0.308962  0  0.922098  0  0  0.28403  0  0.990964  0  0  0.292716  0  0.984155  0  0  0.313269  0.277903  0  0.995823  0
H  H4  1  0.03477952  0.42251118  0.78140762  1  0  0.110087  0  0.941599  0  0  0.117909  0  1.005589  0  0  0.120482  0  1.003017  0  0  0.132963  0.11608  0  1.0073  0
H  H5  1  0.96520508  0.57748413  0.21856983  1  0  0.110167  0  0.941535  0  0  0.117978  0  1.005539  0  0  0.120553  0  1.002966  0  0  0.132984  0.116149  0  1.00725  0
H  H6  1  0.64033149  0.37795062  0.59036320  1  0  0.108877  0  0.941397  0  0  0.128384  0  1.005311  0  0  0.128987  0  1.005657  0  0  0.105313  0.127849  0  1.005179  0
H  H7  1  0.35965770  0.62204882  0.40962373  1  0  0.108967  0  0.941334  0  0  0.128446  0  1.005252  0  0  0.129042  0  1.005606  0  0  0.105308  0.127909  0  1.005121  0
H  H8  1  0.78250392  0.51944632  0.56122066  1  0  0.108431  0  0.949322  0  0  0.126805  0  1.014259  0  0  0.127412  0  1.01469  0  0  0.105604  0.12628  0  1.013997  0
H  H9  1  0.21748023  0.48055159  0.43877286  1  0  0.108434  0  0.949314  0  0  0.126771  0  1.014281  0  0  0.127376  0  1.014716  0  0  0.105595  0.126248  0  1.014018  0
H  H10  1  0.52736733  0.62039617  0.65338432  1  0  0.113006  0  0.944009  0  0  0.129786  0  1.012112  0  0  0.130804  0  1.011426  0  0  0.102874  0.128913  0  1.012739  0
H  H11  1  0.47261706  0.37960194  0.34660091  1  0  0.112996  0  0.943934  0  0  0.129761  0  1.012064  0  0  0.130783  0  1.011367  0  0  0.102845  0.128891  0  1.012698  0
C  C12  1  0.67681958  0.28814976  0.91953965  1  0  0.318767  0  3.760614  0  0  0.269591  0  4.055469  0  0  0.291597  0  4.06575  0  0  0.222876  0.254913  0  4.048164  0
C  C13  1  0.32316579  0.71185395  0.08045985  1  0  0.319065  0  3.760298  0  0  0.269829  0  4.055223  0  0  0.291835  0  4.065502  0  0  0.222968  0.255149  0  4.047927  0
C  C14  1  0.93826188  0.36005633  0.85209520  1  0  0.161117  0  3.656008  0  0  0.09957  0  3.940591  0  0  0.111962  0  3.95123  0  0  0.15821  0.091423  0  3.933313  0
C  C15  1  0.06173789  0.63993551  0.14788500  1  0  0.161063  0  3.656069  0  0  0.099503  0  3.940719  0  0  0.111889  0  3.951369  0  0  0.158147  0.091361  0  3.933432  0
C  C16  1  0.67170774  0.48116710  0.64046693  1  0  -0.162314  0  3.635836  0  0  -0.266089  0  3.881956  0  0  -0.262118  0  3.890188  0  0  -0.13121  -0.268514  0  3.87645  0
C  C17  1  0.32827441  0.51883243  0.35952415  1  0  -0.162274  0  3.635734  0  0  -0.265938  0  3.88178  0  0  -0.261957  0  3.89001  0  0  -0.13109  -0.268381  0  3.876301  0
C  C18  1  0.21443665  0.06666025  0.54281293  1  0  0.291729  0  3.991716  0  0  0.276758  0  4.284336  0  0  0.297422  0  4.299087  0  0  0.139192  0.262596  0  4.274148  0
C  C19  1  0.78557733  0.93335121  0.45720388  1  0  0.29169  0  3.991854  0  0  0.276725  0  4.284441  0  0  0.297387  0  4.299182  0  0  0.13906  0.26256  0  4.274261  0
S  S20  1  0.44977436  0.28129714  0.91703028  1  0  -0.38243  0  2.370291  0  0  -0.35191  0  2.810492  0  0  -0.367704  0  2.794708  0  0  -0.199951  -0.340712  0  2.820332  0
S  S21  1  0.55020910  0.71870019  0.08298810  1  0  -0.382508  0  2.370346  0  0  -0.351993  0  2.810631  0  0  -0.367792  0  2.794847  0  0  -0.199986  -0.340792  0  2.820473  0
S  S22  1  0.11418656  0.16188269  0.36572390  1  0  -0.31241  0  2.362223  0  0  -0.27972  0  2.73992  0  0  -0.295682  0  2.730136  0  0  -0.158953  -0.268579  0  2.74619  0
S  S23  1  0.88584248  0.83811625  0.63429954  1  0  -0.312526  0  2.361938  0  0  -0.27981  0  2.739579  0  0  -0.295773  0  2.729791  0  0  -0.158926  -0.268665  0  2.745851  0
N  N24  1  0.80988973  0.21565613  0.03943303  1  0  -0.227272  0  3.441067  0  0  -0.164482  0  3.687788  0  0  -0.179807  0  3.702352  0  0  -0.269167  -0.154445  0  3.67817  0
N  N25  1  0.19010062  0.78435204  0.96056175  1  0  -0.227482  0  3.441108  0  0  -0.164694  0  3.687898  0  0  -0.180017  0  3.702466  0  0  -0.269257  -0.154667  0  3.678286  0
N  N26  1  0.97172166  0.25946500  0.00033203  1  0  -0.19311  0  2.913217  0  0  -0.182281  0  3.208526  0  0  -0.188641  0  3.220994  0  0  -0.222126  -0.178186  0  3.200176  0
N  N27  1  0.02827727  0.74053121  0.99965340  1  0  -0.193029  0  2.913255  0  0  -0.182164  0  3.208527  0  0  -0.188526  0  3.220998  0  0  -0.222081  -0.17807  0  3.200176  0
N  N28  1  0.76168042  0.37970522  0.79679002  1  0  -0.098075  0  3.529912  0  0  0.003242  0  3.752262  0  0  -0.0147  0  3.775854  0  0  -0.234313  0.014912  0  3.736296  0
N  N29  1  0.23830370  0.62029267  0.20320469  1  0  -0.098369  0  3.530131  0  0  0.002977  0  3.752513  0  0  -0.014965  0  3.776101  0  0  -0.234398  0.014645  0  3.736549  0
N  N30  1  0.28364697  0.99736539  0.67344286  1  0  -0.549173  0  2.971784  0  0  -0.493052  0  3.256614  0  0  -0.510895  0  3.260653  0  0  -0.409174  -0.480944  0  3.253832  0
N  N31  1  0.71638749  0.00263330  0.32658484  1  0  -0.549117  0  2.972214  0  0  -0.492994  0  3.257046  0  0  -0.510838  0  3.261076  0  0  -0.409086  -0.48088  0  3.254269  0
