# generated using pymatgen
data_AlH9C21Br3(NO2)3
_symmetry_space_group_name_H-M   'P 1'
_cell_length_a   4.01235290
_cell_length_b   27.94118679
_cell_length_c   27.94141844
_cell_angle_alpha   120.00044240
_cell_angle_beta   90.00000811
_cell_angle_gamma   89.99894716
_symmetry_Int_Tables_number   1
_chemical_formula_structural   AlH9C21Br3(NO2)3
_chemical_formula_sum   'Al2 H18 C42 Br6 N6 O12'
_cell_volume   2712.82086364
_cell_formula_units_Z   2
loop_
 _symmetry_equiv_pos_site_id
 _symmetry_equiv_pos_as_xyz
  1  'x, y, z'
loop_
 _atom_site_type_symbol
 _atom_site_label
 _atom_site_symmetry_multiplicity
 _atom_site_fract_x
 _atom_site_fract_y
 _atom_site_fract_z
 _atom_site_occupancy
 _atom_site_pbe_bader_charge
 _atom_site_pbe_bader_spin_density
 _atom_site_pbe_cm5_charge
 _atom_site_pbe_ddec_charge
 _atom_site_pbe_ddec_spin_density
 _atom_site_pbe_ddec_sum_bond_order
 _atom_site_pbe_magmom
Al  Al0  1  0.01204600  0.49999788  0.50000009  1  2.507188  0  0.427496  1.61292  0  2.552727  0
Al  Al1  1  0.01204517  0.16666715  0.83333460  1  2.507245  0  0.427495  1.612992  0  2.552616  0
H  H2  1  0.47625328  0.17769204  0.68910608  1  0.128802  0  0.109407  0.115678  0  0.981923  0
H  H3  1  0.48949884  0.23212705  0.63970247  1  0.075201  0  0.109149  0.111719  0  1.009212  0
H  H4  1  0.50352843  0.38281253  0.79639547  1  0.10846  0  0.111969  0.127692  0  0.988603  0
H  H5  1  0.50354706  0.28385026  0.53694031  1  0.108354  0  0.112029  0.127729  0  0.988673  0
H  H6  1  0.48953824  0.43453902  0.69363368  1  0.075384  0  0.10916  0.111753  0  1.009239  0
H  H7  1  0.47628563  0.48897214  0.64422774  1  0.129105  0  0.109353  0.115669  0  0.98198  0
H  H8  1  0.47629394  0.01141192  0.82230702  1  0.059894  0  0.109411  0.115709  0  0.981911  0
H  H9  1  0.48953538  0.90757167  0.76787454  1  0.08559  0  0.109143  0.111716  0  1.00915  0
H  H10  1  0.50355659  0.91357915  0.61718763  1  0.114816  0  0.111912  0.127566  0  0.988693  0
H  H11  1  0.50347972  0.75308307  0.71614572  1  0.114786  0  0.111973  0.127705  0  0.988597  0
H  H12  1  0.48950987  0.75909581  0.56546364  1  0.085743  0  0.109133  0.111704  0  1.009165  0
H  H13  1  0.47628236  0.65525407  0.51102572  1  0.059956  0  0.109382  0.115693  0  0.981821  0
H  H14  1  0.47623997  0.31089742  0.98859142  1  0.069564  0  0.109351  0.115671  0  0.981908  0
H  H15  1  0.48949772  0.36030151  0.09243152  1  0.143112  0  0.109123  0.111736  0  1.009053  0
H  H16  1  0.50353693  0.20360585  0.08641944  1  0.116357  0  0.111923  0.127588  0  0.988654  0
H  H17  1  0.50352789  0.46306273  0.24692084  1  0.116552  0  0.111848  0.127452  0  0.988594  0
H  H18  1  0.48947636  0.30636730  0.24090360  1  0.142992  0  0.10909  0.111729  0  1.009258  0
H  H19  1  0.47625409  0.35576697  0.34474220  1  0.069533  0  0.109384  0.115672  0  0.981874  0
C  C20  1  0.50853254  0.46320382  0.41559694  1  1.620583  0  0.278498  0.669696  0  4.058685  0
C  C21  1  0.50853831  0.45238623  0.53679199  1  1.605559  0  0.278449  0.669722  0  4.058567  0
C  C22  1  0.50852487  0.58440197  0.54760978  1  1.608485  0  0.278519  0.669893  0  4.058575  0
C  C23  1  0.50852384  0.21427727  0.79654163  1  1.605391  0  0.278528  0.669852  0  4.058522  0
C  C24  1  0.50854227  0.08226313  0.78572296  1  1.608761  0  0.2785  0.669793  0  4.058507  0
C  C25  1  0.50852213  0.20345993  0.91773857  1  1.620282  0  0.27843  0.669734  0  4.058562  0
C  C26  1  0.49945956  0.24942374  0.77019562  1  0.058386  0  -0.005651  -0.067141  0  3.911292  0
C  C27  1  0.48700719  0.22274390  0.71209389  1  -0.006993  0  -0.074397  -0.068471  0  3.959465  0
C  C28  1  0.49325845  0.25249801  0.68462576  1  0.049357  0  -0.081182  -0.140936  0  3.951489  0
C  C29  1  0.50275292  0.31055820  0.71554289  1  0.211035  0  0.089805  0.183595  0  4.039541  0
C  C30  1  0.50464038  0.33780652  0.77343121  1  0.106089  0  -0.082686  -0.19028  0  3.935621  0
C  C31  1  0.50589099  0.30734930  0.80045287  1  -0.208449  0  -0.006918  0.10743  0  3.93808  0
C  C32  1  0.50465326  0.32885692  0.55990606  1  0.106369  0  -0.082777  -0.19037  0  3.936202  0
C  C33  1  0.50277236  0.35610281  0.61779111  1  0.210432  0  0.089812  0.183589  0  4.039956  0
C  C34  1  0.49327797  0.41416732  0.64871255  1  0.049095  0  -0.081222  -0.141012  0  3.951167  0
C  C35  1  0.48702535  0.44392096  0.62124063  1  -0.007083  0  -0.07429  -0.068401  0  3.959217  0
C  C36  1  0.49947856  0.41724060  0.56314006  1  0.058427  0  -0.005732  -0.067177  0  3.911442  0
C  C37  1  0.50589744  0.35931313  0.53288255  1  -0.208638  0  -0.006879  0.107445  0  3.938276  0
C  C38  1  0.49950411  0.02076881  0.75057742  1  -0.016149  0  -0.005608  -0.06714  0  3.911393  0
C  C39  1  0.48704034  0.98934832  0.77725591  1  0.153911  0  -0.074375  -0.0684  0  3.95933  0
C  C40  1  0.49327723  0.93212406  0.74750201  1  -0.161447  0  -0.081152  -0.140998  0  3.951374  0
C  C41  1  0.50278209  0.90498057  0.68944083  1  0.484868  0  0.089832  0.183666  0  4.03981  0
C  C42  1  0.50468671  0.93562077  0.66219467  1  -0.095607  0  -0.082712  -0.190224  0  3.935864  0
C  C43  1  0.50592920  0.99310108  0.69265094  1  -0.0347  0  -0.006946  0.107368  0  3.938222  0
C  C44  1  0.50460513  0.73104087  0.67113852  1  -0.095708  0  -0.082745  -0.190422  0  3.936025  0
C  C45  1  0.50272893  0.76168206  0.64389211  1  0.484261  0  0.089776  0.183492  0  4.039983  0
C  C46  1  0.49325490  0.73454152  0.58583304  1  -0.161609  0  -0.081089  -0.140765  0  3.951447  0
C  C47  1  0.48702031  0.67731856  0.55608001  1  0.154005  0  -0.074345  -0.068509  0  3.959417  0
C  C48  1  0.49946392  0.64589452  0.58275642  1  -0.01622  0  -0.005696  -0.067188  0  3.911567  0
C  C49  1  0.50586740  0.67356180  0.64068101  1  -0.034717  0  -0.006856  0.10755  0  3.938205  0
C  C50  1  0.49946345  0.22980731  0.97923209  1  -0.023457  0  -0.005639  -0.06702  0  3.911303  0
C  C51  1  0.48701747  0.28790949  0.01065441  1  0.052355  0  -0.074259  -0.068395  0  3.959138  0
C  C52  1  0.49326147  0.31537718  0.06787813  1  -0.025694  0  -0.081231  -0.141048  0  3.951066  0
C  C53  1  0.50274917  0.28445829  0.09502001  1  0.334504  0  0.089796  0.183496  0  4.039862  0
C  C54  1  0.50464452  0.22657196  0.06437922  1  -0.013032  0  -0.082743  -0.190238  0  3.935874  0
C  C55  1  0.50588987  0.19954862  0.00689939  1  -0.099203  0  -0.006825  0.107439  0  3.938075  0
C  C56  1  0.50464094  0.44009519  0.26895963  1  -0.012971  0  -0.082622  -0.190002  0  3.935835  0
C  C57  1  0.50274550  0.38220963  0.23831879  1  0.33419  0  0.089837  0.183576  0  4.03983  0
C  C58  1  0.49325182  0.35128879  0.26545622  1  -0.025274  0  -0.08113  -0.141039  0  3.951495  0
C  C59  1  0.48700688  0.37875876  0.32268056  1  0.051928  0  -0.074375  -0.068358  0  3.959286  0
C  C60  1  0.49947965  0.43685821  0.35410600  1  -0.023368  0  -0.005671  -0.067192  0  3.911441  0
C  C61  1  0.50590783  0.46711796  0.32643931  1  -0.099261  0  -0.006879  0.107363  0  3.938198  0
Br  Br62  1  0.49326002  0.34677347  0.87896930  1  -0.018366  0  0.023653  -0.064574  0  1.456802  0
Br  Br63  1  0.49323902  0.31988844  0.45436599  1  -0.018298  0  0.02365  -0.064561  0  1.456789  0
Br  Br64  1  0.49327255  0.03219329  0.65322672  1  -0.030919  0  0.023669  -0.064526  0  1.456845  0
Br  Br65  1  0.49321402  0.63446874  0.68010415  1  -0.031019  0  0.02362  -0.064607  0  1.45683  0
Br  Br66  1  0.49319978  0.12103208  0.96780518  1  -0.053006  0  0.023643  -0.064564  0  1.456802  0
Br  Br67  1  0.49325688  0.54563476  0.36553092  1  -0.053041  0  0.023663  -0.064539  0  1.456919  0
N  N68  1  0.50478187  0.34580438  0.69284071  1  -0.531769  0  -0.14744  -0.133147  0  3.268941  0
N  N69  1  0.50480586  0.32086025  0.64049610  1  -0.382671  0  -0.147344  -0.13305  0  3.269099  0
N  N70  1  0.50479956  0.84703326  0.65419697  1  -0.579624  0  -0.147418  -0.133178  0  3.269116  0
N  N71  1  0.50476395  0.81963175  0.67914002  1  -0.449778  0  -0.147378  -0.132991  0  3.268953  0
N  N72  1  0.50479892  0.30716247  0.15296871  1  -0.527381  0  -0.147371  -0.133051  0  3.268922  0
N  N73  1  0.50476319  0.35950525  0.18036741  1  -0.393742  0  -0.147368  -0.133003  0  3.268753  0
O  O74  1  0.74918329  0.55912533  0.55485188  1  -1.247383  0  -0.231924  -0.594327  0  2.405136  0
O  O75  1  0.74917980  0.49572096  0.44087220  1  -1.252897  0  -0.231883  -0.594139  0  2.405114  0
O  O76  1  0.74917810  0.44514590  0.50427544  1  -1.247007  0  -0.231828  -0.594125  0  2.405048  0
O  O77  1  0.27794836  0.56192558  0.51177353  1  -1.241765  0  -0.234882  -0.594883  0  2.362454  0
O  O78  1  0.27794314  0.48822253  0.55015495  1  -1.239964  0  -0.234846  -0.594796  0  2.362187  0
O  O79  1  0.27795300  0.44984332  0.43807192  1  -1.244872  0  -0.234871  -0.594784  0  2.362471  0
O  O80  1  0.74918099  0.17094206  0.89246136  1  -1.25337  0  -0.231845  -0.594182  0  2.404933  0
O  O81  1  0.74918020  0.22151958  0.82905852  1  -1.246855  0  -0.231913  -0.594251  0  2.405054  0
O  O82  1  0.74919246  0.10754031  0.77848264  1  -1.247381  0  -0.231934  -0.594273  0  2.405183  0
O  O83  1  0.27793835  0.21682088  0.89526364  1  -1.244089  0  -0.234831  -0.594858  0  2.362344  0
O  O84  1  0.27795047  0.10473664  0.82155757  1  -1.241937  0  -0.234822  -0.594783  0  2.362291  0
O  O85  1  0.27795319  0.17844064  0.78318164  1  -1.240192  0  -0.234883  -0.594872  0  2.362459  0
