# generated using pymatgen
data_Zn2H18C32S(NO8)2
_symmetry_space_group_name_H-M   'P 1'
_cell_length_a   10.02001199
_cell_length_b   10.81508090
_cell_length_c   23.80652817
_cell_angle_alpha   90.42361254
_cell_angle_beta   90.13073418
_cell_angle_gamma   90.49611218
_symmetry_Int_Tables_number   1
_chemical_formula_structural   Zn2H18C32S(NO8)2
_chemical_formula_sum   'Zn4 H36 C64 S2 N4 O32'
_cell_volume   2579.67344249
_cell_formula_units_Z   2
loop_
 _symmetry_equiv_pos_site_id
 _symmetry_equiv_pos_as_xyz
  1  'x, y, z'
loop_
 _atom_site_type_symbol
 _atom_site_label
 _atom_site_symmetry_multiplicity
 _atom_site_fract_x
 _atom_site_fract_y
 _atom_site_fract_z
 _atom_site_occupancy
 _atom_site_pbe_bader_charge
 _atom_site_pbe_bader_spin_density
 _atom_site_pbe_cm5_charge
 _atom_site_pbe_ddec_charge
 _atom_site_pbe_ddec_spin_density
 _atom_site_pbe_ddec_sum_bond_order
 _atom_site_pbe_magmom
Zn  Zn0  1  0.66510060  0.52511363  0.50993274  1  1.305349  0  0.684671  0.861623  0  2.278713  0
Zn  Zn1  1  0.36330311  0.52601437  0.50473424  1  1.319267  0  0.698255  0.877277  0  2.363513  0
Zn  Zn2  1  0.33372252  0.50536802  0.04328547  1  1.301795  0  0.681665  0.863905  0  2.279469  0
Zn  Zn3  1  0.63333715  0.51408274  0.04616218  1  1.315916  0  0.699009  0.868191  0  2.383744  0
H  H4  1  0.26434210  0.59723184  0.60773081  1  0.111466  0  0.107065  0.118357  0  1.039008  0
H  H5  1  0.14343730  0.69258291  0.68780138  1  0.065929  0  0.109253  0.110374  0  0.97936  0
H  H6  1  0.77208402  0.64985301  0.59837859  1  0.100026  0  0.106549  0.121973  0  1.030954  0
H  H7  1  0.89710690  0.71985056  0.68260676  1  0.085675  0  0.111452  0.113919  0  0.972263  0
H  H8  1  0.28899976  0.82057050  0.59340438  1  0.100488  0  0.091248  0.095121  0  1.071064  0
H  H9  1  0.10988605  0.94707196  0.63294209  1  0.049555  0  0.093668  0.088831  0  1.01669  0
H  H10  1  0.27907451  0.26989111  0.55572962  1  0.061484  0  0.09083  0.096708  0  1.068994  0
H  H11  1  0.10522889  0.17521498  0.61417298  1  0.049328  0  0.094815  0.097677  0  0.999549  0
H  H12  1  0.30002094  0.41960052  0.85491479  1  0.141018  0  0.114915  0.124747  0  1.022395  0
H  H13  1  0.71284690  0.38117726  0.89690288  1  0.127703  0  0.119309  0.130989  0  1.01579  0
H  H14  1  0.70327138  0.41819932  0.69420604  1  0.160364  0  0.115443  0.125731  0  1.020712  0
H  H15  1  0.28872203  0.38788181  0.65218022  1  0.144376  0  0.119628  0.130795  0  1.016945  0
H  H16  1  0.67725028  0.72625963  0.16488692  1  0.050524  0  0.097495  0.111476  0  1.033736  0
H  H17  1  0.84662412  0.85906072  0.20954788  1  0.030239  0  0.102699  0.099818  0  0.990701  0
H  H18  1  0.72812263  0.72938148  0.37219242  1  0.083295  0  0.095062  0.103587  0  1.031477  0
H  H19  1  0.87356000  0.86022098  0.31424280  1  0.062771  0  0.105357  0.103839  0  0.986796  0
H  H20  1  0.73558268  0.58952589  0.94553999  1  0.109291  0  0.108226  0.119973  0  1.03908  0
H  H21  1  0.85941185  0.69040408  0.86793024  1  0.079703  0  0.109768  0.110274  0  0.977745  0
H  H22  1  0.22850497  0.64206764  0.95760046  1  0.095351  0  0.107657  0.123848  0  1.028703  0
H  H23  1  0.10588761  0.71967548  0.87488787  1  0.082121  0  0.11249  0.114663  0  0.970209  0
H  H24  1  0.68392391  0.80638674  0.95150391  1  0.084426  0  0.092866  0.099006  0  1.063869  0
H  H25  1  0.85575518  0.93603032  0.90747338  1  0.021247  0  0.093703  0.087416  0  1.016881  0
H  H26  1  0.70422470  0.25508032  0.99390416  1  0.094346  0  0.090642  0.097474  0  1.068836  0
H  H27  1  0.86777000  0.16304653  0.92952848  1  0.035089  0  0.094253  0.09696  0  1.002661  0
H  H28  1  0.79340557  0.48848364  0.41509655  1  0.673966  0  0.320589  0.374217  0  0.937877  0
H  H29  1  0.22667828  0.35180450  0.44871090  1  0.665273  0  0.327919  0.382442  0  0.921854  0
H  H30  1  0.70733552  0.22833729  0.47556314  1  0.627132  0  0.306224  0.350844  0  0.96894  0
H  H31  1  0.71164219  0.81234482  0.50537478  1  0.652589  0  0.305802  0.348515  0  0.974528  0
H  H32  1  0.33398260  0.48064081  0.37845599  1  0.636841  0  0.305618  0.342322  0  0.983452  0
H  H33  1  0.32192113  0.42933846  0.19129595  1  0.631736  0  0.309113  0.336988  0  0.979551  0
H  H34  1  0.20040901  0.46687580  0.13504270  1  0.65699  0  0.324213  0.36306  0  0.947155  0
H  H35  1  0.76059981  0.34576641  0.10452948  1  0.678147  0  0.32892  0.386677  0  0.914066  0
H  H36  1  0.27946337  0.20837264  0.07727946  1  0.631839  0  0.307253  0.349935  0  0.967353  0
H  H37  1  0.28466570  0.79036884  0.05884963  1  0.632351  0  0.305615  0.349226  0  0.97851  0
H  H38  1  0.06049108  0.31692998  0.82366421  1  0.693679  0  0.319334  0.389863  0  0.933144  0
H  H39  1  0.94127967  0.31874224  0.72458441  1  0.65992  0  0.319971  0.390551  0  0.932621  0
C  C40  1  0.49703907  0.76118881  0.52926738  1  1.44946  0  0.221387  0.620565  0  4.109505  0
C  C41  1  0.52743365  0.44462169  0.60839043  1  1.596984  0  0.22457  0.597376  0  4.160549  0
C  C42  1  0.49142820  0.28635331  0.48993997  1  1.470901  0  0.221546  0.63442  0  4.093996  0
C  C43  1  0.53781676  0.56997074  0.39847715  1  1.49155  0  0.234117  0.64775  0  4.064265  0
C  C44  1  0.49168912  0.74380935  0.02444696  1  1.46589  0  0.220729  0.61739  0  4.11564  0
C  C45  1  0.47535969  0.43609442  0.94167886  1  1.600761  0  0.223645  0.596318  0  4.161571  0
C  C46  1  0.49521791  0.27130294  0.05997517  1  1.513873  0  0.225416  0.639202  0  4.09799  0
C  C47  1  0.48613754  0.55302858  0.15491578  1  1.492331  0  0.227524  0.637942  0  4.083865  0
C  C48  1  0.08717637  0.56720932  0.55801151  1  0.365244  0  0.103257  0.17016  0  3.989383  0
C  C49  1  0.08375185  0.45706609  0.47328218  1  1.296766  0  0.246552  0.365249  0  4.040227  0
C  C50  1  0.15698140  0.60997509  0.60582567  1  -0.001062  0  -0.089512  -0.155771  0  3.961258  0
C  C51  1  0.08908658  0.66326796  0.65022468  1  -0.036868  0  -0.079986  -0.059169  0  3.999194  0
C  C52  1  0.94109344  0.48223200  0.46761138  1  1.247432  0  0.245082  0.368448  0  4.041182  0
C  C53  1  0.94598793  0.57990311  0.55564619  1  0.411498  0  0.102274  0.168024  0  3.997454  0
C  C54  1  0.87949674  0.63786459  0.60063447  1  -0.014987  0  -0.088734  -0.152359  0  3.955261  0
C  C55  1  0.95005088  0.67806952  0.64744703  1  0.029091  0  -0.078478  -0.055827  0  3.993012  0
C  C56  1  0.50027884  0.89811652  0.53067652  1  0.077479  0  -0.036905  -0.230629  0  3.95836  0
C  C57  1  0.38904892  0.97047668  0.55065456  1  0.009508  0  -0.0104  0.067835  0  3.978633  0
C  C58  1  0.61320065  0.95812222  0.50903101  1  0.571663  0  0.094293  0.220824  0  4.038089  0
C  C59  1  0.28699078  0.91871423  0.58444206  1  -0.076223  0  -0.103937  -0.137402  0  3.996309  0
C  C60  1  0.18612648  0.99016459  0.60675907  1  -0.018012  0  -0.102982  -0.091195  0  4.066534  0
C  C61  1  0.49475408  0.15670155  0.50883804  1  0.070603  0  -0.039292  -0.236558  0  3.962094  0
C  C62  1  0.61089358  0.08897242  0.49866534  1  0.537984  0  0.095646  0.225637  0  4.033643  0
C  C63  1  0.38563323  0.10039151  0.53937903  1  0.012966  0  -0.010238  0.069447  0  3.977352  0
C  C64  1  0.28063908  0.17093992  0.56281961  1  -0.048667  0  -0.109222  -0.147025  0  4.000729  0
C  C65  1  0.18308478  0.11758445  0.59598418  1  -0.061388  0  -0.104266  -0.088421  0  4.061307  0
C  C66  1  0.40206337  0.40533649  0.84125622  1  -0.045667  0  -0.060767  -0.105582  0  3.877441  0
C  C67  1  0.63540024  0.38636012  0.86502093  1  -0.00905  0  -0.062716  -0.082024  0  3.936635  0
C  C68  1  0.66718637  0.38291791  0.80896079  1  -0.141104  0  -0.010807  -0.131904  0  3.975567  0
C  C69  1  0.56959359  0.39102166  0.76559135  1  0.046045  0  0.013032  0.081147  0  3.945172  0
C  C70  1  0.60073603  0.40543629  0.70784443  1  -0.091352  0  -0.061191  -0.106379  0  3.875317  0
C  C71  1  0.36648463  0.39111176  0.68404307  1  0.100814  0  -0.061662  -0.079378  0  3.934305  0
C  C72  1  0.33489058  0.38600976  0.74004601  1  -0.242267  0  -0.010462  -0.132984  0  3.9763  0
C  C73  1  0.43295330  0.39189976  0.78339280  1  0.041891  0  0.012547  0.083204  0  3.945849  0
C  C74  1  0.50158512  0.40531513  0.88128704  1  0.0373  0  -0.004212  -0.00784  0  3.94745  0
C  C75  1  0.50090410  0.40897371  0.66798230  1  -0.019505  0  -0.003792  -0.007479  0  3.946143  0
C  C76  1  0.50158941  0.56815615  0.21674059  1  0.030682  0  -0.035862  -0.232026  0  3.949172  0
C  C77  1  0.60451144  0.64562895  0.24206833  1  0.033347  0  -0.007705  0.071694  0  3.958543  0
C  C78  1  0.41477091  0.50173068  0.25127325  1  0.541613  0  0.091276  0.217847  0  4.045666  0
C  C79  1  0.68856884  0.72451905  0.21023354  1  0.016573  0  -0.102985  -0.142669  0  3.994073  0
C  C80  1  0.78417173  0.79940058  0.23548128  1  -0.057246  0  -0.097025  -0.087323  0  4.064495  0
C  C81  1  0.52857759  0.57672998  0.33639586  1  0.030442  0  -0.036093  -0.231672  0  3.967258  0
C  C82  1  0.42322312  0.51150247  0.31113555  1  0.58888  0  0.091398  0.219997  0  4.044074  0
C  C83  1  0.61978990  0.64721884  0.30221812  1  -0.035693  0  -0.009393  0.064555  0  3.986204  0
C  C84  1  0.71822821  0.72577459  0.32670839  1  -0.049088  0  -0.103282  -0.142756  0  3.999495  0
C  C85  1  0.79950911  0.80000339  0.29416246  1  -0.009067  0  -0.096097  -0.084838  0  4.059121  0
C  C86  1  0.91115618  0.55646958  0.99517493  1  0.324913  0  0.105326  0.171625  0  3.985474  0
C  C87  1  0.90924065  0.44437392  0.07864259  1  1.299689  0  0.247916  0.368826  0  4.045892  0
C  C88  1  0.84309180  0.60201626  0.94796873  1  0.049531  0  -0.088302  -0.155782  0  3.95946  0
C  C89  1  0.91267738  0.65872439  0.90503154  1  -0.058313  0  -0.078216  -0.055771  0  3.996971  0
C  C90  1  0.05279954  0.46622871  0.08399156  1  1.257838  0  0.245225  0.364218  0  4.036977  0
C  C91  1  0.05275579  0.56860004  0.99807260  1  0.398391  0  0.102313  0.16728  0  3.991574  0
C  C92  1  0.12095862  0.63029669  0.95470580  1  0.005789  0  -0.08727  -0.149923  0  3.952609  0
C  C93  1  0.05180584  0.67424214  0.90872760  1  0.026892  0  -0.076638  -0.054806  0  3.988973  0
C  C94  1  0.48705983  0.87996596  0.02310563  1  0.044094  0  -0.040013  -0.23983  0  3.964772  0
C  C95  1  0.59349731  0.95397793  0.99922453  1  0.01207  0  -0.009516  0.070746  0  3.975233  0
C  C96  1  0.37800433  0.93847047  0.04847421  1  0.599842  0  0.096307  0.228485  0  4.036898  0
C  C97  1  0.68855571  0.90424886  0.96155253  1  -0.019528  0  -0.104741  -0.141522  0  3.999221  0
C  C98  1  0.78541818  0.97749574  0.93683534  1  -0.029993  0  -0.103655  -0.08997  0  4.070284  0
C  C99  1  0.49320711  0.13922001  0.04348678  1  0.008432  0  -0.03671  -0.229425  0  3.968044  0
C  C100  1  0.37937954  0.07005360  0.05677296  1  0.540545  0  0.091577  0.217817  0  4.041063  0
C  C101  1  0.59896377  0.08405106  0.01103830  1  -0.017817  0  -0.011121  0.066815  0  3.983614  0
C  C102  1  0.70098103  0.15620501  0.98583181  1  -0.067032  0  -0.108476  -0.144812  0  3.996075  0
C  C103  1  0.79232123  0.10454380  0.94927397  1  -0.021365  0  -0.104848  -0.091596  0  4.063082  0
S  S104  1  0.16625578  0.40156354  0.75666684  1  3.048756  0  0.547618  1.166967  0  5.988327  0
S  S105  1  0.83632871  0.39913327  0.79293102  1  3.053959  0  0.546423  1.165438  0  5.991943  0
N  N106  1  0.15401160  0.50775915  0.51459640  1  -1.250711  0  -0.322569  -0.36569  0  3.466559  0
N  N107  1  0.87549706  0.53653002  0.50906603  1  -1.241679  0  -0.323639  -0.365372  0  3.46036  0
N  N108  1  0.84163390  0.49629467  0.03751827  1  -1.232697  0  -0.320896  -0.360237  0  3.463262  0
N  N109  1  0.12143698  0.52118677  0.04385136  1  -1.254772  0  -0.318322  -0.361843  0  3.451711  0
O  O110  1  0.61110804  0.70439948  0.52726755  1  -1.179498  0  -0.317561  -0.581079  0  2.387244  0
O  O111  1  0.38561222  0.70455312  0.52777792  1  -1.165683  0  -0.303699  -0.520311  0  2.36628  0
O  O112  1  0.42237179  0.46035293  0.57935395  1  -1.191133  0  -0.310494  -0.563943  0  2.474717  0
O  O113  1  0.64625739  0.46144414  0.59151598  1  -1.15247  0  -0.30136  -0.522209  0  2.299481  0
O  O114  1  0.38027339  0.33883682  0.47885908  1  -1.190056  0  -0.315662  -0.576894  0  2.378127  0
O  O115  1  0.60443163  0.34438635  0.48522545  1  -1.177337  0  -0.317502  -0.578709  0  2.337181  0
O  O116  1  0.65114446  0.56462563  0.42368684  1  -1.184283  0  -0.303206  -0.560549  0  2.369785  0
O  O117  1  0.42631578  0.56606148  0.42513219  1  -1.175965  0  -0.31071  -0.562462  0  2.368368  0
O  O118  1  0.38011497  0.68566730  0.03559781  1  -1.176001  0  -0.319281  -0.57823  0  2.42957  0
O  O119  1  0.60075900  0.68752439  0.01703563  1  -1.170826  0  -0.304927  -0.52567  0  2.375311  0
O  O120  1  0.57978223  0.43865819  0.97218290  1  -1.185105  0  -0.310315  -0.561651  0  2.477627  0
O  O121  1  0.35794536  0.46072378  0.95788854  1  -1.154256  0  -0.303178  -0.526248  0  2.290257  0
O  O122  1  0.60318339  0.32697083  0.07391025  1  -1.195028  0  -0.31008  -0.568329  0  2.342469  0
O  O123  1  0.38045103  0.32565774  0.05935261  1  -1.169803  0  -0.318142  -0.57347  0  2.381124  0
O  O124  1  0.36984028  0.52093222  0.13444584  1  -1.189624  0  -0.323359  -0.608908  0  2.320867  0
O  O125  1  0.58737013  0.56984686  0.12383514  1  -1.163277  0  -0.305109  -0.530107  0  2.397337  0
O  O126  1  0.88357985  0.44827502  0.41989418  1  -1.14292  0  -0.30226  -0.389822  0  2.274477  0
O  O127  1  0.13782610  0.38295323  0.43533457  1  -1.130979  0  -0.29894  -0.387465  0  2.286706  0
O  O128  1  0.72311799  0.13699104  0.47691504  1  -1.117826  0  -0.339463  -0.39691  0  2.279482  0
O  O129  1  0.72625084  0.90078384  0.49430561  1  -1.142655  0  -0.341511  -0.400363  0  2.284078  0
O  O130  1  0.32615918  0.45125430  0.33900767  1  -1.131624  0  -0.344891  -0.40062  0  2.308448  0
O  O131  1  0.31905592  0.42324564  0.23261236  1  -1.129273  0  -0.343048  -0.389193  0  2.293688  0
O  O132  1  0.10987855  0.42874835  0.13112322  1  -1.135285  0  -0.303856  -0.384565  0  2.288472  0
O  O133  1  0.85270548  0.37209361  0.11645635  1  -1.142206  0  -0.299265  -0.388781  0  2.266634  0
O  O134  1  0.26826748  0.11692026  0.07985864  1  -1.12126  0  -0.342593  -0.39899  0  2.280067  0
O  O135  1  0.26941185  0.88007406  0.06800220  1  -1.123312  0  -0.34099  -0.398223  0  2.28065  0
O  O136  1  0.14595386  0.29722181  0.80216764  1  -1.268528  0  -0.355625  -0.532772  0  2.190036  0
O  O137  1  0.08749917  0.36813207  0.70691894  1  -1.308986  0  -0.304915  -0.552194  0  2.207001  0
O  O138  1  0.14781293  0.52206935  0.78141212  1  -1.275171  0  -0.299652  -0.52608  0  2.152375  0
O  O139  1  0.85549391  0.29726460  0.74568072  1  -1.236945  0  -0.355158  -0.532474  0  2.189497  0
O  O140  1  0.91405917  0.36332071  0.84222425  1  -1.305953  0  -0.306054  -0.552978  0  2.20158  0
O  O141  1  0.85713538  0.52091348  0.77037167  1  -1.274497  0  -0.299823  -0.526455  0  2.15608  0
