# generated using pymatgen
data_NaCuH18C16N2ClO6
_symmetry_space_group_name_H-M   'P 1'
_cell_length_a   7.35445769
_cell_length_b   11.04625921
_cell_length_c   11.12742810
_cell_angle_alpha   78.87412024
_cell_angle_beta   88.97225760
_cell_angle_gamma   88.32045331
_symmetry_Int_Tables_number   1
_chemical_formula_structural   NaCuH18C16N2ClO6
_chemical_formula_sum   'Na2 Cu2 H36 C32 N4 Cl2 O12'
_cell_volume   886.54346724
_cell_formula_units_Z   2
loop_
 _symmetry_equiv_pos_site_id
 _symmetry_equiv_pos_as_xyz
  1  'x, y, z'
loop_
 _atom_site_type_symbol
 _atom_site_label
 _atom_site_symmetry_multiplicity
 _atom_site_fract_x
 _atom_site_fract_y
 _atom_site_fract_z
 _atom_site_occupancy
 _atom_site_hle17_ddec_charge
 _atom_site_hle17_ddec_spin_density
 _atom_site_hle17_ddec_sum_bond_order
 _atom_site_hle17_magmom
 _atom_site_hse06_10hf_ddec_charge
 _atom_site_hse06_10hf_ddec_spin_density
 _atom_site_hse06_10hf_ddec_sum_bond_order
 _atom_site_hse06_10hf_magmom
 _atom_site_hse06_ddec_charge
 _atom_site_hse06_ddec_spin_density
 _atom_site_hse06_ddec_sum_bond_order
 _atom_site_hse06_magmom
 _atom_site_pbe_cm5_charge
 _atom_site_pbe_ddec_charge
 _atom_site_pbe_ddec_spin_density
 _atom_site_pbe_ddec_sum_bond_order
 _atom_site_pbe_magmom
Na  Na0  1  0.00000501  0.00000282  0.99999630  1  0.912214  0.000782  0.375726  0.001  0.866884  0.000607  0.530917  0.0  0.877522  0.000689  0.510939  0.0  0.67554  0.85919  0.000462  0.545155  0.0
Na  Na1  1  0.50001030  0.00000441  0.00000442  1  0.916194  0.000767  0.39439  0.001  0.87788  0.000646  0.547833  0.0  0.887437  0.000708  0.527939  0.0  0.705697  0.870787  0.000526  0.562156  0.0
Cu  Cu2  1  0.75456687  0.88169437  0.83618519  1  0.776565  -0.635679  1.885627  -0.447  0.764582  -0.736105  2.269266  -0.572  0.849144  -0.801053  2.203926  -0.652  0.700098  0.714766  -0.694276  2.313241  -0.524
Cu  Cu3  1  0.24543928  0.11830644  0.16381983  1  0.776471  -0.635609  1.885609  -0.447  0.764497  -0.736102  2.269162  -0.572  0.849085  -0.80103  2.203887  -0.652  0.700093  0.714708  -0.694259  2.31314  -0.524
H  H4  1  0.91837750  0.93644017  0.63721244  1  0.257027  0.001224  0.919964  0.002  0.25321  -0.000213  0.969895  0.0  0.259131  0.000188  0.967095  0.0  0.295071  0.249009  -0.000515  0.972266  0.0
H  H5  1  0.08162719  0.06356340  0.36279115  1  0.257024  0.001224  0.919983  0.002  0.253139  -0.000213  0.969954  0.0  0.259057  0.000188  0.967158  0.0  0.295024  0.248934  -0.000515  0.972325  0.0
H  H6  1  0.58749750  0.68898109  0.82344510  1  0.258626  0.001166  0.89641  0.001  0.25435  -0.000216  0.950801  0.0  0.259532  0.000169  0.949219  0.0  0.30113  0.250661  -0.0005  0.952337  0.0
H  H7  1  0.41250751  0.31101418  0.17656014  1  0.258647  0.001167  0.896354  0.001  0.254347  -0.000215  0.950806  0.0  0.259533  0.00017  0.949218  0.0  0.301149  0.250655  -0.000499  0.952353  0.0
H  H8  1  0.90352109  0.25804367  0.88551692  1  0.103666  0.000763  0.960131  0.001  0.114982  1.9e-05  1.020847  0.0  0.118242  2.2e-05  1.019024  0.0  0.1005  0.112635  0.0  1.02225  0.0
H  H9  1  0.09649040  0.74196066  0.11446218  1  0.103741  0.000761  0.960025  0.001  0.115003  1.9e-05  1.020782  0.0  0.118262  2.2e-05  1.018963  0.0  0.100469  0.11266  0.0  1.022188  0.0
H  H10  1  0.98150190  0.43605860  0.72235491  1  0.075496  -0.000428  0.966785  -0.001  0.086174  -0.000251  1.031713  0.0  0.087856  -0.000169  1.031749  0.0  0.092073  0.084995  -0.000324  1.031692  0.0
H  H11  1  0.01848928  0.56394382  0.27761671  1  0.075524  -0.000428  0.966858  -0.001  0.086167  -0.000251  1.031795  0.0  0.087847  -0.000169  1.031832  0.0  0.092073  0.084986  -0.000324  1.031778  0.0
H  H12  1  0.90700779  0.43262292  0.50286285  1  0.079758  0.000683  0.985361  0.001  0.092345  1e-05  1.047455  0.0  0.094752  1.8e-05  1.047318  0.0  0.090406  0.090653  0.0  1.047572  0.0
H  H13  1  0.09295121  0.56736752  0.49711510  1  0.079907  0.000683  0.985091  0.001  0.092454  9e-06  1.04724  0.0  0.094838  1.8e-05  1.047132  0.0  0.090476  0.090766  0.0  1.047328  0.0
H  H14  1  0.77326230  0.24578897  0.45268644  1  0.083954  -7.8e-05  1.004838  0.0  0.089765  -1.1e-05  1.07728  0.0  0.092322  5e-06  1.07544  0.0  0.086521  0.087926  -3e-05  1.078577  0.0
H  H15  1  0.22669256  0.75420251  0.54730843  1  0.08393  -7.8e-05  1.004779  0.0  0.089835  -1.1e-05  1.07714  0.0  0.09239  5e-06  1.075308  0.0  0.086505  0.088005  -3e-05  1.078434  0.0
H  H16  1  0.53787679  0.02393295  0.63800576  1  0.069088  -0.000241  0.948847  0.0  0.082428  -0.000286  1.019316  0.0  0.08206  -0.0002  1.019366  0.0  0.101006  0.082409  -0.000351  1.019511  -0.001
H  H17  1  0.46211782  0.97605028  0.36199748  1  0.069099  -0.000241  0.948886  0.0  0.082421  -0.000286  1.019341  0.0  0.082054  -0.0002  1.019393  0.0  0.100982  0.082396  -0.000351  1.019544  -0.001
H  H18  1  0.67512776  0.04924728  0.50231645  1  0.065922  -0.003812  0.959873  -0.005  0.079743  -0.003077  1.029738  -0.004  0.079817  -0.002276  1.029085  -0.003  0.097362  0.079549  -0.003633  1.030212  -0.005
H  H19  1  0.32486288  0.95073316  0.49768469  1  0.065891  -0.003812  0.959859  -0.005  0.079791  -0.003078  1.029612  -0.004  0.079873  -0.002276  1.028944  -0.003  0.097398  0.079597  -0.003634  1.030088  -0.005
H  H20  1  0.58033516  0.81152948  0.60135051  1  0.076056  9.7e-05  0.929452  0.0  0.0943  8.8e-05  0.990345  0.0  0.094522  8.3e-05  0.990755  0.0  0.108303  0.0939  8.5e-05  0.990272  0.0
H  H21  1  0.41968235  0.18845931  0.39865497  1  0.076012  9.6e-05  0.929317  0.0  0.09432  8.8e-05  0.99025  0.0  0.094545  8.3e-05  0.990659  0.0  0.108326  0.09391  8.5e-05  0.990188  0.0
H  H22  1  0.78563796  0.81088314  0.51371378  1  0.084767  -0.002295  0.90978  -0.003  0.106822  -0.001846  0.960443  -0.002  0.107231  -0.001355  0.961105  -0.002  0.110975  0.106336  -0.002181  0.960113  -0.003
H  H23  1  0.21438215  0.18910846  0.48629561  1  0.08464  -0.002295  0.90979  -0.003  0.10675  -0.001847  0.960478  -0.002  0.107162  -0.001355  0.961137  -0.002  0.110902  0.106267  -0.002181  0.96015  -0.003
H  H24  1  0.94523147  0.69297132  0.70013315  1  0.078344  4.1e-05  0.919671  0.0  0.096127  7.5e-05  0.981915  0.0  0.096277  7.6e-05  0.982393  0.0  0.110522  0.09581  6.9e-05  0.981742  0.0
H  H25  1  0.05478294  0.30702679  0.29988400  1  0.078493  4.1e-05  0.919645  0.0  0.096342  7.5e-05  0.981768  0.0  0.096498  7.6e-05  0.982239  0.0  0.110585  0.096021  6.9e-05  0.981593  0.0
H  H26  1  0.75301693  0.61088642  0.66832640  1  0.071877  -0.001782  0.925457  -0.002  0.092987  -0.001538  0.98357  -0.002  0.093642  -0.001132  0.983571  -0.002  0.108347  0.092369  -0.00181  0.983636  -0.002
H  H27  1  0.24700711  0.38910889  0.33168581  1  0.071957  -0.001782  0.925496  -0.002  0.093057  -0.001538  0.983587  -0.002  0.093711  -0.001132  0.98359  -0.002  0.108436  0.092438  -0.00181  0.983653  -0.002
H  H28  1  0.95873052  0.64309932  0.91742948  1  0.074061  -0.000107  0.930878  0.0  0.090887  -0.00014  0.996348  0.0  0.090502  -9.1e-05  0.996574  0.0  0.105364  0.090887  -0.000181  0.996461  0.0
H  H29  1  0.04127269  0.35690708  0.08258256  1  0.074108  -0.000107  0.93082  0.0  0.090887  -0.00014  0.99631  0.0  0.090514  -9.1e-05  0.996525  0.0  0.105339  0.090886  -0.000181  0.996419  0.0
H  H30  1  0.80772425  0.52292505  0.90588742  1  0.068976  -0.004098  0.914596  -0.005  0.092056  -0.003423  0.969137  -0.004  0.091948  -0.002528  0.969412  -0.003  0.106385  0.091927  -0.004048  0.969084  -0.005
H  H31  1  0.19228869  0.47707581  0.09412561  1  0.069138  -0.004099  0.914334  -0.005  0.092107  -0.003424  0.968963  -0.004  0.092013  -0.002529  0.969227  -0.003  0.106413  0.091979  -0.004049  0.968908  -0.005
H  H32  1  0.70650033  0.42874888  0.09351987  1  0.080396  -0.000144  0.971713  0.0  0.088039  -0.000106  1.040711  0.0  0.090933  -6.4e-05  1.038374  0.0  0.088482  0.085989  -0.000148  1.042299  0.0
H  H33  1  0.29349326  0.57126025  0.90648634  1  0.080433  -0.000144  0.971566  0.0  0.088046  -0.000106  1.040599  0.0  0.090938  -6.4e-05  1.038256  0.0  0.088488  0.085995  -0.000148  1.042187  0.0
H  H34  1  0.58528333  0.42941354  0.30359771  1  0.084596  0.00048  0.975008  0.0  0.097435  -3.1e-05  1.035435  0.0  0.099922  -2e-05  1.034674  0.0  0.089849  0.095692  -4.1e-05  1.036014  0.0
H  H35  1  0.41470354  0.57059374  0.69640805  1  0.084578  0.00048  0.975061  0.0  0.097429  -3.1e-05  1.035486  0.0  0.099916  -2e-05  1.034725  0.0  0.089845  0.095684  -4.1e-05  1.03607  0.0
H  H36  1  0.53144104  0.63067272  0.37153507  1  0.079533  -0.000401  0.954457  -0.001  0.092803  -0.00021  1.010864  0.0  0.094764  -0.000127  1.010593  0.0  0.093565  0.091418  -0.000288  1.011061  0.0
H  H37  1  0.46855122  0.36933551  0.62847493  1  0.079387  -0.0004  0.954691  -0.001  0.092691  -0.00021  1.01106  0.0  0.094652  -0.000127  1.010786  0.0  0.093493  0.091308  -0.000288  1.011255  0.0
H  H38  1  0.61412454  0.82612059  0.23295797  1  0.103188  0.000683  0.960505  0.001  0.11332  3.3e-05  1.023169  0.0  0.116407  3.1e-05  1.021653  0.0  0.100419  0.111108  2.2e-05  1.024347  0.0
H  H39  1  0.38588532  0.17388950  0.76705237  1  0.103188  0.000682  0.960661  0.001  0.113312  3.3e-05  1.023334  0.0  0.116398  3.1e-05  1.021817  0.0  0.100419  0.111103  2.2e-05  1.024509  0.0
C  C40  1  0.79802675  0.14948759  0.76282104  1  0.31005  0.009201  3.868291  0.009  0.302374  0.000723  4.131408  0.002  0.31738  0.001722  4.150116  0.002  0.069049  0.292446  -0.000352  4.118473  0.001
C  C41  1  0.20197017  0.85050660  0.23716203  1  0.309814  0.009193  3.868632  0.009  0.302261  0.000726  4.131722  0.002  0.31727  0.001721  4.150424  0.002  0.069027  0.292332  -0.000352  4.118784  0.001
C  C42  1  0.87555820  0.25632010  0.78995617  1  -0.192717  -0.01934  3.732317  -0.019  -0.214054  -0.0058  3.985214  -0.006  -0.221269  -0.004204  4.005326  -0.005  -0.110293  -0.209187  -0.007163  3.971471  -0.008
C  C43  1  0.12444120  0.74368054  0.21002469  1  -0.192696  -0.019333  3.732615  -0.019  -0.214034  -0.005798  3.985474  -0.006  -0.221253  -0.004206  4.005589  -0.005  -0.110261  -0.209173  -0.007163  3.971732  -0.008
C  C44  1  0.91614287  0.35674344  0.69812336  1  -0.051222  0.013392  3.832084  0.009  -0.066869  0.001172  4.0918  0.0  -0.065227  0.001507  4.114042  0.001  -0.098861  -0.067724  0.000974  4.07645  0.0
C  C45  1  0.08384427  0.64325802  0.30184310  1  -0.051163  0.013387  3.832128  0.009  -0.066715  0.00117  4.091741  0.0  -0.065066  0.001512  4.113971  0.001  -0.098842  -0.067575  0.000975  4.076395  0.0
C  C46  1  0.87825061  0.35429680  0.57590266  1  -0.124099  -0.017906  3.842549  -0.016  -0.145688  -0.002954  4.104898  -0.003  -0.15172  -0.001965  4.12883  -0.002  -0.122803  -0.141558  -0.004014  4.088307  -0.004
C  C47  1  0.12171634  0.64569919  0.42407500  1  -0.124356  -0.017917  3.842181  -0.016  -0.145937  -0.002957  4.104602  -0.003  -0.15196  -0.001968  4.128515  -0.002  -0.122884  -0.141791  -0.004018  4.088007  -0.004
C  C48  1  0.80248782  0.24900357  0.54772824  1  -0.118284  0.013145  3.815849  0.009  -0.136548  0.001923  4.06843  0.001  -0.136216  0.002183  4.091244  0.001  -0.110225  -0.1363  0.001758  4.052512  0.001
C  C49  1  0.19748452  0.75099335  0.45225098  1  -0.118324  0.013137  3.815859  0.009  -0.136618  0.001926  4.068544  0.001  -0.13629  0.002184  4.091361  0.001  -0.110202  -0.136378  0.001759  4.052612  0.001
C  C50  1  0.76162183  0.14660242  0.63848657  1  -0.065254  -0.01631  3.731844  -0.016  -0.04885  -0.004472  3.973062  -0.005  -0.057685  -0.00301  4.000932  -0.004  -0.0393  -0.043047  -0.005802  3.954054  -0.006
C  C51  1  0.23836403  0.85339641  0.36150020  1  -0.065081  -0.016315  3.731873  -0.016  -0.048943  -0.004476  3.973401  -0.005  -0.057775  -0.003009  4.001276  -0.004  -0.039407  -0.043142  -0.005806  3.954392  -0.006
C  C52  1  0.67814209  0.03638618  0.60272336  1  0.000879  0.005135  3.667504  0.006  -0.063317  0.00126  3.929932  0.002  -0.056226  0.00227  3.94226  0.003  -0.076352  -0.067579  0.000447  3.921647  0.002
C  C53  1  0.32185227  0.96360349  0.39727502  1  0.000885  0.005133  3.66766  0.006  -0.063292  0.001262  3.929985  0.002  -0.056187  0.002268  3.942275  0.003  -0.07631  -0.067559  0.000446  3.921714  0.002
C  C54  1  0.72955897  0.81022238  0.60623110  1  0.004232  0.002916  3.612944  0.004  -0.053387  0.000315  3.875997  0.001  -0.049198  0.001174  3.888384  0.002  -0.070213  -0.055838  -0.000346  3.867759  0.001
C  C55  1  0.27045857  0.18976550  0.39377546  1  0.004587  0.002921  3.61241  0.004  -0.053364  0.000317  3.875721  0.001  -0.049179  0.001175  3.888112  0.002  -0.070181  -0.055814  -0.000347  3.867489  0.001
C  C56  1  0.79576724  0.69618556  0.69600632  1  0.00219  0.002286  3.626272  0.003  -0.05943  0.000167  3.896934  0.001  -0.055138  0.001057  3.909171  0.002  -0.070568  -0.061969  -0.00053  3.888821  0.001
C  C57  1  0.20425409  0.30380970  0.30399783  1  0.001688  0.002281  3.62653  0.003  -0.059867  0.000169  3.897213  0.001  -0.055579  0.001055  3.909455  0.002  -0.070773  -0.0624  -0.00053  3.8891  0.001
C  C58  1  0.81446803  0.61828906  0.92157680  1  0.014357  0.004879  3.657507  0.006  -0.052418  0.001408  3.922066  0.003  -0.045408  0.002339  3.934242  0.003  -0.067544  -0.056732  0.00065  3.914063  0.002
C  C59  1  0.18553811  0.38171184  0.07844259  1  0.014172  0.004877  3.657531  0.006  -0.052428  0.001408  3.921943  0.003  -0.045442  0.002339  3.934125  0.003  -0.067469  -0.056741  0.000649  3.913948  0.002
C  C60  1  0.73034914  0.62548294  0.04452541  1  -0.078942  -0.011774  3.734533  -0.012  -0.060587  -0.003385  3.975697  -0.004  -0.069533  -0.002245  4.004054  -0.003  -0.041227  -0.054786  -0.004385  3.956518  -0.005
C  C61  1  0.26965278  0.37452159  0.95548342  1  -0.079094  -0.011768  3.734453  -0.012  -0.060754  -0.003383  3.975565  -0.004  -0.069695  -0.002244  4.003921  -0.003  -0.041232  -0.054957  -0.004385  3.956389  -0.005
C  C62  1  0.68484387  0.51607742  0.12452618  1  -0.107226  0.009217  3.813022  0.006  -0.128388  0.001283  4.070985  0.001  -0.127749  0.001537  4.093492  0.001  -0.106723  -0.128366  0.001067  4.055323  0.001
C  C63  1  0.31515241  0.48393259  0.87547354  1  -0.107194  0.009203  3.812717  0.006  -0.128314  0.001284  4.070702  0.001  -0.127673  0.001534  4.093204  0.001  -0.106699  -0.128289  0.001066  4.055041  0.001
C  C64  1  0.61565924  0.51596512  0.24222388  1  -0.124087  -0.012798  3.827151  -0.011  -0.145458  -0.001855  4.091295  -0.002  -0.150916  -0.001229  4.11464  -0.001  -0.125118  -0.141751  -0.002523  4.07518  -0.002
C  C65  1  0.38433597  0.48403752  0.75777910  1  -0.124187  -0.012785  3.827295  -0.011  -0.145566  -0.001857  4.091422  -0.002  -0.151026  -0.001228  4.114767  -0.001  -0.125186  -0.141862  -0.002522  4.075308  -0.002
C  C66  1  0.58867143  0.62841063  0.28078701  1  -0.044575  0.010408  3.826936  0.007  -0.056787  0.000616  4.077849  0.0  -0.055372  0.000888  4.099969  0.0  -0.096087  -0.057528  0.000436  4.062632  0.0
C  C67  1  0.41132757  0.37159939  0.71921447  1  -0.044188  0.010395  3.826917  0.007  -0.056431  0.000615  4.0778  0.0  -0.055009  0.00089  4.099908  0.0  -0.095885  -0.057172  0.000436  4.062583  0.0
C  C68  1  0.63225525  0.73815158  0.20310417  1  -0.191692  -0.017405  3.740052  -0.017  -0.211988  -0.005739  3.990959  -0.006  -0.219133  -0.004098  4.011574  -0.005  -0.10989  -0.207193  -0.007098  3.976919  -0.008
C  C69  1  0.36775212  0.26185293  0.79690191  1  -0.191882  -0.017399  3.740187  -0.017  -0.212192  -0.005738  3.991136  -0.006  -0.219334  -0.0041  4.011745  -0.005  -0.109998  -0.207397  -0.007098  3.977099  -0.008
C  C70  1  0.70413050  0.73966960  0.08427538  1  0.305302  0.007458  3.870445  0.008  0.299763  0.000394  4.128629  0.002  0.314516  0.00126  4.147552  0.002  0.068985  0.289967  -0.000524  4.115626  0.001
C  C71  1  0.29587412  0.26033582  0.91572785  1  0.305413  0.007447  3.870433  0.008  0.299883  0.000389  4.128614  0.002  0.314633  0.001259  4.147534  0.002  0.068979  0.290085  -0.000524  4.115619  0.001
N  N72  1  0.78200379  0.92093774  0.65317380  1  -0.381189  -0.083642  3.273198  -0.103  -0.327044  -0.064029  3.54853  -0.084  -0.356541  -0.053292  3.563458  -0.076  -0.503262  -0.309705  -0.069394  3.540274  -0.087
N  N73  1  0.21800402  0.07905567  0.34683087  1  -0.381235  -0.083629  3.273191  -0.103  -0.326809  -0.064022  3.548293  -0.084  -0.356318  -0.053286  3.563268  -0.076  -0.503206  -0.309473  -0.069385  3.54004  -0.087
N  N74  1  0.72470687  0.70471362  0.81980654  1  -0.385029  -0.080919  3.274238  -0.1  -0.332461  -0.06356  3.553664  -0.084  -0.361266  -0.053004  3.568408  -0.076  -0.498439  -0.315449  -0.068849  3.545359  -0.087
N  N75  1  0.27530057  0.29528903  0.18019810  1  -0.384863  -0.080913  3.274639  -0.1  -0.332341  -0.063561  3.55401  -0.084  -0.361152  -0.053007  3.568794  -0.076  -0.498448  -0.315334  -0.068849  3.545689  -0.087
Cl  Cl76  1  0.24559708  0.87663266  0.78349894  1  1.407564  0.000648  6.186812  0.0  1.347605  0.000732  6.749678  0.0  1.399767  0.000606  6.72432  0.0  0.746211  1.31229  0.000784  6.765425  0.0
Cl  Cl77  1  0.75440614  0.12337368  0.21650502  1  1.407311  0.000648  6.187039  0.0  1.347247  0.000732  6.750005  0.0  1.399382  0.000602  6.724686  0.0  0.745951  1.311928  0.000784  6.765766  0.0
O  O78  1  0.76260466  0.05500025  0.85506816  1  -0.711932  -0.091466  2.119023  -0.12  -0.680203  -0.058558  2.413637  -0.085  -0.717957  -0.04563  2.407389  -0.072  -0.465506  -0.65548  -0.066427  2.41801  -0.091
O  O79  1  0.23740294  0.94499864  0.14492824  1  -0.711761  -0.091475  2.119108  -0.12  -0.680047  -0.058559  2.413628  -0.085  -0.717814  -0.045633  2.407431  -0.072  -0.465403  -0.655327  -0.06643  2.417996  -0.091
O  O80  1  0.74553788  0.84918121  0.01493955  1  -0.70849  -0.088524  2.130636  -0.116  -0.674414  -0.05746  2.424503  -0.083  -0.712083  -0.045054  2.41831  -0.071  -0.461386  -0.649788  -0.064897  2.428891  -0.089
O  O81  1  0.25447224  0.15082239  0.98506757  1  -0.708556  -0.088536  2.130566  -0.116  -0.674489  -0.057463  2.424409  -0.083  -0.71218  -0.045059  2.418276  -0.071  -0.461395  -0.64987  -0.064901  2.428806  -0.089
O  O82  1  0.40694148  0.92261348  0.83320352  1  -0.604792  0.002139  1.97453  0.0  -0.591594  0.002137  2.263598  0.0  -0.605074  0.002366  2.24122  0.0  -0.367542  -0.582754  0.001864  2.278716  0.0
O  O83  1  0.59305820  0.07737822  0.16682135  1  -0.604611  0.002139  1.97461  0.0  -0.59138  0.002137  2.263659  0.0  -0.60487  0.002367  2.241317  0.0  -0.36741  -0.582531  0.001864  2.278754  0.0
O  O84  1  0.29444043  0.76308649  0.74135916  1  -0.531796  8.2e-05  1.908117  0.0  -0.495493  8.8e-05  2.153908  0.0  -0.512014  7.9e-05  2.142305  0.0  -0.289758  -0.484225  8.6e-05  2.161487  0.0
O  O85  1  0.70556385  0.23692807  0.25862879  1  -0.531812  8.1e-05  1.908403  0.0  -0.495437  9e-05  2.154157  0.0  -0.511965  7.6e-05  2.142589  0.0  -0.289675  -0.484172  8.7e-05  2.16173  0.0
O  O86  1  0.17725051  0.96980742  0.68190442  1  -0.521835  0.000362  1.856248  0.0  -0.487363  0.000239  2.087211  0.0  -0.501812  0.000276  2.074651  0.0  -0.28807  -0.477431  0.000194  2.095485  0.0
O  O87  1  0.82276554  0.03021838  0.31810633  1  -0.521867  0.000362  1.856286  0.0  -0.487336  0.000236  2.087259  0.0  -0.501752  0.000279  2.074691  0.0  -0.288052  -0.477393  0.000194  2.095522  0.0
O  O88  1  0.10555346  0.85122985  0.87983914  1  -0.587474  0.001963  1.934137  0.0  -0.572142  0.001956  2.214227  0.0  -0.585603  0.002183  2.193125  0.001  -0.342086  -0.563352  0.001693  2.228595  0.0
O  O89  1  0.89443120  0.14876443  0.12015843  1  -0.587409  0.001962  1.934104  0.0  -0.572071  0.001955  2.214254  0.0  -0.585533  0.002187  2.19317  0.001  -0.342057  -0.563272  0.001692  2.228597  0.0
