# generated using pymatgen
data_CdH6C6(NO3)2
_symmetry_space_group_name_H-M   'P 1'
_cell_length_a   6.75138534
_cell_length_b   7.46998919
_cell_length_c   18.09340608
_cell_angle_alpha   90.00050481
_cell_angle_beta   103.35920242
_cell_angle_gamma   89.99914052
_symmetry_Int_Tables_number   1
_chemical_formula_structural   CdH6C6(NO3)2
_chemical_formula_sum   'Cd4 H24 C24 N8 O24'
_cell_volume   887.80900932
_cell_formula_units_Z   4
loop_
 _symmetry_equiv_pos_site_id
 _symmetry_equiv_pos_as_xyz
  1  'x, y, z'
loop_
 _atom_site_type_symbol
 _atom_site_label
 _atom_site_symmetry_multiplicity
 _atom_site_fract_x
 _atom_site_fract_y
 _atom_site_fract_z
 _atom_site_occupancy
 _atom_site_pbe_bader_charge
 _atom_site_pbe_bader_spin_density
 _atom_site_pbe_cm5_charge
 _atom_site_pbe_ddec_charge
 _atom_site_pbe_ddec_spin_density
 _atom_site_pbe_ddec_sum_bond_order
 _atom_site_pbe_magmom
Cd  Cd0  1  0.24220873  0.20975280  0.37555134  1  1.327262  0  0.784545  1.020583  0  2.043769  0
Cd  Cd1  1  0.75780192  0.70974868  0.12446026  1  1.327483  0  0.784571  1.020627  0  2.043879  0
Cd  Cd2  1  0.75780270  0.79023921  0.62444294  1  1.327136  0  0.784571  1.020524  0  2.043529  0
Cd  Cd3  1  0.24220685  0.29023397  0.87554610  1  1.327338  0  0.784568  1.020647  0  2.043731  0
H  H4  1  0.42395507  0.51205713  0.36022038  1  0.646477  0  0.308129  0.396216  0  0.904635  0
H  H5  1  0.57606064  0.01205020  0.13978650  1  0.646223  0  0.308159  0.396218  0  0.904648  0
H  H6  1  0.57607531  0.48794292  0.63977761  1  0.646521  0  0.308132  0.396191  0  0.904729  0
H  H7  1  0.42395948  0.98796323  0.86021765  1  0.646161  0  0.308112  0.39608  0  0.90478  0
H  H8  1  0.31144421  0.58287930  0.42392220  1  0.645274  0  0.285247  0.38207  0  0.962907  0
H  H9  1  0.68855772  0.08287214  0.07607696  1  0.646034  0  0.285287  0.382199  0  0.962725  0
H  H10  1  0.68856345  0.41711807  0.57607466  1  0.645363  0  0.285342  0.382248  0  0.962723  0
H  H11  1  0.31143798  0.91713727  0.92391987  1  0.646087  0  0.285263  0.38214  0  0.962828  0
H  H12  1  0.97021548  0.99426367  0.28528933  1  0.633748  0  0.286194  0.342893  0  1.015712  0
H  H13  1  0.02977678  0.49425470  0.21471103  1  0.633841  0  0.286199  0.342907  0  1.015673  0
H  H14  1  0.02979385  0.00572433  0.71470818  1  0.633753  0  0.286221  0.343019  0  1.015511  0
H  H15  1  0.97023184  0.50577346  0.78529478  1  0.633308  0  0.286126  0.342792  0  1.015821  0
H  H16  1  0.14706596  0.95885737  0.24300464  1  0.639287  0  0.30481  0.401621  0  0.904577  0
H  H17  1  0.85294400  0.45884965  0.25699816  1  0.639361  0  0.304805  0.401599  0  0.904679  0
H  H18  1  0.85292077  0.04113063  0.75698676  1  0.639457  0  0.304733  0.401511  0  0.904675  0
H  H19  1  0.14704944  0.54115709  0.74300134  1  0.639285  0  0.304805  0.401625  0  0.904652  0
H  H20  1  0.09234013  0.35252967  0.65836131  1  0.162112  0  0.124674  0.113421  0  1.04459  0
H  H21  1  0.90767260  0.85258626  0.84164861  1  0.161212  0  0.124671  0.113304  0  1.044429  0
H  H22  1  0.90765964  0.64746904  0.34163406  1  0.162012  0  0.124651  0.113334  0  1.044686  0
H  H23  1  0.09231012  0.14742450  0.15835537  1  0.161625  0  0.12467  0.113307  0  1.044535  0
H  H24  1  0.16445531  0.43855062  0.53139334  1  0.166244  0  0.125475  0.110891  0  1.009069  0
H  H25  1  0.83550952  0.93853745  0.96861613  1  0.166184  0  0.125518  0.110826  0  1.009351  0
H  H26  1  0.83552963  0.56144006  0.46860241  1  0.166604  0  0.125481  0.11093  0  1.009136  0
H  H27  1  0.16447942  0.06147331  0.03138871  1  0.166318  0  0.125525  0.110925  0  1.009291  0
C  C28  1  0.25194856  0.00486403  0.53188232  1  0.554358  0  0.110593  0.034152  0  3.962861  0
C  C29  1  0.74805906  0.50488543  0.96810919  1  0.554778  0  0.110763  0.034381  0  3.962063  0
C  C30  1  0.74806123  0.99513601  0.46811688  1  0.554315  0  0.110624  0.034338  0  3.962639  0
C  C31  1  0.25192468  0.49511060  0.03188762  1  0.555335  0  0.110747  0.034347  0  3.962497  0
C  C32  1  0.23300388  0.96240187  0.60561059  1  0.500224  0  0.130232  0.062517  0  3.914438  0
C  C33  1  0.76698954  0.46237569  0.89438479  1  0.499834  0  0.130269  0.062618  0  3.915339  0
C  C34  1  0.76700363  0.03757943  0.39438572  1  0.500227  0  0.13017  0.062406  0  3.914053  0
C  C35  1  0.23300751  0.53762570  0.10561156  1  0.499344  0  0.130248  0.062393  0  3.915016  0
C  C36  1  0.14723652  0.25536813  0.62301739  1  0.542685  0  0.064454  0.079292  0  3.861027  0
C  C37  1  0.85274950  0.75538608  0.87699263  1  0.543859  0  0.06432  0.079168  0  3.861166  0
C  C38  1  0.85276535  0.74463192  0.37697475  1  0.542801  0  0.064448  0.079301  0  3.861529  0
C  C39  1  0.14722735  0.24464208  0.12301717  1  0.543294  0  0.064489  0.079394  0  3.861161  0
C  C40  1  0.17910885  0.30075806  0.55181992  1  0.474828  0  0.060164  0.065379  0  3.889722  0
C  C41  1  0.82087247  0.80077405  0.94818665  1  0.474543  0  0.060163  0.065608  0  3.889808  0
C  C42  1  0.82083378  0.69922592  0.44816320  1  0.474063  0  0.060162  0.065265  0  3.889512  0
C  C43  1  0.17913257  0.19923135  0.05182787  1  0.47398  0  0.060025  0.065308  0  3.889487  0
C  C44  1  0.29807081  0.86623383  0.47720949  1  1.594108  0  0.197432  0.525414  0  4.276748  0
C  C45  1  0.70189834  0.36621054  0.02280216  1  1.594057  0  0.197337  0.525163  0  4.276569  0
C  C46  1  0.70192383  0.13376756  0.52278896  1  1.594188  0  0.197452  0.525415  0  4.27675  0
C  C47  1  0.29808605  0.63378549  0.97720245  1  1.59392  0  0.197352  0.525131  0  4.27631  0
C  C48  1  0.27274112  0.78003901  0.64285221  1  1.648615  0  0.214689  0.580371  0  4.243013  0
C  C49  1  0.72725911  0.28008876  0.85714579  1  1.649057  0  0.215033  0.581226  0  4.243095  0
C  C50  1  0.72725377  0.21995167  0.35713625  1  1.648716  0  0.214722  0.580438  0  4.242779  0
C  C51  1  0.27275933  0.71992199  0.14285772  1  1.649359  0  0.21481  0.580967  0  4.243335  0
N  N52  1  0.22427965  0.17399936  0.50620753  1  -1.21203  0  -0.304555  -0.24271  0  3.529704  0
N  N53  1  0.77571424  0.67401431  0.99380432  1  -1.212409  0  -0.304662  -0.242893  0  3.529243  0
N  N54  1  0.77570393  0.82598997  0.49378871  1  -1.211661  0  -0.304582  -0.242796  0  3.529544  0
N  N55  1  0.22430001  0.32597904  0.00620565  1  -1.211781  0  -0.304641  -0.242809  0  3.529408  0
N  N56  1  0.17338162  0.08754875  0.64933957  1  -1.207504  0  -0.279928  -0.210826  0  3.337063  0
N  N57  1  0.82661708  0.58755571  0.85067895  1  -1.207339  0  -0.279899  -0.21081  0  3.337481  0
N  N58  1  0.82664573  0.91242854  0.35065827  1  -1.207542  0  -0.279823  -0.210515  0  3.33734  0
N  N59  1  0.17337962  0.41245237  0.14933238  1  -1.207377  0  -0.279978  -0.210836  0  3.337099  0
O  O60  1  0.32521369  0.92054491  0.41388711  1  -1.147509  0  -0.321346  -0.546123  0  2.313596  0
O  O61  1  0.67479246  0.42052746  0.08613206  1  -1.147243  0  -0.321282  -0.546054  0  2.313754  0
O  O62  1  0.67479140  0.07946852  0.58611130  1  -1.147464  0  -0.321295  -0.546045  0  2.313564  0
O  O63  1  0.32521891  0.57946991  0.91387832  1  -1.147129  0  -0.321262  -0.545938  0  2.313354  0
O  O64  1  0.30702324  0.70418693  0.49846771  1  -1.154164  0  -0.304456  -0.539656  0  2.225549  0
O  O65  1  0.69294077  0.20415924  0.00152603  1  -1.154551  0  -0.304475  -0.539681  0  2.225557  0
O  O66  1  0.69295645  0.29581981  0.50153612  1  -1.154273  0  -0.304544  -0.539818  0  2.225479  0
O  O67  1  0.30705376  0.79584080  0.99847741  1  -1.154576  0  -0.304507  -0.539707  0  2.225386  0
O  O68  1  0.11840854  0.69302390  0.65191981  1  -1.167473  0  -0.306914  -0.549898  0  2.231978  0
O  O69  1  0.88156874  0.19306346  0.84807627  1  -1.167757  0  -0.307013  -0.550349  0  2.232067  0
O  O70  1  0.88159318  0.30696410  0.34807177  1  -1.167395  0  -0.306972  -0.550025  0  2.231895  0
O  O71  1  0.11843929  0.80694060  0.15193284  1  -1.167888  0  -0.306957  -0.550199  0  2.231821  0
O  O72  1  0.45600692  0.73335400  0.66805171  1  -1.163684  0  -0.321157  -0.553795  0  2.232221  0
O  O73  1  0.54401241  0.23339479  0.83194766  1  -1.163769  0  -0.321426  -0.554239  0  2.231997  0
O  O74  1  0.54398435  0.26665810  0.33193991  1  -1.163868  0  -0.321165  -0.553825  0  2.232252  0
O  O75  1  0.45600863  0.76660392  0.16805987  1  -1.163919  0  -0.321234  -0.55401  0  2.232372  0
O  O76  1  0.29496670  0.50867258  0.37596413  1  -1.243543  0  -0.580239  -0.737717  0  2.107887  0
O  O77  1  0.70503281  0.00866499  0.12403249  1  -1.244015  0  -0.580286  -0.737808  0  2.107907  0
O  O78  1  0.70503985  0.49130069  0.62402324  1  -1.243572  0  -0.580302  -0.737752  0  2.108033  0
O  O79  1  0.29498941  0.99133505  0.87596842  1  -1.243901  0  -0.580214  -0.737574  0  2.10819  0
O  O80  1  0.08416347  0.05365326  0.26782101  1  -1.239285  0  -0.578048  -0.734093  0  2.174207  0
O  O81  1  0.91584166  0.55363759  0.23217712  1  -1.239419  0  -0.578043  -0.734046  0  2.174596  0
O  O82  1  0.91584768  0.94633875  0.73217770  1  -1.239343  0  -0.577982  -0.734057  0  2.174148  0
O  O83  1  0.08416028  0.44636379  0.76782613  1  -1.23881  0  -0.577996  -0.734035  0  2.174411  0
