# generated using pymatgen
data_Co3H16C14(N7O4)2
_symmetry_space_group_name_H-M   'P 1'
_cell_length_a   8.58716832
_cell_length_b   8.91089476
_cell_length_c   8.81370176
_cell_angle_alpha   107.02433480
_cell_angle_beta   112.39511682
_cell_angle_gamma   100.86225344
_symmetry_Int_Tables_number   1
_chemical_formula_structural   Co3H16C14(N7O4)2
_chemical_formula_sum   'Co3 H16 C14 N14 O8'
_cell_volume   560.85225655
_cell_formula_units_Z   1
loop_
 _symmetry_equiv_pos_site_id
 _symmetry_equiv_pos_as_xyz
  1  'x, y, z'
loop_
 _atom_site_type_symbol
 _atom_site_label
 _atom_site_symmetry_multiplicity
 _atom_site_fract_x
 _atom_site_fract_y
 _atom_site_fract_z
 _atom_site_occupancy
 _atom_site_hle17_ddec_charge
 _atom_site_hle17_ddec_spin_density
 _atom_site_hle17_ddec_sum_bond_order
 _atom_site_hle17_magmom
 _atom_site_pbe_cm5_charge
 _atom_site_pbe_ddec_charge
 _atom_site_pbe_ddec_spin_density
 _atom_site_pbe_ddec_sum_bond_order
 _atom_site_pbe_magmom
Co  Co0  1  0.00021154  0.00303834  0.49458548  1  0.901272  2.766375  2.191152  2.463  0.665671  0.847067  2.694273  2.656942  2.438
Co  Co1  1  0.01404318  0.91858718  0.81150668  1  0.989252  -2.851034  2.089282  -2.518  0.661425  0.907486  -2.688934  2.568382  -2.463
Co  Co2  1  0.98860325  0.08178849  0.19894487  1  0.947821  2.771605  2.137149  2.47  0.648093  0.8648  2.670501  2.625015  2.422
H  H3  1  0.25566824  0.81476172  0.00289558  1  0.364484  0.000237  0.912313  0.0  0.303044  0.334227  0.000247  0.997787  0.0
H  H4  1  0.74430738  0.17990650  0.99682399  1  0.364701  -0.000166  0.908899  0.0  0.303726  0.334284  8.1e-05  0.993846  0.0
H  H5  1  0.19375466  0.31226657  0.95723742  1  0.128954  8.5e-05  0.935478  0.0  0.13792  0.130294  1.9e-05  1.00413  0.0
H  H6  1  0.80597102  0.68532507  0.04361609  1  0.126434  -1e-06  0.935506  0.0  0.137047  0.129072  8.2e-05  1.003022  0.0
H  H7  1  0.70932034  0.39714928  0.51375025  1  0.121957  -5.9e-05  0.956449  0.0  0.115389  0.123099  -5e-06  1.025775  0.0
H  H8  1  0.29305341  0.60972642  0.49003003  1  0.121468  0.000513  0.956669  0.0  0.115675  0.122734  0.000665  1.026386  0.0
H  H9  1  0.43849163  0.13797418  0.34028497  1  0.118801  0.000171  0.93623  0.0  0.134076  0.119599  0.000294  1.008232  0.0
H  H10  1  0.56649015  0.86755682  0.66642242  1  0.119769  0.000294  0.938207  0.0  0.13492  0.119702  0.000247  1.011149  0.0
H  H11  1  0.45943563  0.58629390  0.11965592  1  0.120668  0.000262  0.961875  0.0  0.11351  0.121079  0.000383  1.034053  0.0
H  H12  1  0.53784808  0.41313120  0.87834638  1  0.12261  0.000229  0.960658  0.0  0.114251  0.122443  0.00032  1.03291  0.0
H  H13  1  0.16743373  0.53813110  0.92209955  1  0.068004  -0.001  0.966744  -0.002  0.094611  0.089957  -0.001035  1.030606  -0.002
H  H14  1  0.82896083  0.45459144  0.06871851  1  0.064752  0.001067  0.969782  0.002  0.092731  0.086225  0.001198  1.034562  0.002
H  H15  1  0.10706669  0.56716187  0.71697933  1  0.073924  -0.000118  0.946864  0.0  0.091232  0.091771  -0.000261  1.010579  0.0
H  H16  1  0.88758530  0.43154204  0.27690682  1  0.072518  1.6e-05  0.947055  0.0  0.089672  0.089837  0.000133  1.011589  0.0
H  H17  1  0.94290731  0.52249599  0.79038801  1  0.082885  0.000141  0.946228  0.0  0.097295  0.100187  0.000123  1.011711  0.0
H  H18  1  0.05382920  0.47453524  0.20580069  1  0.080909  2e-06  0.948805  0.0  0.095953  0.09837  5.8e-05  1.014621  0.0
C  C19  1  0.60498434  0.51229111  0.32905800  1  -0.008017  -0.000468  3.706605  -0.001  0.004252  0.001404  0.00079  3.932022  0.001
C  C20  1  0.39532813  0.49153907  0.67182496  1  -0.00727  0.001297  3.717559  0.003  0.004022  0.002835  -0.000802  3.943346  0.0
C  C21  1  0.31276832  0.34315169  0.08139961  1  0.035083  8e-06  3.553838  0.0  0.056281  -0.014305  0.000149  3.813284  0.0
C  C22  1  0.68737427  0.65661283  0.92010662  1  0.034484  -0.003348  3.556195  -0.004  0.054737  -0.016185  -0.003252  3.817872  -0.003
C  C23  1  0.59996857  0.38446724  0.39101125  1  -0.090769  0.00034  3.710554  0.001  -0.065785  -0.110572  0.000159  3.956158  0.0
C  C24  1  0.40208745  0.62072766  0.61201249  1  -0.092016  0.001844  3.715206  0.003  -0.069467  -0.112721  0.001573  3.962096  0.002
C  C25  1  0.45263707  0.24097300  0.29891134  1  0.045169  -0.000498  3.577464  0.0  0.05303  -0.006114  0.000307  3.838686  0.001
C  C26  1  0.55060512  0.76313653  0.70538832  1  0.040798  -0.002692  3.581753  -0.003  0.049241  -0.011452  -0.002899  3.845284  -0.004
C  C27  1  0.45949778  0.48845906  0.17023051  1  -0.099654  5.9e-05  3.709927  0.0  -0.06733  -0.117484  0.000329  3.955502  0.0
C  C28  1  0.53967029  0.51239427  0.82990936  1  -0.101458  0.000968  3.712319  0.002  -0.069349  -0.120399  0.000114  3.960093  0.001
C  C29  1  0.76041748  0.67289256  0.43932737  1  0.641738  0.000471  3.880551  0.001  0.217692  0.5768  0.000325  4.174216  0.001
C  C30  1  0.23980314  0.33220575  0.56072783  1  0.638634  -0.007054  3.892456  -0.011  0.217932  0.572088  -0.002194  4.188009  -0.005
C  C31  1  0.08389404  0.58759380  0.83456626  1  -0.00945  -0.000683  3.627591  0.0  -0.152984  -0.105965  -0.001364  3.883796  -0.001
C  C32  1  0.91275196  0.40846066  0.16030150  1  -0.007583  0.000195  3.633083  0.0  -0.152187  -0.103323  0.001139  3.888459  0.001
N  N33  1  0.31139911  0.22448317  0.14877698  1  0.27402  0.000479  3.630628  0.001  -0.1133  0.323584  0.000786  3.882349  0.002
N  N34  1  0.69099185  0.77684260  0.85477522  1  0.275477  0.000418  3.631578  0.001  -0.112299  0.324928  -0.000935  3.88281  -0.001
N  N35  1  0.19425921  0.94255232  0.70678292  1  -0.567028  -0.003342  2.799741  -0.006  -0.297756  -0.561307  -0.003045  3.129222  -0.003
N  N36  1  0.80260151  0.05868158  0.29372045  1  -0.56738  0.031765  2.849096  0.057  -0.3065  -0.564831  0.034139  3.187156  0.05
N  N37  1  0.34881034  0.03082940  0.79847007  1  0.420955  0.003574  4.188095  0.007  0.093276  0.448026  2.4e-05  4.467891  0.001
N  N38  1  0.64856440  0.96884222  0.20242174  1  0.424235  -0.01296  4.176381  -0.029  0.095973  0.452515  0.005905  4.457215  0.003
N  N39  1  0.49919693  0.11527849  0.88629713  1  -0.396228  -0.021016  2.473737  -0.031  -0.186096  -0.393127  -0.013299  2.717676  -0.019
N  N40  1  0.49839746  0.88406944  0.11428361  1  -0.384362  0.091483  2.472824  0.136  -0.180456  -0.386409  0.066859  2.719215  0.093
N  N41  1  0.79567470  0.12051557  0.66529145  1  0.419333  -0.002226  4.142329  -0.005  0.103664  0.450129  0.000689  4.412458  -0.001
N  N42  1  0.20545522  0.87285583  0.33039743  1  0.428411  -0.019262  4.107143  -0.043  0.112187  0.460717  0.006795  4.38391  0.001
N  N43  1  0.91920439  0.06800963  0.68584440  1  -0.592202  -0.000917  2.970959  -0.003  -0.331814  -0.581153  0.002965  3.32743  0.003
N  N44  1  0.08902432  0.93438071  0.31548554  1  -0.581788  0.05164  3.02531  0.078  -0.341046  -0.579892  0.05701  3.395995  0.074
N  N45  1  0.68140712  0.17674068  0.64876853  1  -0.337584  0.019475  2.365689  0.029  -0.159894  -0.334709  0.016643  2.582169  0.023
N  N46  1  0.31493350  0.81090033  0.34369443  1  -0.305592  0.133305  2.346802  0.2  -0.144134  -0.31514  0.099957  2.569131  0.141
O  O47  1  0.16438301  0.08963646  0.07294191  1  -0.540966  -0.011227  2.056126  -0.019  -0.22762  -0.491624  -0.008819  2.3631  -0.015
O  O48  1  0.83991931  0.90937698  0.93280161  1  -0.541769  0.003189  2.073249  0.005  -0.22823  -0.491114  0.003882  2.378293  0.006
O  O49  1  0.83533786  0.70559049  0.60651206  1  -0.614248  -0.040471  2.175214  -0.067  -0.304102  -0.545937  -0.034431  2.45055  -0.055
O  O50  1  0.16154261  0.30161987  0.39431805  1  -0.608798  0.037282  2.185763  0.065  -0.304537  -0.539399  0.034698  2.461368  0.057
O  O51  1  0.80258793  0.76107937  0.36209595  1  -0.589434  0.03119  2.084165  0.052  -0.293689  -0.524338  0.030829  2.338718  0.048
O  O52  1  0.19982357  0.24110541  0.63654293  1  -0.594873  0.028775  2.094082  0.048  -0.300181  -0.530569  0.029255  2.35153  0.046
O  O53  1  0.12377269  0.76140335  0.93330887  1  -0.518232  -0.024702  2.269734  -0.039  -0.399013  -0.445926  -0.026718  2.532554  -0.041
O  O54  1  0.87595140  0.23434139  0.06670353  1  -0.512814  0.024489  2.261391  0.038  -0.400755  -0.441264  0.026719  2.525049  0.04
