# generated using pymatgen
data_ZnH8C23Br2NO6
_symmetry_space_group_name_H-M   'P 1'
_cell_length_a   14.52625265
_cell_length_b   14.47173088
_cell_length_c   15.70495414
_cell_angle_alpha   80.31204328
_cell_angle_beta   89.75082176
_cell_angle_gamma   74.40978609
_symmetry_Int_Tables_number   1
_chemical_formula_structural   ZnH8C23Br2NO6
_chemical_formula_sum   'Zn2 H16 C46 Br4 N2 O12'
_cell_volume   3131.77137407
_cell_formula_units_Z   2
loop_
 _symmetry_equiv_pos_site_id
 _symmetry_equiv_pos_as_xyz
  1  'x, y, z'
loop_
 _atom_site_type_symbol
 _atom_site_label
 _atom_site_symmetry_multiplicity
 _atom_site_fract_x
 _atom_site_fract_y
 _atom_site_fract_z
 _atom_site_occupancy
 _atom_site_pbe_bader_charge
 _atom_site_pbe_bader_spin_density
 _atom_site_pbe_cm5_charge
 _atom_site_pbe_ddec_charge
 _atom_site_pbe_ddec_spin_density
 _atom_site_pbe_ddec_sum_bond_order
 _atom_site_pbe_magmom
Zn  Zn0  1  0.46965274  0.60137690  0.51762908  1  1.293657  0  0.679627  0.827358  0  2.38559  0
Zn  Zn1  1  0.53028689  0.40692222  0.48615528  1  1.295688  0  0.678624  0.824383  0  2.407211  0
H  H2  1  0.42107089  0.76569722  0.94197181  1  0.084246  0  0.081527  0.081683  0  1.081743  0
H  H3  1  0.68650052  0.25989530  0.05642780  1  0.118923  0  0.091121  0.0942  0  1.046546  0
H  H4  1  0.49512545  0.54143653  0.78155572  1  0.056568  0  0.103348  0.107281  0  1.032942  0
H  H5  1  0.56097558  0.46900882  0.22306474  1  0.066414  0  0.104915  0.110005  0  1.030222  0
H  H6  1  0.63785908  0.24764110  0.75617337  1  0.104558  0  0.110412  0.129262  0  1.002782  0
H  H7  1  0.41814724  0.76155078  0.24988800  1  0.122429  0  0.109098  0.129189  0  0.989453  0
H  H8  1  0.47156385  0.64321979  0.85065802  1  0.080275  0  0.096343  0.09446  0  1.035539  0
H  H9  1  0.63269800  0.38209563  0.14818563  1  0.052682  0  0.102963  0.102592  0  1.013501  0
H  H10  1  0.72663370  0.95369985  0.38244054  1  0.123765  0  0.109937  0.120613  0  1.009847  0
H  H11  1  0.38048511  0.00784687  0.71225670  1  0.121633  0  0.109711  0.119493  0  1.012383  0
H  H12  1  0.51456273  0.78163777  0.46126174  1  0.136332  0  0.132197  0.10352  0  1.004394  0
H  H13  1  0.45969363  0.23935018  0.51769428  1  0.12157  0  0.131457  0.10273  0  1.010998  0
H  H14  1  0.35640954  0.69115812  0.66154653  1  0.134136  0  0.130832  0.119638  0  0.969846  0
H  H15  1  0.67794704  0.30284231  0.37055076  1  0.109063  0  0.129365  0.11812  0  0.972518  0
H  H16  1  0.67895412  0.67892948  0.51731155  1  0.651062  0  0.305538  0.36727  0  0.948882  0
H  H17  1  0.52602960  0.24098022  0.66520541  1  0.633144  0  0.306744  0.368146  0  0.949246  0
C  C18  1  0.49596328  0.57807405  0.34015200  1  1.563349  0  0.221566  0.603239  0  4.14849  0
C  C19  1  0.53139803  0.42509354  0.66711380  1  1.532772  0  0.223071  0.60405  0  4.133721  0
C  C20  1  0.51976726  0.56891405  0.10091850  1  -0.040076  0  0.004224  0.048465  0  3.944042  0
C  C21  1  0.56278001  0.44925293  0.90098970  1  -0.030413  0  0.002491  0.047061  0  3.942976  0
C  C22  1  0.47084520  0.66707683  0.06273835  1  0.08357  0  -0.00734  0.03869  0  3.98271  0
C  C23  1  0.61748965  0.35278656  0.93846036  1  -0.00731  0  -0.00867  0.035588  0  3.984502  0
C  C24  1  0.55546076  0.49756585  0.04554185  1  -0.000582  0  -0.000477  0.036685  0  3.951099  0
C  C25  1  0.53445159  0.52290306  0.95530641  1  0.065938  0  0.000873  0.040141  0  3.948454  0
C  C26  1  0.48571759  0.62137876  0.92017457  1  -0.168643  0  -0.08777  -0.11666  0  4.001095  0
C  C27  1  0.61185556  0.40143342  0.07962625  1  -0.041213  0  -0.084487  -0.111918  0  3.99585  0
C  C28  1  0.45687436  0.69090827  0.97123451  1  -0.021248  0  -0.098569  -0.124151  0  4.022394  0
C  C29  1  0.64264625  0.33230798  0.02842632  1  -0.069791  0  -0.094816  -0.123428  0  4.015665  0
C  C30  1  0.67716712  0.15114319  0.38638281  1  -0.127339  0  -0.007687  0.022072  0  3.941861  0
C  C31  1  0.38171667  0.83134163  0.66600661  1  -0.116128  0  -0.006221  0.021004  0  3.946388  0
C  C32  1  0.64522897  0.24624059  0.39959950  1  0.559263  0  0.044575  0.030884  0  3.931189  0
C  C33  1  0.39010410  0.74711486  0.63284437  1  0.54452  0  0.040601  0.023611  0  3.936504  0
C  C34  1  0.52597994  0.20906867  0.48741576  1  0.584185  0  0.068646  0.07351  0  3.886755  0
C  C35  1  0.48332873  0.79585042  0.52247871  1  0.550131  0  0.06841  0.072097  0  3.889485  0
C  C36  1  0.56128684  0.10863373  0.48716662  1  0.004537  0  0.007837  0.004573  0  3.94494  0
C  C37  1  0.48701738  0.87876560  0.55659103  1  0.021757  0  0.009725  0.008799  0  3.943381  0
C  C38  1  0.63636895  0.07840045  0.43046045  1  0.063705  0  0.008063  0.065492  0  3.989678  0
C  C39  1  0.42898625  0.90143496  0.62785211  1  -0.005897  0  0.008066  0.064918  0  3.99446  0
C  C40  1  0.68609417  0.50185845  0.51089853  1  1.673071  0  0.22372  0.653422  0  4.252138  0
C  C41  1  0.32319039  0.49855764  0.50368599  1  1.658055  0  0.222449  0.652317  0  4.256142  0
C  C42  1  0.52188395  0.03763272  0.53934753  1  0.004408  0  0.01785  0.034201  0  3.905626  0
C  C43  1  0.54314746  0.94260703  0.51908951  1  0.036497  0  0.018231  0.032749  0  3.907518  0
C  C44  1  0.62118670  0.91288478  0.46375851  1  -0.017826  0  0.007078  -0.03722  0  3.896044  0
C  C45  1  0.46444675  0.05838033  0.61260890  1  -0.019461  0  0.008728  -0.034582  0  3.886816  0
C  C46  1  0.66654161  0.97872213  0.42230216  1  -0.04528  0  -0.06915  -0.12209  0  3.917001  0
C  C47  1  0.42173987  0.99118790  0.65601385  1  0.053247  0  -0.070272  -0.12561  0  3.91919  0
C  C48  1  0.78637089  0.49697298  0.51161326  1  0.231898  0  -0.014223  -0.152194  0  3.857934  0
C  C49  1  0.22559524  0.49312555  0.50498547  1  0.158214  0  -0.002323  -0.117097  0  3.831241  0
C  C50  1  0.87133535  0.49506617  0.51074749  1  -0.384905  0  -0.011144  0.032811  0  4.261986  0
C  C51  1  0.14141869  0.49218594  0.50626667  1  -0.245303  0  -0.012462  0.016291  0  4.260988  0
C  C52  1  0.96401252  0.49323863  0.50946017  1  0.028604  0  -0.003487  -0.010848  0  4.195672  0
C  C53  1  0.04921698  0.49213169  0.50795606  1  0.007133  0  0.00205  0.005168  0  4.194379  0
C  C54  1  0.49109190  0.61122711  0.24442895  1  0.010508  0  -0.015514  -0.014951  0  3.984118  0
C  C55  1  0.56122702  0.39817125  0.76081461  1  0.003197  0  -0.019081  -0.02223  0  4.000925  0
C  C56  1  0.43673749  0.73511556  0.11902885  1  -0.178399  0  -0.011884  0.072809  0  3.930749  0
C  C57  1  0.64348007  0.28238652  0.88316346  1  -0.136228  0  -0.009195  0.077252  0  3.931663  0
C  C58  1  0.44610378  0.70895121  0.20776192  1  0.050545  0  -0.086061  -0.142933  0  3.966581  0
C  C59  1  0.61594331  0.30322881  0.79657485  1  0.085568  0  -0.095102  -0.160146  0  3.979581  0
C  C60  1  0.52800764  0.54349799  0.19164038  1  0.039068  0  -0.07981  -0.134962  0  3.941821  0
C  C61  1  0.53657923  0.46932902  0.81228336  1  0.045884  0  -0.079169  -0.129383  0  3.937156  0
C  C62  1  0.66184819  0.80846235  0.45196300  1  1.571168  0  0.226453  0.568316  0  4.153285  0
C  C63  1  0.45171028  0.15108362  0.64895679  1  1.55888  0  0.228574  0.573018  0  4.147266  0
Br  Br64  1  0.37305624  0.86754391  0.07204982  1  -0.082137  0  0.004174  -0.090281  0  1.33175  0
Br  Br65  1  0.71893917  0.15353368  0.92802637  1  -0.075114  0  0.011863  -0.083019  0  1.329952  0
Br  Br66  1  0.77621354  0.12082245  0.30843269  1  -0.021658  0  0.058517  -0.029458  0  1.340494  0
Br  Br67  1  0.30568902  0.85092394  0.76317381  1  -0.018703  0  0.076273  -0.012842  0  1.395043  0
N  N68  1  0.56867883  0.27410090  0.44825399  1  -1.250987  0  -0.325045  -0.184771  0  3.553261  0
N  N69  1  0.43866220  0.73180858  0.56014517  1  -1.252274  0  -0.323971  -0.185417  0  3.550449  0
O  O70  1  0.46342720  0.64154003  0.38825563  1  -1.153596  0  -0.314131  -0.533177  0  2.304744  0
O  O71  1  0.53181681  0.35744553  0.62359909  1  -1.171208  0  -0.300239  -0.543991  0  2.311558  0
O  O72  1  0.53129866  0.48729801  0.36710256  1  -1.181835  0  -0.31648  -0.554365  0  2.364757  0
O  O73  1  0.50852639  0.51545137  0.63550818  1  -1.171608  0  -0.311062  -0.549099  0  2.381223  0
O  O74  1  0.62777782  0.58595468  0.51026804  1  -1.145672  0  -0.287946  -0.538183  0  2.26598  0
O  O75  1  0.38555537  0.42656882  0.48234508  1  -1.14474  0  -0.304486  -0.530629  0  2.277682  0
O  O76  1  0.66439845  0.42247567  0.51111973  1  -1.130694  0  -0.302449  -0.520592  0  2.2735  0
O  O77  1  0.33740968  0.57543838  0.52359176  1  -1.130146  0  -0.306176  -0.52637  0  2.254937  0
O  O78  1  0.67679578  0.78585624  0.38059346  1  -1.106815  0  -0.290073  -0.464377  0  2.026346  0
O  O79  1  0.67877826  0.74615207  0.52754160  1  -1.157022  0  -0.341768  -0.492604  0  2.270984  0
O  O80  1  0.37299343  0.20203997  0.66223452  1  -1.104819  0  -0.288203  -0.460796  0  2.024784  0
O  O81  1  0.53563964  0.16935996  0.66412471  1  -1.140751  0  -0.34092  -0.498803  0  2.290538  0
