# generated using pymatgen
data_GdH18C30(N2O5)4
_symmetry_space_group_name_H-M   'P 1'
_cell_length_a   14.59747071
_cell_length_b   19.26296715
_cell_length_c   19.26299204
_cell_angle_alpha   101.35634526
_cell_angle_beta   93.32608554
_cell_angle_gamma   93.32614737
_symmetry_Int_Tables_number   1
_chemical_formula_structural   GdH18C30(N2O5)4
_chemical_formula_sum   'Gd4 H72 C120 N32 O80'
_cell_volume   5288.21751592
_cell_formula_units_Z   4
loop_
 _symmetry_equiv_pos_site_id
 _symmetry_equiv_pos_as_xyz
  1  'x, y, z'
loop_
 _atom_site_type_symbol
 _atom_site_label
 _atom_site_symmetry_multiplicity
 _atom_site_fract_x
 _atom_site_fract_y
 _atom_site_fract_z
 _atom_site_occupancy
 _atom_site_pbe_bader_charge
 _atom_site_pbe_bader_spin_density
 _atom_site_pbe_cm5_charge
 _atom_site_pbe_ddec_charge
 _atom_site_pbe_ddec_spin_density
 _atom_site_pbe_ddec_sum_bond_order
 _atom_site_pbe_magmom
Gd  Gd0  1  0.36651898  0.45245727  0.98055564  1  2.181854  0  1.48329  1.99005  0  2.299751  0
Gd  Gd1  1  0.13348026  0.01944300  0.54754222  1  2.181877  0  1.483318  1.990175  0  2.299541  0
Gd  Gd2  1  0.63348312  0.54754355  0.01944336  1  2.181883  0  1.483286  1.990099  0  2.299663  0
Gd  Gd3  1  0.86652046  0.98055781  0.45245621  1  2.181911  0  1.483293  1.990131  0  2.299668  0
H  H4  1  0.43727869  0.30630033  0.12393433  1  0.150565  0  0.128344  0.142184  0  0.993064  0
H  H5  1  0.70507427  0.41575846  0.16803990  1  0.126889  0  0.116486  0.115291  0  1.050006  0
H  H6  1  0.75458862  0.05096570  0.23289395  1  0.202567  0  0.134415  0.151452  0  0.965918  0
H  H7  1  0.67662094  0.17572605  0.42817076  1  0.1394  0  0.122153  0.139081  0  1.001462  0
H  H8  1  0.69383218  0.43976092  0.86188557  1  0.207608  0  0.13314  0.151095  0  1.004988  0
H  H9  1  0.50853555  0.25338076  0.84578091  1  0.181411  0  0.136201  0.153585  0  0.965532  0
H  H10  1  0.25270405  0.47874417  0.81460127  1  0.098072  0  0.127484  0.050407  0  1.000696  0
H  H11  1  0.10994047  0.34847367  0.87662256  1  0.109469  0  0.12217  0.153381  0  0.98231  0
H  H12  1  0.05266458  0.32180546  0.78980342  1  0.055677  0  0.104448  0.118142  0  0.991229  0
H  H13  1  0.00871970  0.39008915  0.85319404  1  0.04767  0  0.099368  0.110647  0  1.01962  0
H  H14  1  0.13957489  0.49235683  0.74092475  1  0.081391  0  0.108979  0.125843  0  1.00879  0
H  H15  1  0.02625186  0.47382681  0.76524091  1  0.121785  0  0.108711  0.134319  0  0.999426  0
H  H16  1  0.07719936  0.40919659  0.70278264  1  0.058528  0  0.108861  0.124849  0  0.969938  0
H  H17  1  0.14163172  0.47812168  0.99772018  1  0.093216  0  0.124094  0.090954  0  1.006415  0
H  H18  1  0.01252113  0.55901865  0.98859156  1  0.093234  0  0.111144  0.114694  0  1.021018  0
H  H19  1  0.21826864  0.72380125  0.97301403  1  0.132714  0  0.117117  0.131298  0  0.981761  0
H  H20  1  0.33761638  0.63719755  0.98292758  1  0.06196  0  0.119467  0.083843  0  1.002375  0
H  H21  1  0.05552296  0.75096420  0.97027167  1  0.077472  0  0.109027  0.048996  0  0.965363  0
H  H22  1  0.06272174  0.87606618  0.69369978  1  0.150731  0  0.128352  0.142209  0  0.993056  0
H  H23  1  0.79492592  0.83196098  0.58424184  1  0.126948  0  0.116495  0.1153  0  1.049995  0
H  H24  1  0.74540939  0.76710749  0.94903485  1  0.202438  0  0.134416  0.151464  0  0.965922  0
H  H25  1  0.82337836  0.57182934  0.82427526  1  0.139341  0  0.122167  0.139088  0  1.001426  0
H  H26  1  0.80616570  0.13811567  0.56023819  1  0.20753  0  0.13312  0.151073  0  1.004991  0
H  H27  1  0.99146302  0.15421951  0.74661742  1  0.181495  0  0.136158  0.153571  0  0.965532  0
H  H28  1  0.24729610  0.18539792  0.52125504  1  0.098076  0  0.127437  0.050372  0  1.000677  0
H  H29  1  0.39005981  0.12337628  0.65152518  1  0.109541  0  0.122162  0.153377  0  0.982295  0
H  H30  1  0.44733707  0.21019667  0.67819214  1  0.055721  0  0.104476  0.118175  0  0.991229  0
H  H31  1  0.49128099  0.14680603  0.60990850  1  0.047617  0  0.099331  0.110605  0  1.019631  0
H  H32  1  0.36042540  0.25907462  0.50764166  1  0.08136  0  0.10898  0.125849  0  1.008771  0
H  H33  1  0.47374848  0.23475798  0.52617005  1  0.121733  0  0.108741  0.134364  0  0.999327  0
H  H34  1  0.42280165  0.29721581  0.59079994  1  0.058574  0  0.108876  0.124909  0  0.969945  0
H  H35  1  0.35836928  0.00227960  0.52187768  1  0.093242  0  0.124092  0.09096  0  1.006393  0
H  H36  1  0.48748008  0.01140694  0.44098017  1  0.093219  0  0.111138  0.114662  0  1.021033  0
H  H37  1  0.28173103  0.02698659  0.27619821  1  0.132717  0  0.117163  0.131379  0  0.981698  0
H  H38  1  0.16238285  0.01707368  0.36280291  1  0.061948  0  0.119481  0.083874  0  1.002414  0
H  H39  1  0.44448071  0.02972812  0.24903474  1  0.077902  0  0.109016  0.048975  0  0.965365  0
H  H40  1  0.56272140  0.69370101  0.87606625  1  0.150728  0  0.128344  0.142204  0  0.99308  0
H  H41  1  0.29492764  0.58423972  0.83196273  1  0.127127  0  0.116487  0.115277  0  1.050003  0
H  H42  1  0.24541078  0.94903564  0.76710661  1  0.202464  0  0.134374  0.151397  0  0.965854  0
H  H43  1  0.32337764  0.82427369  0.57182737  1  0.139338  0  0.122159  0.139083  0  1.001407  0
H  H44  1  0.30616601  0.56023404  0.13811421  1  0.207463  0  0.133091  0.151006  0  1.005012  0
H  H45  1  0.49146203  0.74661526  0.15421645  1  0.18154  0  0.13618  0.153574  0  0.965535  0
H  H46  1  0.74729325  0.52125663  0.18539909  1  0.09804  0  0.127448  0.05037  0  1.000712  0
H  H47  1  0.89005876  0.65152555  0.12337757  1  0.109485  0  0.122158  0.153376  0  0.982312  0
H  H48  1  0.94733470  0.67819429  0.21019734  1  0.05568  0  0.104446  0.118129  0  0.991238  0
H  H49  1  0.99127945  0.60990901  0.14680692  1  0.047676  0  0.099368  0.110644  0  1.019603  0
H  H50  1  0.86042086  0.50764183  0.25907461  1  0.081323  0  0.108975  0.125854  0  1.008789  0
H  H51  1  0.97374444  0.52617026  0.23475712  1  0.121772  0  0.108737  0.134361  0  0.999393  0
H  H52  1  0.92280115  0.59080157  0.29721629  1  0.058558  0  0.108887  0.124872  0  0.969925  0
H  H53  1  0.85836952  0.52187702  0.00227837  1  0.093238  0  0.124087  0.090948  0  1.006437  0
H  H54  1  0.98748010  0.44098004  0.01140647  1  0.093232  0  0.111143  0.114666  0  1.021037  0
H  H55  1  0.78172994  0.27619849  0.02698514  1  0.132723  0  0.11715  0.131331  0  0.981697  0
H  H56  1  0.66238302  0.36280379  0.01707194  1  0.061958  0  0.119482  0.083843  0  1.002372  0
H  H57  1  0.94447613  0.24903342  0.02972658  1  0.077821  0  0.109038  0.049095  0  0.96543  0
H  H58  1  0.93728105  0.12393465  0.30630029  1  0.150614  0  0.12838  0.142292  0  0.993015  0
H  H59  1  0.20507565  0.16804144  0.41576057  1  0.126889  0  0.116453  0.115246  0  1.050028  0
H  H60  1  0.25459084  0.23289544  0.05096605  1  0.202517  0  0.134382  0.15138  0  0.965898  0
H  H61  1  0.17661700  0.42817304  0.17572326  1  0.139246  0  0.122176  0.139126  0  1.001482  0
H  H62  1  0.19383440  0.86188567  0.43976291  1  0.207557  0  0.133118  0.151042  0  1.00503  0
H  H63  1  0.00853981  0.84578184  0.25338223  1  0.181526  0  0.136173  0.153544  0  0.965526  0
H  H64  1  0.75270781  0.81459973  0.47874601  1  0.097955  0  0.127431  0.050313  0  1.000757  0
H  H65  1  0.60994342  0.87662137  0.34847688  1  0.10951  0  0.122135  0.153357  0  0.982342  0
H  H66  1  0.55266765  0.78980257  0.32180718  1  0.055721  0  0.104457  0.118153  0  0.991231  0
H  H67  1  0.50872155  0.85319161  0.39009197  1  0.047684  0  0.099382  0.110686  0  1.019613  0
H  H68  1  0.63957993  0.74092357  0.49235903  1  0.081275  0  0.108975  0.125837  0  1.008761  0
H  H69  1  0.52625542  0.76523967  0.47382996  1  0.121817  0  0.108748  0.134384  0  0.999359  0
H  H70  1  0.57720156  0.70278183  0.40919901  1  0.05882  0  0.108878  0.124852  0  0.969924  0
H  H71  1  0.64163129  0.99771910  0.47812500  1  0.093291  0  0.124071  0.090917  0  1.006509  0
H  H72  1  0.51252127  0.98859282  0.55902275  1  0.093274  0  0.111145  0.114695  0  1.020944  0
H  H73  1  0.71827049  0.97301530  0.72380357  1  0.132673  0  0.117135  0.131324  0  0.981729  0
H  H74  1  0.83761931  0.98292768  0.63719880  1  0.061886  0  0.119463  0.083818  0  1.002422  0
H  H75  1  0.55552648  0.97027592  0.75096821  1  0.077895  0  0.10905  0.049036  0  0.965542  0
C  C76  1  0.53890654  0.42253309  0.10034495  1  1.648358  0  0.231224  0.634732  0  4.179778  0
C  C77  1  0.56656252  0.36921320  0.14392088  1  0.044199  0  -0.004383  -0.012383  0  3.927645  0
C  C78  1  0.50633878  0.31221650  0.14976970  1  0.02355  0  -0.045392  -0.077347  0  3.86215  0
C  C79  1  0.53510240  0.26240867  0.18829996  1  0.219184  0  0.085547  0.031146  0  3.868708  0
C  C80  1  0.62443153  0.26567119  0.22123490  1  0.135411  0  0.033645  0.039403  0  3.94319  0
C  C81  1  0.68442353  0.32246312  0.21121476  1  0.241587  0  0.083872  0.034477  0  3.880719  0
C  C82  1  0.65607778  0.37339231  0.17456967  1  0.011702  0  -0.058032  -0.104072  0  3.931631  0
C  C83  1  0.65568927  0.21065740  0.26019018  1  0.083409  0  0.02554  0.019311  0  3.963368  0
C  C84  1  0.69321340  0.14858506  0.22553182  1  0.246438  0  0.082127  0.026151  0  3.882331  0
C  C85  1  0.72593957  0.09823621  0.26171726  1  -0.004813  0  -0.042338  -0.08225  0  3.874568  0
C  C86  1  0.72320284  0.10920913  0.33515367  1  0.085977  0  0.003584  0.015269  0  3.931548  0
C  C87  1  0.68237292  0.16816816  0.37113944  1  0.013585  0  -0.050783  -0.090943  0  3.871284  0
C  C88  1  0.64848815  0.21696209  0.33382337  1  0.274779  0  0.083931  0.033427  0  3.894318  0
C  C89  1  0.76307331  0.05759248  0.37499924  1  1.576739  0  0.190713  0.570024  0  4.234252  0
C  C90  1  0.52684992  0.39242453  0.90357614  1  1.614884  0  0.226737  0.623077  0  4.192078  0
C  C91  1  0.59281004  0.35133987  0.85780108  1  0.043408  0  0.005056  0.004401  0  3.919893  0
C  C92  1  0.67522873  0.38332406  0.84197164  1  -0.052565  0  -0.04313  -0.092507  0  3.851317  0
C  C93  1  0.73412391  0.34226959  0.79955104  1  0.236965  0  0.086468  0.034737  0  3.880968  0
C  C94  1  0.71748800  0.26856860  0.77505834  1  0.079661  0  0.023511  0.014746  0  3.984012  0
C  C95  1  0.63540477  0.23855544  0.79495768  1  0.274988  0  0.084457  0.030029  0  3.913531  0
C  C96  1  0.57234842  0.27872784  0.83318072  1  -1.4e-05  0  -0.046038  -0.098489  0  3.883798  0
C  C97  1  0.21409698  0.43953381  0.83850573  1  1.374619  0  0.191131  0.32638  0  4.090841  0
C  C98  1  0.07178297  0.36686659  0.83391799  1  0.281592  0  -0.133842  -0.276754  0  3.888734  0
C  C99  1  0.09113568  0.45048926  0.75110406  1  0.24183  0  -0.1267  -0.279612  0  3.898576  0
C  C100  1  0.15503584  0.53276366  0.99147167  1  0.492611  0  0.052576  0.099088  0  3.97092  0
C  C101  1  0.08427046  0.57720490  0.98688601  1  -0.038565  0  -0.073133  -0.140252  0  3.91954  0
C  C102  1  0.10595254  0.64707648  0.97992794  1  0.029319  0  -0.002317  0.055352  0  3.990504  0
C  C103  1  0.19835443  0.66960346  0.97795975  1  -0.05668  0  -0.068508  -0.137182  0  3.914965  0
C  C104  1  0.26476822  0.62139281  0.98326335  1  0.507498  0  0.050384  0.101574  0  3.969125  0
C  C105  1  0.03210288  0.69672072  0.97655906  1  0.975973  0  0.109362  0.275561  0  3.940366  0
C  C106  1  0.96109180  0.89965481  0.57746689  1  1.648364  0  0.231217  0.634675  0  4.179753  0
C  C107  1  0.93343725  0.85607828  0.63078755  1  0.044258  0  -0.004353  -0.012223  0  3.92747  0
C  C108  1  0.99366137  0.85023076  0.68778527  1  0.02327  0  -0.045448  -0.077515  0  3.86215  0
C  C109  1  0.96489770  0.81170090  0.73759323  1  0.219296  0  0.085653  0.031267  0  3.868628  0
C  C110  1  0.87556813  0.77876594  0.73432990  1  0.135507  0  0.03365  0.03941  0  3.943253  0
C  C111  1  0.81557496  0.78878426  0.67753774  1  0.24145  0  0.083881  0.034547  0  3.880747  0
C  C112  1  0.84392078  0.82542890  0.62660810  1  0.01151  0  -0.058034  -0.104122  0  3.93164  0
C  C113  1  0.84431257  0.73981110  0.78934437  1  0.083445  0  0.025443  0.019237  0  3.963506  0
C  C114  1  0.80678533  0.77446760  0.85141480  1  0.246601  0  0.082162  0.026094  0  3.88249  0
C  C115  1  0.77405645  0.73828404  0.90176366  1  -0.004749  0  -0.042352  -0.082242  0  3.874573  0
C  C116  1  0.77679652  0.66484725  0.89079160  1  0.085968  0  0.003544  0.015256  0  3.931447  0
C  C117  1  0.81762562  0.62886125  0.83183230  1  0.013652  0  -0.050746  -0.0909  0  3.871134  0
C  C118  1  0.85151257  0.66617806  0.78303862  1  0.274842  0  0.083927  0.033398  0  3.894418  0
C  C119  1  0.73692844  0.62500192  0.94240789  1  1.576742  0  0.190734  0.570007  0  4.234189  0
C  C120  1  0.97314725  0.09642467  0.60757298  1  1.614895  0  0.226609  0.622831  0  4.192091  0
C  C121  1  0.90718673  0.14219844  0.64865804  1  0.043539  0  0.005046  0.004526  0  3.919832  0
C  C122  1  0.82477189  0.15802867  0.61667495  1  -0.05251  0  -0.043151  -0.092521  0  3.851164  0
C  C123  1  0.76587357  0.20044928  0.65772990  1  0.236961  0  0.086491  0.034739  0  3.880882  0
C  C124  1  0.78251278  0.22494060  0.73143106  1  0.111316  0  0.023436  0.01462  0  3.984254  0
C  C125  1  0.86459421  0.20504059  0.76144366  1  0.275056  0  0.084468  0.030124  0  3.913871  0
C  C126  1  0.92764979  0.16681862  0.72126820  1  -0.000199  0  -0.045903  -0.098493  0  3.883882  0
C  C127  1  0.28590250  0.16149229  0.56046570  1  1.374634  0  0.191163  0.326445  0  4.090899  0
C  C128  1  0.42821849  0.16608110  0.63313163  1  0.281549  0  -0.133853  -0.276741  0  3.888718  0
C  C129  1  0.40886436  0.24889584  0.54950899  1  0.241865  0  -0.126783  -0.279727  0  3.898542  0
C  C130  1  0.34496466  0.00852876  0.46723619  1  0.492616  0  0.052599  0.099064  0  3.970918  0
C  C131  1  0.41573018  0.01311339  0.42279450  1  -0.038536  0  -0.073129  -0.140168  0  3.919446  0
C  C132  1  0.39404738  0.02007232  0.35292247  1  0.029433  0  -0.002328  0.055323  0  3.990476  0
C  C133  1  0.30164500  0.02204132  0.33039649  1  -0.056231  0  -0.068542  -0.137266  0  3.915002  0
C  C134  1  0.23523137  0.01673829  0.37860723  1  0.50706  0  0.050354  0.101509  0  3.969209  0
C  C135  1  0.46789530  0.02344170  0.30327961  1  0.975488  0  0.109368  0.275618  0  3.940364  0
C  C136  1  0.46109360  0.57746879  0.89965574  1  1.648351  0  0.231123  0.634658  0  4.179881  0
C  C137  1  0.43343955  0.63078709  0.85607958  1  0.044172  0  -0.004381  -0.012288  0  3.927559  0
C  C138  1  0.49366131  0.68778484  0.85023088  1  0.023257  0  -0.045477  -0.077529  0  3.862282  0
C  C139  1  0.46489774  0.73759321  0.81170021  1  0.219279  0  0.085673  0.031206  0  3.868659  0
C  C140  1  0.37556774  0.73432856  0.77876430  1  0.13536  0  0.033656  0.039514  0  3.943351  0
C  C141  1  0.31557780  0.67753663  0.78878505  1  0.241604  0  0.083836  0.034449  0  3.880808  0
C  C142  1  0.34392360  0.62660798  0.82543076  1  0.011517  0  -0.058023  -0.104089  0  3.931545  0
C  C143  1  0.34430846  0.78934022  0.73980958  1  0.083411  0  0.025544  0.019192  0  3.963665  0
C  C144  1  0.30678372  0.85141361  0.77446656  1  0.246459  0  0.082113  0.026092  0  3.88252  0
C  C145  1  0.27405832  0.90176353  0.73828136  1  -0.004677  0  -0.042279  -0.082144  0  3.874407  0
C  C146  1  0.27679642  0.89079062  0.66484449  1  0.08613  0  0.003562  0.015303  0  3.931386  0
C  C147  1  0.31762553  0.83182999  0.62885993  1  0.013548  0  -0.050763  -0.090938  0  3.871116  0
C  C148  1  0.35150971  0.78303712  0.66617671  1  0.274615  0  0.083877  0.033451  0  3.894521  0
C  C149  1  0.23692802  0.94240728  0.62500057  1  1.576489  0  0.190825  0.570077  0  4.234087  0
C  C150  1  0.47314707  0.60757255  0.09642244  1  1.614902  0  0.22666  0.622868  0  4.192204  0
C  C151  1  0.40718610  0.64865509  0.14219861  1  0.04377  0  0.004988  0.004418  0  3.919912  0
C  C152  1  0.32476955  0.61667197  0.15802887  1  -0.052697  0  -0.043144  -0.092424  0  3.851189  0
C  C153  1  0.26587304  0.65772697  0.20044952  1  0.2373  0  0.086449  0.034607  0  3.880988  0
C  C154  1  0.28251316  0.73142904  0.22494103  1  0.110984  0  0.023509  0.014737  0  3.984256  0
C  C155  1  0.36459479  0.76143954  0.20504059  1  0.274993  0  0.084407  0.030106  0  3.91375  0
C  C156  1  0.42765032  0.72126554  0.16681772  1  -0.000317  0  -0.045883  -0.098476  0  3.883859  0
C  C157  1  0.78590097  0.56046646  0.16149456  1  1.374599  0  0.191269  0.326636  0  4.090812  0
C  C158  1  0.92821631  0.63313316  0.16608225  1  0.281615  0  -0.133832  -0.276698  0  3.888662  0
C  C159  1  0.90886145  0.54950942  0.24889588  1  0.241909  0  -0.126744  -0.279654  0  3.898602  0
C  C160  1  0.84496480  0.46723609  0.00852759  1  0.492608  0  0.052568  0.09909  0  3.970864  0
C  C161  1  0.91573012  0.42279432  0.01311158  1  -0.038557  0  -0.073116  -0.14023  0  3.919423  0
C  C162  1  0.89404736  0.35292274  0.02007014  1  0.029341  0  -0.00231  0.055473  0  3.99038  0
C  C163  1  0.80164556  0.33039682  0.02203854  1  -0.056634  0  -0.068509  -0.137208  0  3.91483  0
C  C164  1  0.73523109  0.37860746  0.01673543  1  0.507528  0  0.050349  0.101562  0  3.969149  0
C  C165  1  0.96789132  0.30327582  0.02344035  1  0.975351  0  0.109263  0.275267  0  3.940276  0
C  C166  1  0.03890755  0.10034600  0.42253200  1  1.64836  0  0.23125  0.634689  0  4.179688  0
C  C167  1  0.06656358  0.14392360  0.36921316  1  0.044252  0  -0.004393  -0.012312  0  3.927638  0
C  C168  1  0.00634023  0.14977219  0.31221620  1  0.023645  0  -0.04552  -0.077624  0  3.86235  0
C  C169  1  0.03510395  0.18830257  0.26240835  1  0.218947  0  0.085681  0.031189  0  3.868652  0
C  C170  1  0.12443292  0.22123859  0.26567134  1  0.134907  0  0.033675  0.039557  0  3.94318  0
C  C171  1  0.18442403  0.21122026  0.32246446  1  0.241783  0  0.08384  0.03436  0  3.880804  0
C  C172  1  0.15607941  0.17457350  0.37339321  1  0.011518  0  -0.058003  -0.103984  0  3.931698  0
C  C173  1  0.15569037  0.26019132  0.21065706  1  0.08386  0  0.025502  0.01922  0  3.963295  0
C  C174  1  0.19321686  0.22553429  0.14858493  1  0.246595  0  0.082098  0.02611  0  3.882445  0
C  C175  1  0.22594119  0.26172100  0.09823599  1  -0.00487  0  -0.042295  -0.082178  0  3.87458  0
C  C176  1  0.22320108  0.33515726  0.10920795  1  0.086225  0  0.003615  0.015391  0  3.93154  0
C  C177  1  0.18237185  0.37114167  0.16816745  1  0.013444  0  -0.050861  -0.091088  0  3.871347  0
C  C178  1  0.14848485  0.33382432  0.21695946  1  0.274749  0  0.08398  0.03354  0  3.894125  0
C  C179  1  0.26307104  0.37500048  0.05759184  1  1.576549  0  0.190771  0.569994  0  4.234136  0
C  C180  1  0.02685416  0.90357614  0.39242495  1  1.61491  0  0.226624  0.622819  0  4.192271  0
C  C181  1  0.09281519  0.85780026  0.35134105  1  0.043532  0  0.005044  0.00457  0  3.9198  0
C  C182  1  0.17523009  0.84197056  0.38332581  1  -0.052527  0  -0.043178  -0.092563  0  3.8511  0
C  C183  1  0.23412837  0.79954942  0.34227076  1  0.236644  0  0.086503  0.034745  0  3.880837  0
C  C184  1  0.21748906  0.77505704  0.26856886  1  0.080013  0  0.023506  0.014733  0  3.984124  0
C  C185  1  0.13540765  0.79495705  0.23855730  1  0.274948  0  0.08439  0.029997  0  3.913749  0
C  C186  1  0.07235219  0.83318061  0.27873152  1  -0.000174  0  -0.045907  -0.098417  0  3.883799  0
C  C187  1  0.71410269  0.83850430  0.43953467  1  1.374781  0  0.191234  0.32664  0  4.090802  0
C  C188  1  0.57178348  0.83391813  0.36686861  1  0.281601  0  -0.133902  -0.276841  0  3.888653  0
C  C189  1  0.59113900  0.75110340  0.45049183  1  0.241603  0  -0.12677  -0.279675  0  3.898502  0
C  C190  1  0.65503668  0.99147100  0.53276569  1  0.492643  0  0.052562  0.09905  0  3.971249  0
C  C191  1  0.58427198  0.98688797  0.57720824  1  -0.038525  0  -0.073163  -0.140267  0  3.919481  0
C  C192  1  0.60595492  0.97993063  0.64708007  1  0.029668  0  -0.002241  0.055487  0  3.990379  0
C  C193  1  0.69835780  0.97795951  0.66960410  1  -0.056831  0  -0.068561  -0.137272  0  3.914985  0
C  C194  1  0.76477143  0.98326254  0.62139336  1  0.50762  0  0.050361  0.101519  0  3.969357  0
C  C195  1  0.53210766  0.97656072  0.69672597  1  0.97529  0  0.109219  0.275319  0  3.940644  0
N  N196  1  0.46703231  0.20391649  0.19227299  1  0.345974  0  0.061784  0.521914  0  4.192253  0
N  N197  1  0.78208945  0.32913580  0.23737475  1  0.388675  0  0.062326  0.523991  0  4.174416  0
N  N198  1  0.70075172  0.13427060  0.14787362  1  0.40376  0  0.058608  0.518597  0  4.208825  0
N  N199  1  0.60391418  0.27697637  0.37458605  1  0.403663  0  0.059981  0.520797  0  4.19821  0
N  N200  1  0.81864482  0.37906791  0.78211254  1  0.379292  0  0.062971  0.515738  0  4.184752  0
N  N201  1  0.61419552  0.16117581  0.77751913  1  0.385204  0  0.060813  0.512249  0  4.189545  0
N  N202  1  0.12929623  0.42002405  0.80904934  1  -1.204509  0  -0.272063  0.040448  0  3.713501  0
N  N203  1  0.24429251  0.55396517  0.98921903  1  -1.234705  0  -0.345776  -0.318585  0  3.472819  0
N  N204  1  0.03296794  0.80772874  0.79608630  1  0.345949  0  0.061734  0.521945  0  4.192379  0
N  N205  1  0.71790886  0.76262307  0.67086480  1  0.38853  0  0.062251  0.523848  0  4.174415  0
N  N206  1  0.79924411  0.85212633  0.86572837  1  0.403771  0  0.058731  0.518699  0  4.20875  0
N  N207  1  0.89608557  0.62541604  0.72302547  1  0.403632  0  0.060038  0.520911  0  4.198047  0
N  N208  1  0.68135217  0.21788719  0.62093281  1  0.379243  0  0.062942  0.51571  0  4.184901  0
N  N209  1  0.88580284  0.22248045  0.83882271  1  0.385775  0  0.060784  0.512135  0  4.189532  0
N  N210  1  0.37070370  0.19094920  0.57997408  1  -1.204472  0  -0.271974  0.040444  0  3.71356  0
N  N211  1  0.25570813  0.01078232  0.44603458  1  -1.234853  0  -0.345772  -0.318557  0  3.472816  0
N  N212  1  0.53296798  0.79608698  0.80773010  1  0.346114  0  0.061786  0.522015  0  4.192319  0
N  N213  1  0.21791112  0.67086290  0.76262637  1  0.388647  0  0.062216  0.523815  0  4.174326  0
N  N214  1  0.29924476  0.86572860  0.85212536  1  0.404371  0  0.058585  0.518602  0  4.208862  0
N  N215  1  0.39608307  0.72302390  0.62541369  1  0.403394  0  0.059862  0.520639  0  4.198277  0
N  N216  1  0.18135441  0.62093131  0.21788811  1  0.379008  0  0.062982  0.515864  0  4.184893  0
N  N217  1  0.38580133  0.83881967  0.22247810  1  0.385715  0  0.060688  0.512079  0  4.189631  0
N  N218  1  0.87070163  0.57997516  0.19095073  1  -1.204506  0  -0.272062  0.040339  0  3.713655  0
N  N219  1  0.75570680  0.44603510  0.01078027  1  -1.234721  0  -0.345768  -0.3186  0  3.472867  0
N  N220  1  0.96703477  0.19227102  0.20391356  1  0.346087  0  0.061737  0.522053  0  4.192183  0
N  N221  1  0.28208959  0.23738304  0.32913925  1  0.388392  0  0.062456  0.523948  0  4.174112  0
N  N222  1  0.20075464  0.14787553  0.13426966  1  0.404307  0  0.05866  0.518741  0  4.208757  0
N  N223  1  0.10391263  0.37458742  0.27697441  1  0.403598  0  0.060004  0.520774  0  4.198017  0
N  N224  1  0.31864698  0.78211096  0.37906763  1  0.379221  0  0.062939  0.515856  0  4.184825  0
N  N225  1  0.11420123  0.77751932  0.16117720  1  0.385828  0  0.060801  0.51225  0  4.189404  0
N  N226  1  0.62930021  0.80904845  0.42002593  1  -1.204577  0  -0.27198  0.040482  0  3.713427  0
N  N227  1  0.74429335  0.98921903  0.55396710  1  -1.234899  0  -0.345688  -0.318399  0  3.472986  0
O  O228  1  0.46261048  0.40867430  0.06440000  1  -1.190463  0  -0.369903  -0.627665  0  2.319045  0
O  O229  1  0.59645017  0.47518842  0.10190137  1  -1.200859  0  -0.3864  -0.664849  0  2.318411  0
O  O230  1  0.76711519  0.07307779  0.44333508  1  -1.180454  0  -0.395601  -0.650343  0  2.230172  0
O  O231  1  0.79404152  0.00175049  0.34118441  1  -1.145294  0  -0.358509  -0.573561  0  2.146372  0
O  O232  1  0.40306345  0.19029896  0.14552174  1  -0.409147  0  -0.120115  -0.321122  0  1.94713  0
O  O233  1  0.47721408  0.17216220  0.24205837  1  -0.462049  0  -0.120397  -0.330418  0  1.973536  0
O  O234  1  0.83331523  0.37429142  0.21792578  1  -0.464682  0  -0.128519  -0.333498  0  1.932572  0
O  O235  1  0.80828940  0.28947080  0.27691022  1  -0.447453  0  -0.120335  -0.318962  0  1.945571  0
O  O236  1  0.70169431  0.18573151  0.11757236  1  -0.479583  0  -0.138749  -0.351522  0  1.949866  0
O  O237  1  0.70596207  0.07203707  0.11789451  1  -0.426141  0  -0.112523  -0.29618  0  1.872632  0
O  O238  1  0.58727119  0.32737646  0.34533631  1  -0.459118  0  -0.128482  -0.328816  0  1.930707  0
O  O239  1  0.58559093  0.27402613  0.43593817  1  -0.454907  0  -0.125354  -0.326593  0  1.919162  0
O  O240  1  0.55815118  0.44922085  0.94613345  1  -1.214972  0  -0.406473  -0.715397  0  2.462125  0
O  O241  1  0.44402476  0.36815700  0.89902179  1  -1.15751  0  -0.356252  -0.582038  0  2.167479  0
O  O242  1  0.84958656  0.43341911  0.82467116  1  -0.446317  0  -0.107338  -0.308204  0  1.935593  0
O  O243  1  0.85389535  0.35328542  0.72655857  1  -0.440252  0  -0.116636  -0.318505  0  1.921278  0
O  O244  1  0.67975465  0.12285111  0.76824411  1  -0.449142  0  -0.113441  -0.320702  0  1.967384  0
O  O245  1  0.53244953  0.13894352  0.77419570  1  -0.440773  0  -0.102082  -0.298047  0  1.90905  0
O  O246  1  0.24915750  0.41617363  0.88946420  1  -1.171772  0  -0.371135  -0.542589  0  2.4006  0
O  O247  1  0.95083025  0.67959409  0.98049298  1  -1.069489  0  -0.240545  -0.333362  0  2.163524  0
O  O248  1  0.03738903  0.93559890  0.59132441  1  -1.190424  0  -0.369885  -0.627642  0  2.319024  0
O  O249  1  0.90354986  0.89809870  0.52481159  1  -1.200875  0  -0.386406  -0.664854  0  2.318416  0
O  O250  1  0.73288742  0.55666562  0.92692509  1  -1.18046  0  -0.395622  -0.650304  0  2.230194  0
O  O251  1  0.70595953  0.65881696  0.99824985  1  -1.145318  0  -0.358526  -0.573582  0  2.146316  0
O  O252  1  0.09693854  0.85447887  0.80970384  1  -0.409241  0  -0.120105  -0.321161  0  1.947148  0
O  O253  1  0.02278784  0.75794328  0.82784045  1  -0.461995  0  -0.1204  -0.330448  0  1.973583  0
O  O254  1  0.66668164  0.78207354  0.62570990  1  -0.464675  0  -0.128486  -0.333438  0  1.932439  0
O  O255  1  0.69170848  0.72308598  0.71052764  1  -0.44739  0  -0.120346  -0.318946  0  1.945612  0
O  O256  1  0.79830202  0.88242766  0.81426746  1  -0.47963  0  -0.13879  -0.351544  0  1.949746  0
O  O257  1  0.79403096  0.88210607  0.92796209  1  -0.426123  0  -0.112561  -0.296208  0  1.872693  0
O  O258  1  0.91272880  0.65466670  0.67262492  1  -0.459063  0  -0.128444  -0.328768  0  1.930553  0
O  O259  1  0.91440812  0.56406265  0.72597509  1  -0.454904  0  -0.125433  -0.326738  0  1.91914  0
O  O260  1  0.94184658  0.05386678  0.55077630  1  -1.215057  0  -0.406442  -0.715348  0  2.462022  0
O  O261  1  0.05597211  0.10097757  0.63184201  1  -1.157408  0  -0.356183  -0.581914  0  2.167512  0
O  O262  1  0.65041124  0.17532869  0.56658148  1  -0.446326  0  -0.107356  -0.308202  0  1.935681  0
O  O263  1  0.64609987  0.27344116  0.64671664  1  -0.440261  0  -0.116603  -0.318489  0  1.921308  0
O  O264  1  0.82024522  0.23175675  0.87715089  1  -0.44906  0  -0.113478  -0.320722  0  1.967267  0
O  O265  1  0.96754854  0.22580269  0.86105401  1  -0.441385  0  -0.102016  -0.297925  0  1.909084  0
O  O266  1  0.25084194  0.11053391  0.58382473  1  -1.171818  0  -0.37115  -0.54264  0  2.400636  0
O  O267  1  0.54916824  0.01950646  0.32040646  1  -1.069437  0  -0.240541  -0.333404  0  2.163487  0
O  O268  1  0.53738756  0.59132704  0.93560101  1  -1.190494  0  -0.36977  -0.627535  0  2.319207  0
O  O269  1  0.40355112  0.52481081  0.89809832  1  -1.200834  0  -0.38643  -0.664875  0  2.318267  0
O  O270  1  0.23288832  0.92692357  0.55666408  1  -1.180288  0  -0.395646  -0.650343  0  2.230064  0
O  O271  1  0.20595839  0.99824873  0.65881523  1  -1.145249  0  -0.358571  -0.57366  0  2.146352  0
O  O272  1  0.59693938  0.80970240  0.85447843  1  -0.409261  0  -0.120184  -0.321191  0  1.947099  0
O  O273  1  0.52278384  0.82784550  0.75794804  1  -0.462069  0  -0.120344  -0.330438  0  1.973587  0
O  O274  1  0.16668232  0.62571204  0.78207875  1  -0.464728  0  -0.12849  -0.333447  0  1.932489  0
O  O275  1  0.19171230  0.71052525  0.72308731  1  -0.447319  0  -0.120248  -0.318826  0  1.945471  0
O  O276  1  0.29830284  0.81426769  0.88242457  1  -0.480136  0  -0.138739  -0.351527  0  1.949834  0
O  O277  1  0.29403443  0.92796266  0.88210250  1  -0.426132  0  -0.112478  -0.296132  0  1.872703  0
O  O278  1  0.41272465  0.67262326  0.65466275  1  -0.459063  0  -0.128335  -0.328653  0  1.930691  0
O  O279  1  0.41440636  0.72597466  0.56406064  1  -0.454683  0  -0.125396  -0.326631  0  1.919104  0
O  O280  1  0.44184452  0.55077728  0.05386580  1  -1.215024  0  -0.406438  -0.715269  0  2.462053  0
O  O281  1  0.55597172  0.63184220  0.10097667  1  -1.157407  0  -0.356186  -0.58193  0  2.167548  0
O  O282  1  0.15040791  0.56658061  0.17532888  1  -0.446073  0  -0.107388  -0.308274  0  1.935713  0
O  O283  1  0.14610527  0.64671380  0.27344370  1  -0.440308  0  -0.116583  -0.318525  0  1.921269  0
O  O284  1  0.32024085  0.87714490  0.23175057  1  -0.448998  0  -0.113435  -0.320707  0  1.967383  0
O  O285  1  0.46754677  0.86105356  0.22580286  1  -0.441304  0  -0.101964  -0.297898  0  1.909139  0
O  O286  1  0.75084182  0.58382665  0.11053666  1  -1.171794  0  -0.37124  -0.542789  0  2.400575  0
O  O287  1  0.04917159  0.32040355  0.01950590  1  -1.069308  0  -0.240475  -0.333255  0  2.163215  0
O  O288  1  0.96261284  0.06439927  0.40867302  1  -1.190457  0  -0.369916  -0.627717  0  2.318978  0
O  O289  1  0.09645021  0.10190264  0.47518639  1  -1.200825  0  -0.38639  -0.664748  0  2.31834  0
O  O290  1  0.26711410  0.44333627  0.07307617  1  -1.180366  0  -0.395638  -0.650341  0  2.230155  0
O  O291  1  0.29403984  0.34118385  0.00175112  1  -1.145257  0  -0.358545  -0.573584  0  2.146357  0
O  O292  1  0.90306163  0.14552301  0.19030100  1  -0.409155  0  -0.120082  -0.321129  0  1.947104  0
O  O293  1  0.97722124  0.24205120  0.17215291  1  -0.462108  0  -0.120402  -0.330526  0  1.97349  0
O  O294  1  0.33331717  0.21792886  0.37428980  1  -0.464591  0  -0.128528  -0.333371  0  1.932382  0
O  O295  1  0.30828561  0.27692541  0.28947883  1  -0.447329  0  -0.120465  -0.319064  0  1.945477  0
O  O296  1  0.20169549  0.11757579  0.18573083  1  -0.480027  0  -0.13876  -0.351573  0  1.949816  0
O  O297  1  0.20596375  0.11789684  0.07203599  1  -0.426161  0  -0.11253  -0.296228  0  1.872655  0
O  O298  1  0.08727064  0.34533517  0.32737419  1  -0.459003  0  -0.128538  -0.328855  0  1.930694  0
O  O299  1  0.08559141  0.43594028  0.27402474  1  -0.454941  0  -0.125327  -0.326556  0  1.919029  0
O  O300  1  0.05815615  0.94613351  0.44922055  1  -1.214961  0  -0.406408  -0.715305  0  2.462093  0
O  O301  1  0.94402858  0.89902271  0.36815787  1  -1.157395  0  -0.356221  -0.581943  0  2.167612  0
O  O302  1  0.34958672  0.82467159  0.43342037  1  -0.446356  0  -0.107365  -0.308285  0  1.935623  0
O  O303  1  0.35390008  0.72655806  0.35328715  1  -0.440209  0  -0.116557  -0.318506  0  1.921283  0
O  O304  1  0.17975779  0.76824674  0.12284919  1  -0.44917  0  -0.113531  -0.320831  0  1.967441  0
O  O305  1  0.03245318  0.77419336  0.13894560  1  -0.441313  0  -0.102009  -0.297958  0  1.908902  0
O  O306  1  0.74916261  0.88946321  0.41617520  1  -1.171858  0  -0.37119  -0.542786  0  2.400567  0
O  O307  1  0.45083259  0.98049489  0.67960039  1  -1.06942  0  -0.240458  -0.33324  0  2.163494  0
