# generated using pymatgen
data_Zn4H24C32O13
_symmetry_space_group_name_H-M   'P 1'
_cell_length_a   19.62234317
_cell_length_b   19.63227716
_cell_length_c   22.78927264
_cell_angle_alpha   115.64038810
_cell_angle_beta   115.46261022
_cell_angle_gamma   90.04673689
_symmetry_Int_Tables_number   1
_chemical_formula_structural   Zn4H24C32O13
_chemical_formula_sum   'Zn8 H48 C64 O26'
_cell_volume   6955.02527842
_cell_formula_units_Z   2
loop_
 _symmetry_equiv_pos_site_id
 _symmetry_equiv_pos_as_xyz
  1  'x, y, z'
loop_
 _atom_site_type_symbol
 _atom_site_label
 _atom_site_symmetry_multiplicity
 _atom_site_fract_x
 _atom_site_fract_y
 _atom_site_fract_z
 _atom_site_occupancy
 _atom_site_pbe_bader_charge
 _atom_site_pbe_bader_spin_density
 _atom_site_pbe_cm5_charge
 _atom_site_pbe_ddec_charge
 _atom_site_pbe_ddec_spin_density
 _atom_site_pbe_ddec_sum_bond_order
 _atom_site_pbe_magmom
Zn  Zn0  1  0.11323465  0.03239598  0.56423055  1  1.319487  0  0.677466  0.968124  0  2.36027  0
Zn  Zn1  1  0.53206142  0.45089309  0.56421683  1  1.314549  0  0.677684  0.96863  0  2.358288  0
Zn  Zn2  1  0.96808924  0.88642650  0.43621604  1  1.318863  0  0.677019  0.966285  0  2.364239  0
Zn  Zn3  1  0.54907022  0.46768211  0.43577004  1  1.316354  0  0.677682  0.969008  0  2.357635  0
Zn  Zn4  1  0.96763750  0.04870675  0.43556252  1  1.314419  0  0.677474  0.966865  0  2.360736  0
Zn  Zn5  1  0.38661665  0.46817576  0.43644841  1  1.318156  0  0.676535  0.965702  0  2.368418  0
Zn  Zn6  1  0.95021664  0.03213826  0.56365493  1  1.314596  0  0.677246  0.965087  0  2.366339  0
Zn  Zn7  1  0.53166085  0.61341756  0.56378082  1  1.319283  0  0.677204  0.966512  0  2.36738  0
H  H8  1  0.37482535  0.22664521  0.06029385  1  0.018738  0  0.095071  0.094401  0  0.975935  0
H  H9  1  0.83734840  0.68962516  0.05748845  1  0.031091  0  0.094909  0.09449  0  0.976279  0
H  H10  1  0.89255517  0.91443935  0.04108032  1  0.031845  0  0.091302  0.087573  0  1.011961  0
H  H11  1  0.80408655  0.92191997  0.04199179  1  0.003997  0  0.087451  0.078204  0  1.000547  0
H  H12  1  0.10029914  0.20549492  0.15573782  1  0.019616  0  0.087279  0.115968  0  0.9954  0
H  H13  1  0.03824896  0.13563287  0.06200503  1  0.021779  0  0.081712  0.104592  0  1.008953  0
H  H14  1  0.08981927  0.10500248  0.12851612  1  0.013598  0  0.084117  0.107928  0  1.01495  0
H  H15  1  0.15316601  0.08951029  0.04930451  1  0.010946  0  0.084356  0.070386  0  0.99094  0
H  H16  1  0.21582930  0.15598078  0.14266890  1  0.006467  0  0.087777  0.076043  0  0.9753  0
H  H17  1  0.19177117  0.26687592  0.12389793  1  0.047629  0  0.089416  0.086077  0  1.006261  0
H  H18  1  0.11526613  0.21091466  0.03328310  1  -0.000941  0  0.089456  0.084323  0  0.998502  0
H  H19  1  0.98916676  0.97398420  0.83847955  1  0.010487  0  0.081388  0.104391  0  1.014016  0
H  H20  1  0.75010501  0.61443893  0.93037599  1  0.048178  0  0.096567  0.096993  0  0.977507  0
H  H21  1  0.97858434  0.01100437  0.77709289  1  0.028492  0  0.085966  0.11573  0  0.998313  0
H  H22  1  0.00522379  0.92086996  0.76154116  1  0.019054  0  0.084657  0.109615  0  1.00362  0
H  H23  1  0.12121436  0.02615834  0.81697807  1  0.019733  0  0.081637  0.070741  0  1.013273  0
H  H24  1  0.13320717  0.98865299  0.87757714  1  -0.003155  0  0.082575  0.067613  0  0.981332  0
H  H25  1  0.09380671  0.09698640  0.95130488  1  0.012435  0  0.089364  0.085623  0  1.023666  0
H  H26  1  0.07222209  0.13529330  0.89038368  1  0.037378  0  0.08727  0.079487  0  1.002591  0
H  H27  1  0.86189757  0.83967773  0.83067206  1  0.030062  0  0.087131  0.115361  0  0.995186  0
H  H28  1  0.90048626  0.92196967  0.91983894  1  0.026111  0  0.082579  0.105959  0  1.009685  0
H  H29  1  0.96327703  0.86744932  0.89190184  1  0.009062  0  0.084342  0.10875  0  1.009507  0
H  H30  1  0.93993564  0.83658957  0.97919751  1  0.02982  0  0.084915  0.071022  0  0.994715  0
H  H31  1  0.31848047  0.17762646  0.93169509  1  0.037773  0  0.095752  0.096041  0  0.977413  0
H  H32  1  0.90533178  0.75396778  0.89203499  1  0.002864  0  0.086769  0.073547  0  0.975707  0
H  H33  1  0.77243116  0.76356616  0.85421059  1  0.019655  0  0.088079  0.088342  0  1.007788  0
H  H34  1  0.79701515  0.85641922  0.92919368  1  0.00321  0  0.087872  0.080378  0  1.010467  0
H  H35  1  0.98019277  0.03955653  0.14534479  1  0.01288  0  0.079541  0.099828  0  1.022813  0
H  H36  1  0.89254802  0.06792105  0.13935384  1  0.012716  0  0.082606  0.107027  0  1.003293  0
H  H37  1  0.96816109  0.08285246  0.22574506  1  0.039962  0  0.088296  0.117361  0  0.998691  0
H  H38  1  0.86729180  0.96832478  0.17569328  1  0.014799  0  0.084521  0.078241  0  1.001468  0
H  H39  1  0.95170103  0.93854203  0.17654171  1  -0.005032  0  0.084098  0.074314  0  0.979052  0
H  H40  1  0.23243318  0.10844184  0.94826954  1  0.010097  0  0.094983  0.065959  0  0.974941  0
H  H41  1  0.83875017  0.71569459  0.94940695  1  0.026141  0  0.095592  0.066662  0  0.970608  0
H  H42  1  0.90167706  0.80654615  0.06997661  1  0.010965  0  0.094276  0.064122  0  0.974006  0
H  H43  1  0.27147427  0.16989326  0.06930872  1  0.002981  0  0.09517  0.064346  0  0.977246  0
H  H44  1  0.18236246  0.31263441  0.92925090  1  0.04537  0  0.096138  0.096357  0  0.975669  0
H  H45  1  0.61660885  0.75242524  0.92970327  1  0.04167  0  0.096091  0.096418  0  0.975161  0
H  H46  1  0.67680625  0.79070919  0.05656007  1  0.025557  0  0.095377  0.095036  0  0.972188  0
H  H47  1  0.26545452  0.38161751  0.05724451  1  0.035333  0  0.095077  0.094691  0  0.971737  0
H  H48  1  0.11836788  0.26181382  0.94004845  1  0.018596  0  0.095274  0.095173  0  0.986304  0
H  H49  1  0.68112005  0.82634363  0.94228236  1  0.016653  0  0.096117  0.096429  0  0.982754  0
H  H50  1  0.72110105  0.87781269  0.06945926  1  0.045628  0  0.098043  0.099155  0  0.982637  0
H  H51  1  0.19152146  0.34514267  0.06760788  1  0.048483  0  0.097644  0.099035  0  0.982403  0
H  H52  1  0.30861157  0.27020045  0.93977926  1  0.014506  0  0.095327  0.096229  0  0.972315  0
H  H53  1  0.66888432  0.63714129  0.94336897  1  0.047184  0  0.094929  0.096051  0  0.972734  0
H  H54  1  0.75502747  0.68923906  0.07049956  1  0.041007  0  0.096431  0.098804  0  0.975743  0
H  H55  1  0.38200058  0.32014674  0.06820915  1  0.013756  0  0.095929  0.097277  0  0.974598  0
C  C56  1  0.89914314  0.89778911  0.29890477  1  1.626649  0  0.230139  0.688555  0  4.227713  0
C  C57  1  0.39894311  0.39820128  0.29917825  1  1.575233  0  0.230969  0.690051  0  4.226577  0
C  C58  1  0.31826894  0.31814230  0.49985795  1  0.172568  0  -0.003654  -0.136714  0  3.853205  0
C  C59  1  0.81870437  0.81845931  0.50063803  1  0.173547  0  -0.003849  -0.135714  0  3.851815  0
C  C60  1  0.68174943  0.68157186  0.50021966  1  0.161924  0  -0.003737  -0.136624  0  3.853143  0
C  C61  1  0.18130528  0.18125313  0.49946044  1  0.155896  0  -0.004294  -0.137682  0  3.851623  0
C  C62  1  0.09983130  0.10004713  0.70090895  1  1.612004  0  0.230835  0.688253  0  4.227991  0
C  C63  1  0.77464457  0.77441421  0.50064082  1  -0.318367  0  -0.00078  0.036336  0  4.224846  0
C  C64  1  0.72595049  0.72575317  0.50049099  1  -0.185153  0  -0.001067  0.036726  0  4.226116  0
C  C65  1  0.22539424  0.22534568  0.49951874  1  -0.181483  0  -0.000888  0.036974  0  4.225282  0
C  C66  1  0.27408142  0.27400724  0.49965412  1  -0.316789  0  -0.001189  0.036758  0  4.226448  0
C  C67  1  0.60174766  0.60095291  0.70090546  1  1.634141  0  0.231096  0.689817  0  4.226837  0
C  C68  1  0.12940531  0.12934618  0.49949274  1  1.669021  0  0.23795  0.669635  0  4.245853  0
C  C69  1  0.37019203  0.37027612  0.50007742  1  1.67429  0  0.237123  0.669389  0  4.247774  0
C  C70  1  0.87044718  0.87036566  0.50046659  1  1.675071  0  0.237059  0.668152  0  4.246923  0
C  C71  1  0.62961493  0.62966952  0.50000184  1  1.670576  0  0.237964  0.669324  0  4.246943  0
C  C72  1  0.87008625  0.12975298  0.49961955  1  1.677356  0  0.236183  0.667246  0  4.247962  0
C  C73  1  0.37012172  0.62993313  0.50003930  1  1.709155  0  0.236751  0.66872  0  4.247898  0
C  C74  1  0.12989921  0.87055311  0.50039543  1  1.697759  0  0.237448  0.669861  0  4.246027  0
C  C75  1  0.62971007  0.37031205  0.49996408  1  1.672399  0  0.23761  0.66901  0  4.245607  0
C  C76  1  0.18187954  0.81874522  0.50040403  1  0.168512  0  -0.003889  -0.136475  0  3.849274  0
C  C77  1  0.68169912  0.31848117  0.49998950  1  0.171278  0  -0.00366  -0.135888  0  3.848358  0
C  C78  1  0.22583252  0.77463838  0.50027097  1  -0.212072  0  -0.000977  0.036642  0  4.222685  0
C  C79  1  0.19642370  0.15075580  0.95795329  1  0.040745  0  -0.072592  -0.04129  0  3.701566  0
C  C80  1  0.72573109  0.27444407  0.49997314  1  -0.211466  0  -0.001294  0.036044  0  4.222907  0
C  C81  1  0.27433532  0.72597819  0.50014374  1  -0.340068  0  -0.000654  0.036885  0  4.225104  0
C  C82  1  0.77429526  0.22582617  0.49986960  1  -0.344243  0  -0.00088  0.036502  0  4.224483  0
C  C83  1  0.80712443  0.76252627  0.95753022  1  -0.001119  0  -0.073862  -0.044168  0  3.717718  0
C  C84  1  0.31828093  0.68187634  0.50003751  1  0.177649  0  -0.0034  -0.135939  0  3.851142  0
C  C85  1  0.81828471  0.18175613  0.49970401  1  0.18194  0  -0.003756  -0.135868  0  3.850812  0
C  C86  1  0.84450409  0.81849386  0.04379252  1  0.035109  0  -0.073081  -0.045804  0  3.725098  0
C  C87  1  0.29824552  0.22899124  0.95739676  1  0.013064  0  -0.153814  -0.190281  0  3.876591  0
C  C88  1  0.72753152  0.66243551  0.95796305  1  -0.055601  0  -0.153906  -0.19041  0  3.881582  0
C  C89  1  0.78061517  0.70496185  0.04236059  1  -0.012098  0  -0.153991  -0.192768  0  3.879158  0
C  C90  1  0.34094576  0.26504174  0.04247693  1  -0.009568  0  -0.153215  -0.189018  0  3.87499  0
C  C91  1  0.23076592  0.20019272  0.04451327  1  0.007407  0  -0.07308  -0.043592  0  3.722173  0
C  C92  1  0.11181646  0.10361345  0.91427956  1  -0.043913  0  -0.166812  -0.18547  0  3.917823  0
C  C93  1  0.09872879  0.02219873  0.85230898  1  0.007472  0  -0.170743  -0.096179  0  3.985136  0
C  C94  1  0.01333966  0.97960713  0.80479929  1  -0.059246  0  -0.245648  -0.350707  0  3.978973  0
C  C95  1  0.81404672  0.80043708  0.91321058  1  -0.001276  0  -0.169525  -0.190244  0  3.932064  0
C  C96  1  0.89528818  0.81155392  0.92068170  1  -0.021342  0  -0.167035  -0.090782  0  3.980248  0
C  C97  1  0.90597837  0.86282800  0.88903752  1  -0.064049  0  -0.244639  -0.355556  0  3.989149  0
C  C98  1  0.85903410  0.90551182  0.06643141  1  -0.027901  0  -0.166219  -0.183882  0  3.916796  0
C  C99  1  0.90438228  0.96234844  0.14971003  1  0.022966  0  -0.170176  -0.094193  0  3.960638  0
C  C100  1  0.93814009  0.04250582  0.16589803  1  -0.0773  0  -0.245095  -0.350768  0  3.98366  0
C  C101  1  0.17173535  0.21010368  0.07376653  1  -0.031577  0  -0.169615  -0.190747  0  3.925082  0
C  C102  1  0.16129830  0.14736548  0.09419289  1  0.007837  0  -0.16547  -0.091255  0  3.980509  0
C  C103  1  0.09383871  0.14837438  0.11108845  1  -0.058986  0  -0.243644  -0.352789  0  3.987321  0
C  C104  1  0.35852059  0.35693823  0.21969356  1  -0.205454  0  -0.059475  -0.232845  0  3.982871  0
C  C105  1  0.86039298  0.85825334  0.21947012  1  -0.015144  0  -0.058372  -0.240854  0  3.98247  0
C  C106  1  0.64361545  0.64172369  0.78037911  1  0.13006  0  -0.058276  -0.235012  0  3.979764  0
C  C107  1  0.13896764  0.13786730  0.78033467  1  -0.050384  0  -0.055364  -0.232115  0  3.971972  0
C  C108  1  0.20995384  0.20495711  0.92774305  1  0.172247  0  0.003198  0.130856  0  3.875521  0
C  C109  1  0.72210601  0.72049031  0.92778863  1  0.101751  0  0.002411  0.132918  0  3.872116  0
C  C110  1  0.79403673  0.79415975  0.07245358  1  0.093769  0  0.003441  0.132116  0  3.868959  0
C  C111  1  0.28171472  0.27989827  0.07212139  1  0.173956  0  0.001585  0.130959  0  3.891572  0
C  C112  1  0.22881393  0.32788979  0.04151216  1  -0.043125  0  -0.149777  -0.17837  0  3.845758  0
C  C113  1  0.71416474  0.81459865  0.04205995  1  -0.010065  0  -0.150938  -0.182073  0  3.85416  0
C  C114  1  0.67818503  0.78072334  0.95735773  1  -0.027451  0  -0.15209  -0.184668  0  3.852844  0
C  C115  1  0.17977080  0.27909848  0.95659902  1  -0.020252  0  -0.152965  -0.186674  0  3.849219  0
C  C116  1  0.32284993  0.32182986  0.15239506  1  -0.086558  0  -0.004024  0.003514  0  4.014422  0
C  C117  1  0.83115285  0.83087934  0.15262032  1  -0.216227  0  0.000438  0.01215  0  4.001491  0
C  C118  1  0.68013607  0.67852540  0.84757640  1  -0.420356  0  -0.003224  0.008945  0  4.007814  0
C  C119  1  0.17065929  0.16688067  0.84747931  1  -0.249528  0  0.000671  0.013625  0  3.994494  0
O  O120  1  0.99990915  0.99998837  0.49993602  1  -1.22441  0  -0.569103  -1.038305  0  2.52385  0
O  O121  1  0.47305257  0.41475489  0.33050143  1  -1.111476  0  -0.311316  -0.543305  0  2.276895  0
O  O122  1  0.58515094  0.64306426  0.66896470  1  -1.14801  0  -0.312399  -0.542761  0  2.278983  0
O  O123  1  0.91461883  0.97207112  0.33041887  1  -1.165517  0  -0.309377  -0.541437  0  2.277447  0
O  O124  1  0.35670472  0.41445084  0.33111896  1  -1.148776  0  -0.312397  -0.542559  0  2.277915  0
O  O125  1  0.02565865  0.08411193  0.66901620  1  -1.130544  0  -0.31056  -0.541351  0  2.278  0
O  O126  1  0.14256694  0.08550596  0.66951300  1  -1.157358  0  -0.311925  -0.544269  0  2.277887  0
O  O127  1  0.58516214  0.52678050  0.66959654  1  -1.112383  0  -0.311622  -0.543141  0  2.277059  0
O  O128  1  0.91495804  0.85564034  0.33076383  1  -1.141976  0  -0.310853  -0.541665  0  2.28056  0
O  O129  1  0.49997178  0.49990971  0.50006379  1  -1.223417  0  -0.569321  -1.039062  0  2.524273  0
O  O130  1  0.05770185  0.11534706  0.45418907  1  -1.145065  0  -0.302501  -0.527975  0  2.27571  0
O  O131  1  0.33861755  0.39726897  0.45543296  1  -1.128606  0  -0.300609  -0.525847  0  2.275216  0
O  O132  1  0.88342606  0.94226853  0.54502501  1  -1.143775  0  -0.30173  -0.526956  0  2.276577  0
O  O133  1  0.60271490  0.66133370  0.54486954  1  -1.129827  0  -0.301408  -0.526219  0  2.275684  0
O  O134  1  0.89708674  0.11625036  0.45480112  1  -1.130811  0  -0.301176  -0.526257  0  2.274986  0
O  O135  1  0.33856669  0.55806307  0.45518352  1  -1.141978  0  -0.300702  -0.525815  0  2.275456  0
O  O136  1  0.88326891  0.10290728  0.54441024  1  -1.125772  0  -0.300513  -0.524935  0  2.27473  0
O  O137  1  0.44190054  0.66150698  0.54491323  1  -1.142689  0  -0.300957  -0.525902  0  2.275087  0
O  O138  1  0.05819217  0.83880483  0.45538844  1  -1.14151  0  -0.300287  -0.52534  0  2.273981  0
O  O139  1  0.61624189  0.39700103  0.45502179  1  -1.130447  0  -0.301316  -0.526693  0  2.273546  0
O  O140  1  0.16127519  0.94243717  0.54537145  1  -1.143082  0  -0.301998  -0.527342  0  2.273629  0
O  O141  1  0.60286308  0.38378373  0.54488145  1  -1.129563  0  -0.301167  -0.526046  0  2.273465  0
O  O142  1  0.16086516  0.10312105  0.54479386  1  -1.126163  0  -0.300624  -0.525289  0  2.274004  0
O  O143  1  0.44194871  0.38369616  0.54486324  1  -1.14182  0  -0.301662  -0.526745  0  2.274605  0
O  O144  1  0.89753291  0.83872295  0.45577121  1  -1.126984  0  -0.300203  -0.524817  0  2.274428  0
O  O145  1  0.61610848  0.55782733  0.45501866  1  -1.144114  0  -0.30199  -0.526825  0  2.274708  0
