# generated using pymatgen
data_CoH20C26S(NO3)2
_symmetry_space_group_name_H-M   'P 1'
_cell_length_a   8.57714198
_cell_length_b   11.83726378
_cell_length_c   12.80324960
_cell_angle_alpha   105.47506845
_cell_angle_beta   91.51071815
_cell_angle_gamma   100.86468768
_symmetry_Int_Tables_number   1
_chemical_formula_structural   CoH20C26S(NO3)2
_chemical_formula_sum   'Co2 H40 C52 S2 N4 O12'
_cell_volume   1226.28830246
_cell_formula_units_Z   2
loop_
 _symmetry_equiv_pos_site_id
 _symmetry_equiv_pos_as_xyz
  1  'x, y, z'
loop_
 _atom_site_type_symbol
 _atom_site_label
 _atom_site_symmetry_multiplicity
 _atom_site_fract_x
 _atom_site_fract_y
 _atom_site_fract_z
 _atom_site_occupancy
 _atom_site_hle17_ddec_charge
 _atom_site_hle17_ddec_spin_density
 _atom_site_hle17_ddec_sum_bond_order
 _atom_site_hle17_magmom
 _atom_site_hse06_10hf_ddec_charge
 _atom_site_hse06_10hf_ddec_spin_density
 _atom_site_hse06_10hf_ddec_sum_bond_order
 _atom_site_hse06_10hf_magmom
 _atom_site_hse06_ddec_charge
 _atom_site_hse06_ddec_spin_density
 _atom_site_hse06_ddec_sum_bond_order
 _atom_site_hse06_magmom
 _atom_site_pbe_cm5_charge
 _atom_site_pbe_ddec_charge
 _atom_site_pbe_ddec_spin_density
 _atom_site_pbe_ddec_sum_bond_order
 _atom_site_pbe_magmom
Co  Co0  1  0.62816641  0.09219922  0.23600237  1  0.923421  2.905145  2.004539  2.538  0.859833  2.845355  2.449398  2.595  0.950734  2.891184  2.364808  2.683  0.677363  0.790619  2.803642  2.51153  2.513
Co  Co1  1  0.37184240  0.90780221  0.76399602  1  0.923352  -2.905152  2.004497  -2.538  0.859747  -2.845365  2.449391  -2.595  0.950649  -2.891193  2.3648  -2.683  0.677318  0.790531  -2.803647  2.511502  -2.513
H  H2  1  0.19517058  0.06133220  0.99411968  1  0.380479  -0.000448  0.898585  0.0  0.357165  -0.000444  0.967833  -0.001  0.368807  -0.000245  0.955481  0.0  0.303178  0.349023  -0.000666  0.976091  -0.001
H  H3  1  0.80483939  0.93866923  0.00587404  1  0.380441  0.000449  0.898549  0.0  0.357111  0.000445  0.967841  0.001  0.368751  0.000246  0.955492  0.0  0.303119  0.34897  0.000667  0.976096  0.001
H  H4  1  0.10540741  0.31300586  0.30891717  1  0.380947  4.2e-05  0.901554  0.0  0.355935  7.9e-05  0.971962  0.0  0.368247  3.5e-05  0.959376  0.0  0.298221  0.347362  0.000136  0.980456  0.0
H  H5  1  0.89457089  0.68697220  0.69109296  1  0.380944  -4.2e-05  0.901691  0.0  0.355966  -7.9e-05  0.972024  0.0  0.368279  -3.4e-05  0.959443  0.0  0.298268  0.347391  -0.000135  0.980512  0.0
H  H6  1  0.78764118  0.30677384  0.57534753  1  0.101883  0.000168  0.951306  0.0  0.111248  0.000135  1.014793  0.0  0.115144  7.1e-05  1.01106  0.0  0.104785  0.108475  0.000206  1.017351  0.0
H  H7  1  0.21234129  0.69323374  0.42467223  1  0.101708  -0.000168  0.95132  0.0  0.111112  -0.000135  1.014788  0.0  0.115014  -7.1e-05  1.011058  0.0  0.104713  0.108355  -0.000206  1.017333  0.0
H  H8  1  0.29193959  0.89361956  0.47939773  1  0.120071  0.000344  0.967434  0.0  0.127971  0.000325  1.030673  0.0  0.13172  0.000277  1.029362  0.0  0.10809  0.12515  0.000375  1.031852  0.0
H  H9  1  0.70807763  0.10638729  0.52060368  1  0.120063  -0.000344  0.967407  0.0  0.127977  -0.000325  1.030647  0.0  0.131728  -0.000277  1.029334  0.0  0.10811  0.125152  -0.000375  1.031832  0.0
H  H10  1  0.13335532  0.24171642  0.73496261  1  0.102865  -0.000103  0.971113  0.0  0.112249  -0.000117  1.035747  0.0  0.115347  -7.2e-05  1.033856  0.0  0.102354  0.109979  -0.000168  1.03712  0.0
H  H11  1  0.86664624  0.75829748  0.26504027  1  0.102873  0.000104  0.971165  0.0  0.112252  0.000118  1.035791  0.0  0.11537  7.2e-05  1.033875  0.0  0.102326  0.109971  0.000168  1.037168  0.0
H  H12  1  0.88251973  0.40572840  0.00395558  1  0.084312  1.3e-05  0.966296  0.0  0.093731  -2e-06  1.033411  0.0  0.096358  -2e-06  1.031945  0.0  0.092666  0.091941  -1e-06  1.034385  0.0
H  H13  1  0.11747651  0.59426941  0.99605421  1  0.084283  -1.2e-05  0.966364  0.0  0.093738  2e-06  1.033432  0.0  0.096367  2e-06  1.031965  0.0  0.092725  0.091948  1e-06  1.034402  0.0
H  H14  1  0.47917308  0.30308749  0.29701512  1  0.086874  0.000896  0.929447  0.002  0.093698  0.000803  0.993754  0.001  0.096629  0.000603  0.990696  0.001  0.122311  0.091296  0.000998  0.996432  0.002
H  H15  1  0.52080398  0.69689497  0.70297732  1  0.086904  -0.000896  0.929375  -0.002  0.093696  -0.000803  0.993713  -0.001  0.096622  -0.000603  0.990665  -0.001  0.1223  0.091294  -0.000998  0.996385  -0.002
H  H16  1  0.38774028  0.44249514  0.20571541  1  0.115843  0.000182  0.939257  0.0  0.125424  0.000275  0.998823  0.0  0.129363  0.00019  0.997099  0.0  0.110596  0.122332  0.000366  1.000589  0.0
H  H17  1  0.61223935  0.55748824  0.79427808  1  0.115805  -0.000183  0.939157  0.0  0.125388  -0.000275  0.998731  0.0  0.129338  -0.00019  0.996994  0.0  0.110563  0.122301  -0.000366  1.000492  0.0
H  H18  1  0.65057460  0.12057320  0.01422356  1  0.087507  0.000657  0.926004  0.002  0.097312  0.000451  0.985476  0.001  0.099695  0.000326  0.983323  0.001  0.122342  0.095254  0.000573  0.987603  0.002
H  H19  1  0.34944379  0.87943366  0.98577709  1  0.087531  -0.000656  0.925886  -0.002  0.09736  -0.000451  0.98536  -0.001  0.099708  -0.000326  0.983264  -0.001  0.122333  0.095306  -0.000574  0.987469  -0.002
H  H20  1  0.56777335  0.25384452  0.91106045  1  0.117314  0.000264  0.923555  0.0  0.131776  0.000341  0.974057  0.0  0.134989  0.000252  0.973496  0.0  0.114442  0.129195  0.000435  0.975063  0.0
H  H21  1  0.43223802  0.74615782  0.08893820  1  0.11737  -0.000265  0.923511  0.0  0.131805  -0.000341  0.97404  0.0  0.135042  -0.000252  0.973447  0.0  0.114434  0.129226  -0.000435  0.975049  0.0
H  H22  1  0.96585406  0.27776920  0.10987250  1  0.131987  -5.8e-05  0.960452  0.0  0.138597  -8.2e-05  1.024338  0.0  0.142834  -7.9e-05  1.021858  0.0  0.105308  0.135645  -8.5e-05  1.026042  0.0
H  H23  1  0.03415478  0.72222778  0.89013261  1  0.131991  5.7e-05  0.960421  0.0  0.138582  8.2e-05  1.024333  0.0  0.142816  7.9e-05  1.021859  0.0  0.105302  0.13563  8.5e-05  1.026027  0.0
H  H24  1  0.24971184  0.49479682  0.73164178  1  0.089777  4.1e-05  0.959535  0.0  0.099532  4.5e-05  1.022925  0.0  0.10168  3.7e-05  1.022181  0.0  0.098133  0.098179  5.7e-05  1.023313  0.0
H  H25  1  0.75027286  0.50522859  0.26836207  1  0.089652  -4.1e-05  0.959474  0.0  0.099495  -4.5e-05  1.022826  0.0  0.101642  -3.7e-05  1.02208  0.0  0.098154  0.09815  -5.7e-05  1.023213  0.0
H  H26  1  0.03705554  0.05628864  0.28302509  1  0.121818  0.0002  0.951689  0.0  0.131665  0.000117  1.009852  0.0  0.134467  5.2e-05  1.009758  0.0  0.110557  0.129479  0.000191  1.010351  0.001
H  H27  1  0.96295257  0.94370116  0.71696654  1  0.121846  -0.0002  0.951778  0.0  0.131671  -0.000117  1.00992  0.0  0.134472  -5.2e-05  1.009826  0.0  0.110537  0.129484  -0.000191  1.010418  -0.001
H  H28  1  0.32585874  0.48206215  0.02987118  1  0.085351  -0.000106  0.933322  0.0  0.101334  -6e-06  0.997848  0.0  0.102634  -1e-06  0.998036  0.0  0.095008  0.100135  -1.9e-05  0.99795  0.0
H  H29  1  0.67414748  0.51793387  0.97011569  1  0.085466  0.000106  0.933248  0.0  0.101391  6e-06  0.997865  0.0  0.102698  1e-06  0.998033  0.0  0.095035  0.100177  1.9e-05  0.997996  0.0
H  H30  1  0.39364402  0.40289535  0.90756243  1  0.087338  -0.000119  0.929545  0.0  0.105115  -6e-06  0.987209  0.0  0.106411  -1e-06  0.987403  0.0  0.097174  0.103845  -2e-05  0.98744  0.0
H  H31  1  0.60637576  0.59709898  0.09242894  1  0.087284  0.000118  0.929654  0.0  0.105202  6e-06  0.987147  0.0  0.1065  1e-06  0.987334  0.0  0.097197  0.10393  2e-05  0.987381  0.0
H  H32  1  0.28284705  0.09963770  0.19393605  1  0.079605  0.000425  0.981514  0.001  0.084316  0.000557  1.051384  0.001  0.086408  0.000392  1.049317  0.001  0.114447  0.082816  0.000718  1.053093  0.001
H  H33  1  0.71715895  0.90034850  0.80604997  1  0.0796  -0.000425  0.98144  -0.001  0.084335  -0.000557  1.051311  -0.001  0.086407  -0.000392  1.049266  -0.001  0.11445  0.08284  -0.000718  1.053002  -0.001
H  H34  1  0.89003482  0.93369405  0.39656029  1  0.101282  8e-06  0.976033  0.0  0.116099  3.7e-05  1.036235  0.0  0.118645  2e-06  1.034705  0.0  0.096202  0.114109  7.4e-05  1.03745  0.0
H  H35  1  0.10998286  0.06630116  0.60343047  1  0.101154  -8e-06  0.976084  0.0  0.116066  -3.6e-05  1.036251  0.0  0.118616  -2e-06  1.034727  0.0  0.096187  0.114071  -7.4e-05  1.037466  0.0
H  H36  1  0.99582195  0.86530234  0.47565626  1  0.079094  1.9e-05  0.960922  0.0  0.094983  6.3e-05  1.023962  0.0  0.095268  5.3e-05  1.026054  0.0  0.090394  0.094612  7.2e-05  1.022717  0.0
H  H37  1  0.00419364  0.13468928  0.52433438  1  0.079206  -1.9e-05  0.960898  0.0  0.095129  -6.3e-05  1.023925  0.0  0.095451  -5.3e-05  1.025984  0.0  0.090446  0.094747  -7.2e-05  1.022687  0.0
H  H38  1  0.53093423  0.94169762  0.37909630  1  0.092963  0.000547  0.962885  0.001  0.100476  0.000544  1.025356  0.001  0.10274  0.000363  1.023097  0.001  0.119535  0.098777  0.000746  1.027203  0.002
H  H39  1  0.46908298  0.05830474  0.62089855  1  0.0929  -0.000546  0.962872  -0.001  0.100384  -0.000544  1.025362  -0.001  0.102649  -0.000363  1.023105  -0.001  0.119528  0.098688  -0.000745  1.027212  -0.002
H  H40  1  0.36044581  0.46799528  0.55088680  1  0.111744  5.4e-05  0.936424  0.0  0.125503  4.9e-05  0.988929  0.0  0.129255  3.1e-05  0.987264  0.0  0.106551  0.122908  7.2e-05  0.990218  0.0
H  H41  1  0.63952699  0.53202022  0.44911209  1  0.111696  -5.4e-05  0.936497  0.0  0.125499  -4.9e-05  0.988954  0.0  0.129252  -3.1e-05  0.987288  0.0  0.106526  0.122904  -7.2e-05  0.990237  0.0
C  C42  1  0.97346910  0.32621064  0.46829612  1  -0.219525  0.003537  3.77475  0.005  -0.197993  0.001582  4.012558  0.002  -0.213281  0.000937  4.035428  0.001  -0.039461  -0.188103  0.002345  3.997645  0.003
C  C43  1  0.02650752  0.67378796  0.53171588  1  -0.219192  -0.003537  3.774897  -0.005  -0.197853  -0.001585  4.012764  -0.002  -0.213136  -0.000937  4.035629  -0.001  -0.039451  -0.18796  -0.002345  3.997854  -0.003
C  C44  1  0.87329358  0.25328625  0.36827618  1  0.642108  -0.002847  3.897199  -0.006  0.595491  0.001219  4.1967  0.0  0.632734  0.000961  4.192124  0.0  0.204128  0.569239  0.001482  4.198476  -0.001
C  C45  1  0.12668095  0.74670876  0.63173725  1  0.642002  0.002844  3.897394  0.006  0.595542  -0.001219  4.196732  0.0  0.632784  -0.000961  4.192159  0.0  0.204328  0.569281  -0.001483  4.198512  0.001
C  C46  1  0.14256554  0.17762536  0.87650671  1  -0.212244  -0.001492  3.797608  -0.002  -0.192404  -0.000343  4.038606  0.0  -0.20593  -1.4e-05  4.060926  0.0  -0.041308  -0.183598  -0.00081  4.02395  -0.001
C  C47  1  0.85743906  0.82238230  0.12349313  1  -0.21219  0.001503  3.797382  0.002  -0.192281  0.000346  4.038334  0.0  -0.205807  1.5e-05  4.060659  0.0  -0.041244  -0.183474  0.00081  4.023691  0.001
C  C48  1  0.91314018  0.34235460  0.57083767  1  -0.065272  -0.00082  3.740317  -0.001  -0.101643  0.000177  3.993518  0.0  -0.095666  0.000131  4.009685  0.0  -0.080032  -0.105411  0.000186  3.982689  0.0
C  C49  1  0.08683971  0.65765205  0.42917714  1  -0.065163  0.00082  3.740146  0.001  -0.101521  -0.000175  3.993351  0.0  -0.09555  -0.00013  4.009514  0.0  -0.07996  -0.105296  -0.000186  3.982531  0.0
C  C50  1  0.28495396  0.93829185  0.41555525  1  -0.177591  0.004301  3.693764  0.006  -0.191056  0.001088  3.933675  0.002  -0.200751  0.000509  3.954571  0.001  -0.084274  -0.184841  0.00169  3.920452  0.003
C  C51  1  0.71506676  0.06171054  0.58444279  1  -0.177526  -0.004298  3.6937  -0.006  -0.191002  -0.001088  3.933567  -0.002  -0.200695  -0.000509  3.954461  -0.001  -0.084379  -0.18479  -0.00169  3.920348  -0.003
C  C52  1  0.99951844  0.33218894  0.86034460  1  0.011152  -0.000473  3.811992  -0.001  0.03254  -9.6e-05  4.074118  0.0  0.030172  -4.6e-05  4.097755  0.0  -0.026469  0.033827  -0.000196  4.057829  0.0
C  C53  1  0.00048245  0.66781783  0.13966355  1  0.011025  0.000488  3.812082  0.001  0.032424  9.7e-05  4.074192  0.0  0.030074  4.6e-05  4.097802  0.0  -0.026522  0.033723  0.000196  4.057888  0.0
C  C54  1  0.09459496  0.25101670  0.81657904  1  -0.101211  0.000567  3.755342  0.001  -0.134532  -0.000294  4.00662  0.0  -0.131798  -0.000233  4.026311  0.0  -0.094175  -0.135896  -0.000282  3.993058  0.0
C  C55  1  0.90540872  0.74899186  0.18342570  1  -0.101173  -0.000584  3.755182  -0.001  -0.134484  0.000291  4.006396  0.0  -0.13177  0.000232  4.026072  0.0  -0.094112  -0.135839  0.000282  3.99286  0.0
C  C56  1  0.95463829  0.34120215  0.96710617  1  -0.090196  0.000321  3.793658  0.0  -0.113193  -0.000186  4.049179  0.0  -0.111705  -9.8e-05  4.069267  0.0  -0.096018  -0.113455  -0.00032  4.034737  0.0
C  C57  1  0.04536097  0.65879836  0.03290042  1  -0.090143  -0.000339  3.793642  0.0  -0.113166  0.000187  4.049129  0.0  -0.111687  0.0001  4.06921  0.0  -0.096055  -0.113426  0.00032  4.034683  0.0
C  C58  1  0.47191710  0.36067396  0.05029325  1  0.158793  -0.010201  3.72686  -0.013  0.175147  -0.001702  3.96422  -0.002  0.182858  -0.000997  3.984349  -0.001  0.014229  0.168873  -0.003066  3.951823  -0.004
C  C59  1  0.52808331  0.63932205  0.94970524  1  0.158838  0.010193  3.72668  0.013  0.175119  0.001702  3.964186  0.002  0.182827  0.000998  3.984321  0.001  0.014165  0.168843  0.003068  3.951798  0.004
C  C60  1  0.09497803  0.18674717  0.98306505  1  0.336218  1.4e-05  3.783653  0.0  0.319206  -0.000428  4.04651  -0.001  0.334298  -0.000256  4.060794  0.0  0.086377  0.308988  -0.00068  4.036545  -0.001
C  C61  1  0.90502985  0.81325515  0.01693510  1  0.336329  -2.6e-05  3.783693  0.0  0.319339  0.000427  4.046487  0.001  0.334433  0.000255  4.060766  0.0  0.086471  0.309121  0.00068  4.036529  0.001
C  C62  1  0.49776855  0.29578059  0.21173499  1  0.130186  -0.009799  3.706539  -0.013  0.100376  -0.00061  3.967356  -0.001  0.110555  -0.00062  3.983311  -0.001  0.046657  0.092538  -0.000945  3.958081  -0.002
C  C63  1  0.50222206  0.70420463  0.78825835  1  0.130049  0.009789  3.70632  0.013  0.100266  0.000609  3.967147  0.001  0.110448  0.000619  3.983099  0.001  0.046626  0.092424  0.000945  3.957871  0.002
C  C64  1  0.44770455  0.37348442  0.16032746  1  -0.162894  0.009029  3.688584  0.012  -0.177547  0.002281  3.928899  0.004  -0.185491  0.001847  3.946743  0.003  -0.078538  -0.17282  0.002814  3.918751  0.004
C  C65  1  0.55228630  0.62650618  0.83966955  1  -0.162834  -0.009017  3.688477  -0.012  -0.177452  -0.002282  3.928777  -0.004  -0.185407  -0.001847  3.946612  -0.003  -0.07848  -0.172724  -0.002814  3.918625  -0.004
C  C66  1  0.59252304  0.19342885  0.05329722  1  0.146373  -0.009155  3.686923  -0.013  0.11645  2.3e-05  3.947669  -0.001  0.126999  0.000116  3.963938  0.0  0.052308  0.108348  -0.000561  3.938163  -0.001
C  C67  1  0.40748671  0.80656722  0.94669909  1  0.14612  0.009145  3.687259  0.013  0.116153  -2.4e-05  3.948012  0.001  0.126715  -0.000117  3.964294  0.0  0.052165  0.108054  0.000561  3.938504  0.001
C  C68  1  0.54633864  0.26831460  0.99682062  1  -0.164241  0.008976  3.696163  0.012  -0.182751  0.00206  3.944294  0.003  -0.191052  0.001603  3.962991  0.002  -0.081104  -0.177876  0.002656  3.933603  0.004
C  C69  1  0.45366690  0.73168771  0.00317793  1  -0.164303  -0.008964  3.696173  -0.012  -0.182764  -0.00206  3.944362  -0.003  -0.191077  -0.001603  3.963039  -0.002  -0.081077  -0.177897  -0.002656  3.933684  -0.004
C  C70  1  0.00123725  0.27018024  0.02757662  1  -0.192142  -0.000375  3.732846  0.0  -0.211077  -5e-05  3.989733  0.0  -0.218395  -2.1e-05  4.008864  0.0  -0.107023  -0.206107  -0.000122  3.976419  0.0
C  C71  1  0.99877135  0.72982031  0.97242779  1  -0.192208  0.000392  3.732874  0.0  -0.211148  4.9e-05  3.9898  0.0  -0.218471  1.9e-05  4.008943  0.0  -0.107125  -0.206172  0.000122  3.976471  0.0
C  C72  1  0.01078834  0.40147163  0.66580450  1  0.005289  0.000495  3.799315  0.001  0.027227  1.8e-05  4.062187  0.0  0.02267  5e-06  4.086303  0.0  -0.025807  0.02985  5.4e-05  4.045922  0.0
C  C73  1  0.98919549  0.59853682  0.33420457  1  0.00539  -0.000494  3.79931  -0.001  0.027355  -1.9e-05  4.062124  0.0  0.022799  -6e-06  4.086245  0.0  -0.025645  0.029953  -5.4e-05  4.04591  0.0
C  C74  1  0.17290969  0.44704273  0.65779696  1  -0.056562  -0.000782  3.756513  -0.001  -0.08128  1.9e-05  4.009789  0.0  -0.077296  4.3e-05  4.028838  0.0  -0.083524  -0.08348  -4e-05  3.996405  0.0
C  C75  1  0.82707388  0.55297375  0.34221016  1  -0.056467  0.000781  3.756416  0.001  -0.081298  -2e-05  4.009732  0.0  -0.077312  -4.4e-05  4.028787  0.0  -0.083669  -0.083504  4e-05  3.996353  0.0
C  C76  1  0.13683207  0.37305551  0.46110451  1  0.347794  -0.000215  3.795893  0.0  0.331448  0.00038  4.058236  0.001  0.347663  0.000261  4.073267  0.0  0.094855  0.32052  0.000514  4.047728  0.001
C  C77  1  0.86314291  0.62694128  0.53890468  1  0.347448  0.000213  3.796607  0.0  0.331225  -0.000379  4.058825  -0.001  0.347441  -0.000263  4.073859  0.0  0.094881  0.320295  -0.000514  4.048314  -0.001
C  C78  1  0.23644723  0.08858253  0.82520798  1  0.625681  0.003498  3.909244  0.007  0.576971  -0.000566  4.209975  0.001  0.614248  -0.000234  4.204548  0.001  0.194417  0.550677  -0.000942  4.21229  0.001
C  C79  1  0.76356621  0.91143231  0.17478830  1  0.625609  -0.003499  3.909727  -0.007  0.576788  0.000566  4.210618  -0.001  0.614062  0.000235  4.205195  -0.001  0.194286  0.550486  0.000942  4.212948  -0.001
C  C80  1  0.14299436  0.02842816  0.30746284  1  -0.158225  0.003819  3.67733  0.005  -0.175617  0.000564  3.920333  0.001  -0.184359  -1.3e-05  3.941282  0.0  -0.082087  -0.170023  0.001235  3.90705  0.002
C  C81  1  0.85701679  0.97156434  0.69253028  1  -0.158283  -0.003816  3.6774  -0.005  -0.175611  -0.000564  3.920402  -0.001  -0.184354  1.3e-05  3.941349  0.0  -0.082118  -0.170021  -0.001234  3.907111  -0.002
C  C82  1  0.42849794  0.44744015  0.99415760  1  -0.156987  0.00105  3.69401  0.002  -0.199955  0.000159  3.943668  0.0  -0.202404  9.1e-05  3.955245  0.0  -0.154208  -0.197936  0.000278  3.936176  0.001
C  C83  1  0.57151111  0.55255323  0.00583648  1  -0.157143  -0.00105  3.694124  -0.002  -0.200197  -0.000158  3.943857  0.0  -0.202639  -9.2e-05  3.955428  0.0  -0.154333  -0.198182  -0.000278  3.936362  -0.001
C  C84  1  0.28133077  0.05340137  0.25701582  1  0.121729  -0.002078  3.712489  -0.003  0.094553  0.002761  3.967575  0.003  0.103832  0.002395  3.986775  0.003  0.040339  0.087552  0.00289  3.955223  0.003
C  C85  1  0.71867850  0.94658841  0.74297035  1  0.121728  0.002076  3.712517  0.003  0.094519  -0.002761  3.967671  -0.003  0.103809  -0.002395  3.986889  -0.003  0.040314  0.087512  -0.002891  3.955311  -0.003
C  C86  1  0.99847638  0.94669534  0.44944587  1  -0.168807  0.000278  3.677211  0.001  -0.209187  -1e-06  3.921238  0.0  -0.211693  -6.3e-05  3.931836  0.0  -0.163951  -0.207151  9.8e-05  3.914135  0.0
C  C87  1  0.00153709  0.05330163  0.55054604  1  -0.168471  -0.000277  3.677259  -0.001  -0.209043  1e-06  3.921367  0.0  -0.211603  6.3e-05  3.931982  0.0  -0.163807  -0.20699  -9.8e-05  3.914267  0.0
C  C88  1  0.41860151  0.96547199  0.36151864  1  0.128601  -0.003043  3.710537  -0.004  0.101432  0.001662  3.96095  0.002  0.110789  0.00115  3.980181  0.001  0.043974  0.094631  0.002207  3.948234  0.003
C  C89  1  0.58141476  0.03452678  0.63847298  1  0.128472  0.00304  3.710437  0.004  0.10138  -0.001663  3.960846  -0.002  0.110732  -0.001152  3.980086  -0.001  0.043896  0.094577  -0.002208  3.948137  -0.003
C  C90  1  0.14253233  0.96985322  0.38910030  1  0.177353  -0.00177  3.698917  -0.003  0.193654  0.001807  3.933361  0.002  0.200428  0.001714  3.954506  0.002  0.020917  0.188637  0.0017  3.919551  0.002
C  C91  1  0.85748067  0.03014196  0.61089116  1  0.177151  0.001767  3.69899  0.003  0.193475  -0.001808  3.93348  -0.002  0.200254  -0.001714  3.95464  -0.002  0.020888  0.188454  -0.0017  3.919662  -0.002
C  C92  1  0.23516814  0.43274141  0.55728297  1  -0.191364  0.000583  3.728003  0.001  -0.209011  7.6e-05  3.980059  0.0  -0.218145  4.8e-05  3.999849  0.0  -0.105399  -0.20308  0.000119  3.966567  0.0
C  C93  1  0.76481052  0.56726967  0.44272041  1  -0.191156  -0.000581  3.728112  -0.001  -0.208856  -7.5e-05  3.980141  0.0  -0.217994  -4.7e-05  3.999938  0.0  -0.105313  -0.202919  -0.000119  3.966642  0.0
S  S94  1  0.92620055  0.42674576  0.79240465  1  -0.045429  -0.000205  2.454129  0.0  -0.059095  -0.0001  2.783383  0.0  -0.062306  -4.5e-05  2.787823  0.0  0.00092  -0.055893  -0.00022  2.779958  0.0
S  S95  1  0.07379520  0.57326814  0.20760985  1  -0.045453  0.000206  2.454078  0.0  -0.059142  0.000101  2.783318  0.0  -0.062358  4.5e-05  2.787749  0.0  0.000877  -0.055932  0.000219  2.779903  0.0
N  N96  1  0.56910511  0.20655674  0.15927011  1  -0.337446  0.047918  3.367306  0.074  -0.288618  0.032206  3.669546  0.042  -0.317048  0.026649  3.683639  0.034  -0.346992  -0.26888  0.036869  3.66112  0.049
N  N97  1  0.43090020  0.79344019  0.84072478  1  -0.337104  -0.047911  3.36723  -0.074  -0.288237  -0.032204  3.669431  -0.042  -0.316662  -0.026647  3.68351  -0.034  -0.346768  -0.268493  -0.036868  3.660987  -0.049
N  N98  1  0.41855466  0.02341311  0.28358707  1  -0.344925  0.048857  3.361883  0.073  -0.294826  0.033068  3.660664  0.043  -0.326619  0.025674  3.678863  0.033  -0.349394  -0.27124  0.039951  3.647656  0.053
N  N99  1  0.58145484  0.97658205  0.71640355  1  -0.34476  -0.048851  3.361794  -0.073  -0.294719  -0.033064  3.660621  -0.043  -0.326513  -0.02567  3.678823  -0.033  -0.349258  -0.271135  -0.039949  3.647608  -0.053
O  O100  1  0.27426407  0.01671903  0.88018844  1  -0.64356  -0.049276  2.073402  -0.077  -0.599862  -0.036356  2.347363  -0.053  -0.641436  -0.027512  2.335647  -0.039  -0.324795  -0.566936  -0.0455  2.353019  -0.067
O  O101  1  0.72573839  0.98328501  0.11980032  1  -0.6435  0.049271  2.073616  0.077  -0.599775  0.036354  2.347582  0.053  -0.641347  0.027511  2.335871  0.039  -0.32478  -0.566847  0.045495  2.353245  0.067
O  O102  1  0.27817483  0.07569361  0.73000094  1  -0.590822  -0.02071  1.989415  -0.035  -0.548432  -0.018589  2.22767  -0.031  -0.578287  -0.013962  2.218997  -0.024  -0.297431  -0.525474  -0.023558  2.232086  -0.039
O  O103  1  0.72184747  0.92433291  0.26999756  1  -0.590877  0.02072  1.989692  0.035  -0.548415  0.018594  2.227955  0.031  -0.578292  0.013966  2.219331  0.024  -0.297375  -0.525453  0.023563  2.232375  0.039
O  O104  1  0.73255638  0.19653544  0.37764993  1  -0.605428  0.055368  2.051906  0.089  -0.567941  0.038262  2.327317  0.058  -0.610349  0.028494  2.316776  0.042  -0.321863  -0.534199  0.04825  2.331981  0.073
O  O105  1  0.26741299  0.80346668  0.62236281  1  -0.605429  -0.055368  2.052023  -0.089  -0.567984  -0.038263  2.327385  -0.058  -0.610394  -0.028495  2.316841  -0.042  -0.321964  -0.534248  -0.048251  2.332058  -0.073
O  O106  1  0.93075096  0.24329561  0.27619034  1  -0.607991  0.004753  1.956914  0.008  -0.563838  0.006424  2.1854  0.01  -0.590686  0.004699  2.176018  0.007  -0.305944  -0.544265  0.008479  2.191185  0.013
O  O107  1  0.06922734  0.75668245  0.72382136  1  -0.607944  -0.004746  1.957098  -0.008  -0.563829  -0.006419  2.18547  -0.01  -0.590672  -0.004694  2.176085  -0.007  -0.306058  -0.544253  -0.008473  2.191249  -0.013
O  O108  1  0.13780400  0.11821948  0.04380189  1  -0.501488  -0.002306  2.090937  -0.004  -0.456021  -0.001659  2.301479  -0.003  -0.475826  -0.000994  2.292573  -0.002  -0.350349  -0.441286  -0.002549  2.306736  -0.004
O  O109  1  0.86221111  0.88178377  0.95619470  1  -0.501534  0.002304  2.090872  0.004  -0.456096  0.001659  2.301447  0.003  -0.4759  0.000994  2.292539  0.002  -0.350312  -0.441357  0.00255  2.3067  0.004
O  O110  1  0.19967272  0.36035141  0.36449858  1  -0.519388  0.00016  2.082719  0.0  -0.472571  0.0004  2.291835  0.001  -0.494081  0.000229  2.283557  0.001  -0.348588  -0.456841  0.000648  2.296751  0.001
O  O111  1  0.80030205  0.63963107  0.63550633  1  -0.519394  -0.00016  2.082951  0.0  -0.472625  -0.000399  2.292036  -0.001  -0.494122  -0.000229  2.283727  -0.001  -0.348705  -0.456894  -0.000648  2.296955  -0.001
