# generated using pymatgen
data_CdH6C8(IN)2
_symmetry_space_group_name_H-M   'P 1'
_cell_length_a   7.80455921
_cell_length_b   7.80456128
_cell_length_c   10.70000908
_cell_angle_alpha   72.47173487
_cell_angle_beta   72.47218064
_cell_angle_gamma   60.83510414
_symmetry_Int_Tables_number   1
_chemical_formula_structural   CdH6C8(IN)2
_chemical_formula_sum   'Cd2 H12 C16 I4 N4'
_cell_volume   533.28534051
_cell_formula_units_Z   2
loop_
 _symmetry_equiv_pos_site_id
 _symmetry_equiv_pos_as_xyz
  1  'x, y, z'
loop_
 _atom_site_type_symbol
 _atom_site_label
 _atom_site_symmetry_multiplicity
 _atom_site_fract_x
 _atom_site_fract_y
 _atom_site_fract_z
 _atom_site_occupancy
 _atom_site_hle17_bader_spin_density
 _atom_site_hle17_ddec_charge
 _atom_site_hle17_ddec_spin_density
 _atom_site_hle17_ddec_sum_bond_order
 _atom_site_hle17_magmom
 _atom_site_hse06_10hf_bader_spin_density
 _atom_site_hse06_10hf_ddec_charge
 _atom_site_hse06_10hf_ddec_spin_density
 _atom_site_hse06_10hf_ddec_sum_bond_order
 _atom_site_hse06_10hf_magmom
 _atom_site_hse06_bader_spin_density
 _atom_site_hse06_ddec_charge
 _atom_site_hse06_ddec_spin_density
 _atom_site_hse06_ddec_sum_bond_order
 _atom_site_hse06_magmom
 _atom_site_pbe_bader_spin_density
 _atom_site_pbe_cm5_charge
 _atom_site_pbe_ddec_charge
 _atom_site_pbe_ddec_spin_density
 _atom_site_pbe_ddec_sum_bond_order
 _atom_site_pbe_magmom
Cd  Cd0  1  0.55917776  0.55917553  0.63657657  1  0  0.699922  0  2.060738  0  0  0.545023  0  2.505878  0  0  0.59315  0  2.473393  0  0  0.465994  0.512825  0  2.526527  0
Cd  Cd1  1  0.44082097  0.44082454  0.36342363  1  0  0.699974  0  2.060699  0  0  0.545089  0  2.505824  0  0  0.593214  0  2.473341  0  0  0.466012  0.512882  0  2.526497  0
H  H2  1  0.31168236  0.99572535  0.45708278  1  0  0.069607  0  0.997146  0  0  0.070788  0  1.077572  0  0  0.07404  0  1.074924  0  0  0.090497  0.06809  0  1.080163  0
H  H3  1  0.00428522  0.68831614  0.54291140  1  0  0.069709  0  0.997249  0  0  0.070902  0  1.07764  0  0  0.074158  0  1.074978  0  0  0.090546  0.068207  0  1.080227  0
H  H4  1  0.68831569  0.00427321  0.54291697  1  0  0.069589  0  0.997169  0  0  0.07078  0  1.077574  0  0  0.074034  0  1.074919  0  0  0.090506  0.068083  0  1.080162  0
H  H5  1  0.99571351  0.31168392  0.45708787  1  0  0.06971  0  0.997226  0  0  0.070901  0  1.07762  0  0  0.074153  0  1.074971  0  0  0.090543  0.068207  0  1.080205  0
H  H6  1  0.24206145  0.60923288  0.87928847  1  0  0.090963  0  0.977826  0  0  0.099184  0  1.048008  0  0  0.102152  0  1.046001  0  0  0.088639  0.096056  0  1.051419  0
H  H7  1  0.39077390  0.75793864  0.12071174  1  0  0.090982  0  0.977676  0  0  0.099175  0  1.047908  0  0  0.102143  0  1.045901  0  0  0.088647  0.096045  0  1.051327  0
H  H8  1  0.75793930  0.39076870  0.12071189  1  0  0.090999  0  0.9778  0  0  0.0992  0  1.047996  0  0  0.102169  0  1.045989  0  0  0.088642  0.096071  0  1.051415  0
H  H9  1  0.60922548  0.24205993  0.87928771  1  0  0.090988  0  0.977655  0  0  0.099187  0  1.047877  0  0  0.102155  0  1.045869  0  0  0.088668  0.096058  0  1.051296  0
H  H10  1  0.97407414  0.65745254  0.07817602  1  0  0.088854  0  0.980505  0  0  0.095666  0  1.049983  0  0  0.099003  0  1.048007  0  0  0.082678  0.092999  0  1.051802  0
H  H11  1  0.34255579  0.02593065  0.92181628  1  0  0.088714  0  0.980471  0  0  0.095707  0  1.049764  0  0  0.099046  0  1.047789  0  0  0.082735  0.093039  0  1.051591  0
H  H12  1  0.02592596  0.34255053  0.92182415  1  0  0.088851  0  0.980545  0  0  0.095718  0  1.049953  0  0  0.099055  0  1.04798  0  0  0.082714  0.093049  0  1.051784  0
H  H13  1  0.65744360  0.97406792  0.07818411  1  0  0.088718  0  0.980464  0  0  0.095714  0  1.049757  0  0  0.099052  0  1.047782  0  0  0.082737  0.093047  0  1.051585  0
C  C14  1  0.19484046  0.01594134  0.54633062  1  0  0.086121  0  3.704337  0  0  0.058123  0  3.96001  0  0  0.062381  0  3.975674  0  0  0.040964  0.054867  0  3.950145  0
C  C15  1  0.98406020  0.80515712  0.45367094  1  0  0.085862  0  3.704071  0  0  0.05785  0  3.959757  0  0  0.062108  0  3.975422  0  0  0.04085  0.054587  0  3.949899  0
C  C16  1  0.80515761  0.98406022  0.45366940  1  0  0.086173  0  3.704378  0  0  0.058196  0  3.960027  0  0  0.062454  0  3.975694  0  0  0.040972  0.054941  0  3.950162  0
C  C17  1  0.01593853  0.19484295  0.54632926  1  0  0.085882  0  3.704057  0  0  0.057882  0  3.959738  0  0  0.062138  0  3.9754  0  0  0.040851  0.05462  0  3.949878  0
C  C18  1  0.07781159  0.89535906  0.76197216  1  0  0.166971  0  3.743615  0  0  0.167374  0  3.978185  0  0  0.170695  0  4.00103  0  0  0.110427  0.164646  0  3.963751  0
C  C19  1  0.10463716  0.92218694  0.23803697  1  0  0.166593  0  3.743854  0  0  0.167246  0  3.978213  0  0  0.170566  0  4.001062  0  0  0.110426  0.164536  0  3.963758  0
C  C20  1  0.92218917  0.10464252  0.23802819  1  0  0.167023  0  3.743503  0  0  0.167456  0  3.978043  0  0  0.170781  0  4.000885  0  0  0.11047  0.164736  0  3.9636  0
C  C21  1  0.89536292  0.07781313  0.76196386  1  0  0.166532  0  3.743902  0  0  0.167209  0  3.978241  0  0  0.170529  0  4.001089  0  0  0.110435  0.164497  0  3.963796  0
C  C22  1  0.10264860  0.74541502  0.87795334  1  0  -0.131837  0  3.732333  0  0  -0.151932  0  3.980796  0  0  -0.156462  0  4.002993  0  0  -0.090893  -0.148758  0  3.965865  0
C  C23  1  0.25459024  0.89737179  0.12202980  1  0  -0.131788  0  3.732502  0  0  -0.151949  0  3.980988  0  0  -0.156477  0  4.003189  0  0  -0.091017  -0.14878  0  3.966057  0
C  C24  1  0.89735215  0.25458656  0.12204701  1  0  -0.131878  0  3.732341  0  0  -0.151965  0  3.980825  0  0  -0.156498  0  4.003023  0  0  -0.090907  -0.148792  0  3.965899  0
C  C25  1  0.74540915  0.10262679  0.87797152  1  0  -0.131712  0  3.732484  0  0  -0.151877  0  3.980962  0  0  -0.156404  0  4.00316  0  0  -0.09102  -0.148712  0  3.966039  0
C  C26  1  0.95268913  0.77382359  0.98898518  1  0  -0.029936  0  3.717855  0  0  -0.041876  0  3.959455  0  0  -0.043496  0  3.981077  0  0  -0.083722  -0.0407  0  3.94507  0
C  C27  1  0.22617558  0.04730163  0.01102776  1  0  -0.029783  0  3.718539  0  0  -0.041862  0  3.960106  0  0  -0.043492  0  3.981741  0  0  -0.083724  -0.040684  0  3.945723  0
C  C28  1  0.04731228  0.22617649  0.01101536  1  0  -0.029979  0  3.718003  0  0  -0.041967  0  3.959595  0  0  -0.043589  0  3.981221  0  0  -0.083757  -0.040792  0  3.94522  0
C  C29  1  0.77382383  0.95269994  0.98897103  1  0  -0.029852  0  3.718613  0  0  -0.041943  0  3.960184  0  0  -0.043574  0  3.981819  0  0  -0.083735  -0.040763  0  3.945804  0
I  I30  1  0.66060450  0.66060623  0.35130296  1  0  -0.334472  0  1.288531  0  0  -0.27355  0  1.647291  0  0  -0.293234  0  1.6266  0  0  -0.12364  -0.259144  0  1.662851  0
I  I31  1  0.33939423  0.33939384  0.64869725  1  0  -0.334474  0  1.288515  0  0  -0.273569  0  1.647299  0  0  -0.293254  0  1.626606  0  0  -0.123647  -0.259161  0  1.662862  0
I  I32  1  0.67547175  0.67547204  0.80188698  1  0  -0.431122  0  1.10454  0  0  -0.383187  0  1.431686  0  0  -0.402874  0  1.416019  0  0  -0.211521  -0.36653  0  1.442832  0
I  I33  1  0.32452900  0.32452954  0.19811150  1  0  -0.431154  0  1.104527  0  0  -0.383211  0  1.431662  0  0  -0.402896  0  1.415993  0  0  -0.211547  -0.366554  0  1.442812  0
N  N34  1  0.22498319  0.86835333  0.65064782  1  0  -0.307743  0  3.213617  0  0  -0.241402  0  3.464701  0  0  -0.256763  0  3.485112  0  0  -0.303948  -0.230708  0  3.45098  0
N  N35  1  0.13165858  0.77502287  0.34934263  1  0  -0.307587  0  3.213779  0  0  -0.241267  0  3.464719  0  0  -0.256632  0  3.485143  0  0  -0.303933  -0.23058  0  3.451002  0
N  N36  1  0.77501688  0.13164675  0.34935302  1  0  -0.307837  0  3.213682  0  0  -0.241539  0  3.464799  0  0  -0.2569  0  3.48521  0  0  -0.303999  -0.230849  0  3.451086  0
N  N37  1  0.86834149  0.22497721  0.65065727  1  0  -0.307579  0  3.21376  0  0  -0.241273  0  3.464704  0  0  -0.256634  0  3.485121  0  0  -0.303942  -0.230584  0  3.450985  0
