# generated using pymatgen
data_Al2H11C24O10F3
_symmetry_space_group_name_H-M   'P 1'
_cell_length_a   6.67077894
_cell_length_b   11.11461624
_cell_length_c   17.94740595
_cell_angle_alpha   83.66411178
_cell_angle_beta   77.49986326
_cell_angle_gamma   73.06677457
_symmetry_Int_Tables_number   1
_chemical_formula_structural   Al2H11C24O10F3
_chemical_formula_sum   'Al2 H11 C24 O10 F3'
_cell_volume   1241.21402227
_cell_formula_units_Z   1
loop_
 _symmetry_equiv_pos_site_id
 _symmetry_equiv_pos_as_xyz
  1  'x, y, z'
loop_
 _atom_site_type_symbol
 _atom_site_label
 _atom_site_symmetry_multiplicity
 _atom_site_fract_x
 _atom_site_fract_y
 _atom_site_fract_z
 _atom_site_occupancy
 _atom_site_pbe_bader_charge
 _atom_site_pbe_bader_spin_density
 _atom_site_pbe_cm5_charge
 _atom_site_pbe_ddec_charge
 _atom_site_pbe_ddec_spin_density
 _atom_site_pbe_ddec_sum_bond_order
 _atom_site_pbe_magmom
Al  Al0  1  0.51301588  0.49087568  0.50127008  1  2.505866  0  0.401878  1.643062  0  2.576216  0
Al  Al1  1  0.01405180  0.49040994  0.49902498  1  2.503394  0  0.399036  1.645584  0  2.57501  0
H  H2  1  0.22538474  0.63458975  0.44742231  1  0.625776  0  0.353114  0.434874  0  0.850528  0
H  H3  1  0.74878983  0.42098556  0.59207353  1  0.612533  0  0.348677  0.429561  0  0.861781  0
H  H4  1  0.12772857  0.10146070  0.51819839  1  0.113754  0  0.111124  0.118786  0  0.99876  0
H  H5  1  0.77838942  0.12113207  0.47074152  1  0.144777  0  0.121475  0.149619  0  0.983616  0
H  H6  1  0.25968955  0.86547977  0.51912436  1  0.115798  0  0.108404  0.115596  0  1.011961  0
H  H7  1  0.58565422  0.44314972  0.27857931  1  0.142077  0  0.115082  0.126984  0  0.996713  0
H  H8  1  0.62804210  0.45268753  0.13674274  1  0.102466  0  0.104724  0.109799  0  1.002283  0
H  H9  1  0.22021469  0.55070657  0.11672937  1  0.11461  0  0.114  0.138325  0  0.987645  0
H  H10  1  0.74108010  0.46645404  0.87857044  1  0.126396  0  0.114594  0.139412  0  0.987177  0
H  H11  1  0.40176471  0.56044095  0.72934713  1  0.128975  0  0.110269  0.117577  0  1.005329  0
H  H12  1  0.32154930  0.57080346  0.87117761  1  0.07913  0  0.10637  0.111971  0  0.997126  0
C  C13  1  0.83953604  0.48197364  0.36321460  1  1.573885  0  0.26859  0.653476  0  4.107545  0
C  C14  1  0.66044903  0.71979545  0.49768959  1  1.531853  0  0.267121  0.660689  0  4.096723  0
C  C15  1  0.17977607  0.50151110  0.63873988  1  1.570096  0  0.266833  0.659581  0  4.100807  0
C  C16  1  0.36907430  0.26517317  0.49737136  1  1.590943  0  0.272837  0.640066  0  4.094061  0
C  C17  1  0.59068910  0.86033910  0.49541604  1  0.092362  0  -0.019025  -0.153928  0  3.954581  0
C  C18  1  0.44445432  0.12504077  0.49524692  1  -0.103472  0  -0.004587  -0.001136  0  3.976613  0
C  C19  1  0.73320194  0.93539645  0.48082431  1  0.405619  0  0.110094  0.283184  0  4.028943  0
C  C20  1  0.29780664  0.05331969  0.50801719  1  0.017596  0  -0.083868  -0.112999  0  3.975579  0
C  C21  1  0.66384683  0.06566303  0.48141747  1  0.12354  0  -0.088801  -0.225849  0  3.96436  0
C  C22  1  0.37119710  0.92284720  0.50850930  1  -0.085746  0  -0.075779  -0.064239  0  3.972503  0
C  C23  1  0.87814615  0.48677071  0.27797962  1  0.0058  0  -0.018332  -0.156468  0  3.94833  0
C  C24  1  0.72551195  0.46440516  0.24199401  1  -0.02508  0  -0.071152  -0.055203  0  3.973157  0
C  C25  1  0.74825485  0.47073955  0.16314871  1  -0.008096  0  -0.087209  -0.146841  0  3.951427  0
C  C26  1  0.92748857  0.50178742  0.11634955  1  0.099974  0  0.006574  0.170379  0  4.1246  0
C  C27  1  0.08157085  0.52510456  0.15117409  1  0.020434  0  -0.095128  -0.263069  0  3.939892  0
C  C28  1  0.05534162  0.51697710  0.23016089  1  0.473127  0  0.112913  0.29066  0  4.047376  0
C  C29  1  0.95500946  0.51004694  0.03576116  1  -0.588215  0  -0.037098  -0.093173  0  4.095063  0
C  C30  1  0.98519828  0.51664296  0.96604776  1  0.221252  0  -0.040512  -0.104361  0  4.098881  0
C  C31  1  0.02651091  0.51869388  0.88536059  1  0.063014  0  0.007245  0.175101  0  4.122112  0
C  C32  1  0.88542802  0.48903431  0.84694030  1  0.066028  0  -0.093694  -0.26145  0  3.936843  0
C  C33  1  0.93309418  0.48561540  0.76797730  1  0.41396  0  0.111941  0.292268  0  4.034568  0
C  C34  1  0.11949133  0.51008915  0.72349771  1  0.026436  0  -0.021064  -0.159626  0  3.945065  0
C  C35  1  0.25664229  0.54135884  0.76306682  1  -0.00092  0  -0.074332  -0.056409  0  3.981787  0
C  C36  1  0.21259228  0.54660577  0.84190200  1  -0.031339  0  -0.0871  -0.147159  0  3.950197  0
O  O37  1  0.65981595  0.46709439  0.39771226  1  -1.252804  0  -0.230834  -0.576959  0  2.344446  0
O  O38  1  0.85135040  0.66536260  0.50545423  1  -1.248952  0  -0.238201  -0.600379  0  2.364161  0
O  O39  1  0.04269910  0.48485500  0.60445191  1  -1.252867  0  -0.237015  -0.601737  0  2.376798  0
O  O40  1  0.50294232  0.32028399  0.50734906  1  -1.255812  0  -0.230204  -0.58116  0  2.349975  0
O  O41  1  0.36624823  0.51035753  0.60740484  1  -1.256595  0  -0.238052  -0.594559  0  2.321956  0
O  O42  1  0.17720471  0.31804833  0.49026096  1  -1.255773  0  -0.22928  -0.575316  0  2.332258  0
O  O43  1  0.98383281  0.49477669  0.39526871  1  -1.246553  0  -0.231579  -0.585612  0  2.360549  0
O  O44  1  0.52087910  0.66523477  0.49191083  1  -1.256222  0  -0.236703  -0.599625  0  2.332862  0
O  O45  1  0.25600541  0.54769951  0.46714189  1  -1.425783  0  -0.448792  -0.992654  0  2.186552  0
O  O46  1  0.76777031  0.43851303  0.53719845  1  -1.415401  0  -0.449325  -0.992582  0  2.182073  0
F  F47  1  0.94819920  0.88222697  0.46389820  1  -0.632706  0  -0.090821  -0.138375  0  1.369924  0
F  F48  1  0.20897167  0.54195691  0.25961908  1  -0.630852  0  -0.085059  -0.127755  0  1.378971  0
F  F49  1  0.79001307  0.45445386  0.73538351  1  -0.638285  0  -0.089348  -0.137928  0  1.37124  0
