# generated using pymatgen
data_CdH9C11N7O5
_symmetry_space_group_name_H-M   'P 1'
_cell_length_a   6.68958312
_cell_length_b   9.79504558
_cell_length_c   12.39932004
_cell_angle_alpha   95.13314775
_cell_angle_beta   104.54644433
_cell_angle_gamma   98.13572958
_symmetry_Int_Tables_number   1
_chemical_formula_structural   CdH9C11N7O5
_chemical_formula_sum   'Cd2 H18 C22 N14 O10'
_cell_volume   771.84950452
_cell_formula_units_Z   2
loop_
 _symmetry_equiv_pos_site_id
 _symmetry_equiv_pos_as_xyz
  1  'x, y, z'
loop_
 _atom_site_type_symbol
 _atom_site_label
 _atom_site_symmetry_multiplicity
 _atom_site_fract_x
 _atom_site_fract_y
 _atom_site_fract_z
 _atom_site_occupancy
 _atom_site_hle17_bader_spin_density
 _atom_site_hle17_ddec_charge
 _atom_site_hle17_ddec_spin_density
 _atom_site_hle17_ddec_sum_bond_order
 _atom_site_hle17_magmom
 _atom_site_hse06_10hf_bader_spin_density
 _atom_site_hse06_10hf_ddec_charge
 _atom_site_hse06_10hf_ddec_spin_density
 _atom_site_hse06_10hf_ddec_sum_bond_order
 _atom_site_hse06_10hf_magmom
 _atom_site_hse06_bader_spin_density
 _atom_site_hse06_ddec_charge
 _atom_site_hse06_ddec_spin_density
 _atom_site_hse06_ddec_sum_bond_order
 _atom_site_hse06_magmom
 _atom_site_pbe_bader_spin_density
 _atom_site_pbe_cm5_charge
 _atom_site_pbe_ddec_charge
 _atom_site_pbe_ddec_spin_density
 _atom_site_pbe_ddec_sum_bond_order
 _atom_site_pbe_magmom
Cd  Cd0  1  0.24897847  0.22845880  0.49967083  1  0  1.177527  0  1.690427  0  0  1.002919  0  2.143017  0  0  1.055186  0  2.08913  0  0  0.77513  0.964485  0  2.180421  0
Cd  Cd1  1  0.75101410  0.77152522  0.50032506  1  0  1.177662  0  1.690266  0  0  1.003058  0  2.142827  0  0  1.055334  0  2.088923  0  0  0.775212  0.964583  0  2.180302  0
H  H2  1  0.00408413  0.28932211  0.24386157  1  0  0.127696  0  0.933377  0  0  0.131683  0  1.000921  0  0  0.135283  0  0.995772  0  0  0.150286  0.128848  0  1.004861  0
H  H3  1  0.99591900  0.71067636  0.75613912  1  0  0.12771  0  0.93326  0  0  0.131628  0  1.00087  0  0  0.135227  0  0.995724  0  0  0.150292  0.128793  0  1.004806  0
H  H4  1  0.83107448  0.85592367  0.12474288  1  0  0.104472  0  1.008334  0  0  0.09929  0  1.089944  0  0  0.10433  0  1.084876  0  0  0.132494  0.095844  0  1.0932  0
H  H5  1  0.16892130  0.14408122  0.87525565  1  0  0.104397  0  1.008359  0  0  0.099241  0  1.089943  0  0  0.104283  0  1.084872  0  0  0.132486  0.095796  0  1.093198  0
H  H6  1  0.56328610  0.00374857  0.76603600  1  0  0.115026  0  0.928956  0  0  0.126144  0  0.983674  0  0  0.128686  0  0.98204  0  0  0.115517  0.124466  0  0.984552  0
H  H7  1  0.43668520  0.99626210  0.23396530  1  0  0.115191  0  0.928725  0  0  0.126166  0  0.983601  0  0  0.128694  0  0.981985  0  0  0.115505  0.124491  0  0.984478  0
H  H8  1  0.70778557  0.91339178  0.94577442  1  0  0.138947  0  0.9597  0  0  0.142543  0  1.029349  0  0  0.146999  0  1.026745  0  0  0.111818  0.136403  0  1.036584  0
H  H9  1  0.29218320  0.08661576  0.05422149  1  0  0.139035  0  0.959607  0  0  0.142682  0  1.029177  0  0  0.147142  0  1.026573  0  0  0.1119  0.13653  0  1.036449  0
H  H10  1  0.57315889  0.25943005  0.76204801  1  0  0.14128  0  0.947994  0  0  0.15014  0  1.007105  0  0  0.153916  0  1.005501  0  0  0.117891  0.14742  0  1.008517  0
H  H11  1  0.42683079  0.74058020  0.23795087  1  0  0.141223  0  0.94798  0  0  0.150093  0  1.007072  0  0  0.15388  0  1.005471  0  0  0.117826  0.147373  0  1.00848  0
H  H12  1  0.80377331  0.50589332  0.13269611  1  0  0.117587  0  0.910003  0  0  0.129954  0  0.96532  0  0  0.132859  0  0.961733  0  0  0.149025  0.127829  0  0.96812  0
H  H13  1  0.19626269  0.49410135  0.86731193  1  0  0.117555  0  0.910079  0  0  0.129947  0  0.965363  0  0  0.132849  0  0.961783  0  0  0.149053  0.127848  0  0.968135  0
H  H14  1  0.64232693  0.49600925  0.77791002  1  0  0.123837  0  0.977457  0  0  0.127934  0  1.0428  0  0  0.132198  0  1.038178  0  0  0.137624  0.124947  0  1.045919  0
H  H15  1  0.35768185  0.50400273  0.22209555  1  0  0.123823  0  0.977546  0  0  0.127949  0  1.042856  0  0  0.132213  0  1.038235  0  0  0.137679  0.124965  0  1.045972  0
H  H16  1  0.97991176  0.16567116  0.63054566  1  0  0.385721  0  0.934464  0  0  0.342365  0  1.0182  0  0  0.353679  0  1.002316  0  0  0.278514  0.334347  0  1.029428  0
H  H17  1  0.02008109  0.83431387  0.36944712  1  0  0.385616  0  0.934563  0  0  0.342266  0  1.018298  0  0  0.353579  0  1.002415  0  0  0.278492  0.334248  0  1.029523  0
H  H18  1  0.84591562  0.23674108  0.53327185  1  0  0.430231  0  0.854083  0  0  0.40298  0  0.913581  0  0  0.412567  0  0.899747  0  0  0.295724  0.396023  0  0.923613  0
H  H19  1  0.15408465  0.76325321  0.46672173  1  0  0.430193  0  0.854  0  0  0.40295  0  0.913596  0  0  0.412537  0  0.899761  0  0  0.295736  0.395994  0  0.923625  0
C  C20  1  0.56797461  0.03685659  0.46405968  1  0  0.516206  0  3.951173  0  0  0.47362  0  4.2477  0  0  0.502901  0  4.241785  0  0  0.190522  0.453717  0  4.250477  0
C  C21  1  0.43203111  0.96312504  0.53593378  1  0  0.516315  0  3.951274  0  0  0.473933  0  4.247536  0  0  0.503216  0  4.241616  0  0  0.190705  0.454029  0  4.250316  0
C  C22  1  0.56469369  0.49752691  0.56215572  1  0  0.544598  0  3.898192  0  0  0.502856  0  4.186273  0  0  0.532734  0  4.180962  0  0  0.203036  0.482318  0  4.189746  0
C  C23  1  0.43529521  0.50246033  0.43783990  1  0  0.544629  0  3.898489  0  0  0.502875  0  4.186546  0  0  0.532756  0  4.181233  0  0  0.203004  0.482329  0  4.190033  0
C  C24  1  0.78688009  0.12255724  0.03998591  1  0  0.363337  0  3.79319  0  0  0.341216  0  4.053035  0  0  0.355318  0  4.069984  0  0  0.23155  0.331802  0  4.041689  0
C  C25  1  0.21314948  0.87744695  0.96001787  1  0  0.36325  0  3.792991  0  0  0.341142  0  4.052854  0  0  0.355242  0  4.069808  0  0  0.231588  0.331732  0  4.041506  0
C  C26  1  0.71333282  0.30434238  0.94285082  1  0  0.364716  0  3.795166  0  0  0.336777  0  4.06413  0  0  0.351141  0  4.081415  0  0  0.231594  0.326413  0  4.053386  0
C  C27  1  0.28669235  0.69565766  0.05714484  1  0  0.364729  0  3.795286  0  0  0.33689  0  4.064088  0  0  0.35126  0  4.081364  0  0  0.231676  0.32652  0  4.053349  0
C  C28  1  0.98113973  0.17741873  0.24080511  1  0  0.199762  0  3.604754  0  0  0.132031  0  3.878244  0  0  0.147299  0  3.887284  0  0  0.174184  0.122167  0  3.872037  0
C  C29  1  0.01885907  0.82258605  0.75918897  1  0  0.199711  0  3.604791  0  0  0.132052  0  3.878264  0  0  0.14732  0  3.887306  0  0  0.174164  0.122191  0  3.872045  0
C  C30  1  0.89332773  0.95492960  0.17951237  1  0  0.16278  0  3.611479  0  0  0.106444  0  3.881616  0  0  0.117576  0  3.89319  0  0  0.159511  0.099854  0  3.872705  0
C  C31  1  0.10666526  0.04507116  0.82048551  1  0  0.162924  0  3.611409  0  0  0.106557  0  3.881531  0  0  0.117688  0  3.89311  0  0  0.159577  0.099965  0  3.872621  0
C  C32  1  0.62850853  0.07569012  0.84331703  1  0  0.032001  0  3.712065  0  0  0.01267  0  3.967624  0  0  0.017772  0  3.986268  0  0  -0.06214  0.009603  0  3.954394  0
C  C33  1  0.37149495  0.92431983  0.15668124  1  0  0.031796  0  3.711921  0  0  0.012562  0  3.967477  0  0  0.017675  0  3.986127  0  0  -0.062073  0.009495  0  3.954246  0
C  C34  1  0.70764141  0.02454389  0.94425285  1  0  -0.217282  0  3.683897  0  0  -0.238572  0  3.940345  0  0  -0.248369  0  3.96082  0  0  -0.09152  -0.231942  0  3.930258  0
C  C35  1  0.29233079  0.97546466  0.05574762  1  0  -0.217269  0  3.683805  0  0  -0.238598  0  3.94019  0  0  -0.248396  0  3.96066  0  0  -0.091608  -0.231979  0  3.930102  0
C  C36  1  0.63166341  0.21808241  0.84048092  1  0  -0.193474  0  3.653754  0  0  -0.214198  0  3.906316  0  0  -0.224278  0  3.927002  0  0  -0.078721  -0.207722  0  3.892696  0
C  C37  1  0.36831421  0.78191865  0.15951332  1  0  -0.193439  0  3.653806  0  0  -0.214176  0  3.90626  0  0  -0.224276  0  3.926955  0  0  -0.078751  -0.207697  0  3.892639  0
C  C38  1  0.76735858  0.53992089  0.05025505  1  0  0.160334  0  3.651377  0  0  0.095094  0  3.934335  0  0  0.107624  0  3.94507  0  0  0.149609  0.086447  0  3.927165  0
C  C39  1  0.23267321  0.46008539  0.94975482  1  0  0.16027  0  3.651137  0  0  0.095016  0  3.934115  0  0  0.107547  0  3.944847  0  0  0.149587  0.086348  0  3.926937  0
C  C40  1  0.68350631  0.53452605  0.86740062  1  0  0.144817  0  3.623681  0  0  0.091799  0  3.897558  0  0  0.102145  0  3.90863  0  0  0.150068  0.085268  0  3.889312  0
C  C41  1  0.31651142  0.46548995  0.13260883  1  0  0.145152  0  3.623415  0  0  0.092087  0  3.897317  0  0  0.102434  0  3.908389  0  0  0.150243  0.085554  0  3.88907  0
N  N42  1  0.99858364  0.96810404  0.28593350  1  0  -0.213549  0  3.032736  0  0  -0.168071  0  3.295273  0  0  -0.179003  0  3.311255  0  0  -0.203772  -0.160618  0  3.28407  0
N  N43  1  0.00141206  0.03189558  0.71405983  1  0  -0.213546  0  3.03247  0  0  -0.168069  0  3.295013  0  0  -0.179005  0  3.310996  0  0  -0.203755  -0.160616  0  3.283812  0
N  N44  1  0.72184370  0.45086227  0.95161179  1  0  -0.162038  0  3.552622  0  0  -0.074196  0  3.774562  0  0  -0.092122  0  3.798226  0  0  -0.216963  -0.061184  0  3.758038  0
N  N45  1  0.27818194  0.54914413  0.04839566  1  0  -0.162037  0  3.552675  0  0  -0.074229  0  3.774625  0  0  -0.092158  0  3.798283  0  0  -0.217011  -0.061212  0  3.758101  0
N  N46  1  0.78782984  0.25843777  0.04030647  1  0  -0.430968  0  3.077405  0  0  -0.405451  0  3.351548  0  0  -0.42048  0  3.364625  0  0  -0.310243  -0.394288  0  3.342772  0
N  N47  1  0.21216775  0.74156290  0.95969201  1  0  -0.430921  0  3.077441  0  0  -0.405481  0  3.351587  0  0  -0.420507  0  3.364657  0  0  -0.310257  -0.394321  0  3.342817  0
N  N48  1  0.87801631  0.08475696  0.14724942  1  0  -0.145427  0  3.528037  0  0  -0.057865  0  3.747257  0  0  -0.07544  0  3.768415  0  0  -0.208166  -0.046338  0  3.732556  0
N  N49  1  0.12196964  0.91524604  0.85274847  1  0  -0.145382  0  3.5279  0  0  -0.057797  0  3.747077  0  0  -0.075372  0  3.768237  0  0  -0.208165  -0.046272  0  3.732374  0
N  N50  1  0.05303564  0.10853346  0.32420480  1  0  -0.262313  0  3.150308  0  0  -0.207033  0  3.444963  0  0  -0.224243  0  3.461261  0  0  -0.231512  -0.195428  0  3.433603  0
N  N51  1  0.94695242  0.89146634  0.67579155  1  0  -0.262403  0  3.150352  0  0  -0.207125  0  3.444997  0  0  -0.224335  0  3.461294  0  0  -0.231576  -0.195518  0  3.43363  0
N  N52  1  0.70400908  0.66479952  0.91171258  1  0  -0.241561  0  2.922486  0  0  -0.225477  0  3.217841  0  0  -0.233037  0  3.230278  0  0  -0.236274  -0.220358  0  3.211913  0
N  N53  1  0.29600102  0.33521667  0.08830071  1  0  -0.241892  0  2.921996  0  0  -0.225793  0  3.217398  0  0  -0.233355  0  3.229833  0  0  -0.236513  -0.220673  0  3.211478  0
N  N54  1  0.75666854  0.66774358  0.02785811  1  0  -0.25175  0  3.008712  0  0  -0.216946  0  3.300424  0  0  -0.226816  0  3.314417  0  0  -0.230203  -0.209629  0  3.292237  0
N  N55  1  0.24335965  0.33226596  0.97215795  1  0  -0.251619  0  3.008466  0  0  -0.216843  0  3.300225  0  0  -0.226712  0  3.314217  0  0  -0.230179  -0.209526  0  3.292049  0
O  O56  1  0.49832174  0.40319851  0.61484151  1  0  -0.603056  0  2.046494  0  0  -0.543168  0  2.285306  0  0  -0.56971  0  2.274455  0  0  -0.321722  -0.524501  0  2.29267  0
O  O57  1  0.50166410  0.59678359  0.38515739  1  0  -0.603142  0  2.046612  0  0  -0.543237  0  2.285424  0  0  -0.569779  0  2.274569  0  0  -0.3218  -0.524566  0  2.292796  0
O  O58  1  0.55826318  0.16337515  0.45304968  1  0  -0.61819  0  2.027544  0  0  -0.564326  0  2.260516  0  0  -0.588958  0  2.250192  0  0  -0.326401  -0.546301  0  2.266696  0
O  O59  1  0.44173154  0.83661612  0.54694296  1  0  -0.618209  0  2.02793  0  0  -0.564408  0  2.260838  0  0  -0.589037  0  2.250508  0  0  -0.326439  -0.54638  0  2.26702  0
O  O60  1  0.72751939  0.58787113  0.60366542  1  0  -0.598113  0  2.029778  0  0  -0.540413  0  2.267641  0  0  -0.566872  0  2.257577  0  0  -0.321745  -0.521458  0  2.274158  0
O  O61  1  0.27245332  0.41211859  0.39633547  1  0  -0.598023  0  2.030164  0  0  -0.540327  0  2.268025  0  0  -0.566789  0  2.257968  0  0  -0.321583  -0.521373  0  2.274546  0
O  O62  1  0.68121271  0.96645902  0.42174099  1  0  -0.597775  0  2.061131  0  0  -0.544474  0  2.317597  0  0  -0.570687  0  2.308726  0  0  -0.326364  -0.525375  0  2.322754  0
O  O63  1  0.31879559  0.03353097  0.57826063  1  0  -0.597856  0  2.060951  0  0  -0.544623  0  2.317336  0  0  -0.570842  0  2.308466  0  0  -0.326448  -0.525525  0  2.322493  0
O  O64  1  0.98629090  0.24663974  0.58603211  1  0  -0.815482  0  1.856223  0  0  -0.748398  0  2.040821  0  0  -0.770323  0  2.00681  0  0  -0.58846  -0.733165  0  2.065013  0
O  O65  1  0.01370596  0.75334835  0.41396060  1  0  -0.815334  0  1.856225  0  0  -0.748256  0  2.040882  0  0  -0.770189  0  2.006885  0  0  -0.588455  -0.733021  0  2.065069  0
