# generated using pymatgen
data_Ag5H16C25N9
_symmetry_space_group_name_H-M   'P 1'
_cell_length_a   9.19925816
_cell_length_b   11.15041952
_cell_length_c   13.60890000
_cell_angle_alpha   87.59880224
_cell_angle_beta   72.74755112
_cell_angle_gamma   85.06539786
_symmetry_Int_Tables_number   1
_chemical_formula_structural   Ag5H16C25N9
_chemical_formula_sum   'Ag10 H32 C50 N18'
_cell_volume   1327.99554726
_cell_formula_units_Z   2
loop_
 _symmetry_equiv_pos_site_id
 _symmetry_equiv_pos_as_xyz
  1  'x, y, z'
loop_
 _atom_site_type_symbol
 _atom_site_label
 _atom_site_symmetry_multiplicity
 _atom_site_fract_x
 _atom_site_fract_y
 _atom_site_fract_z
 _atom_site_occupancy
 _atom_site_hle17_bader_spin_density
 _atom_site_hle17_ddec_charge
 _atom_site_hle17_ddec_spin_density
 _atom_site_hle17_ddec_sum_bond_order
 _atom_site_hle17_magmom
 _atom_site_hse06_10hf_bader_spin_density
 _atom_site_hse06_10hf_ddec_charge
 _atom_site_hse06_10hf_ddec_spin_density
 _atom_site_hse06_10hf_ddec_sum_bond_order
 _atom_site_hse06_10hf_magmom
 _atom_site_hse06_bader_spin_density
 _atom_site_hse06_ddec_charge
 _atom_site_hse06_ddec_spin_density
 _atom_site_hse06_ddec_sum_bond_order
 _atom_site_hse06_magmom
 _atom_site_pbe_bader_charge
 _atom_site_pbe_bader_spin_density
 _atom_site_pbe_cm5_charge
 _atom_site_pbe_ddec_charge
 _atom_site_pbe_ddec_spin_density
 _atom_site_pbe_ddec_sum_bond_order
 _atom_site_pbe_magmom
Ag  Ag0  1  0.93959662  0.98820579  0.32343751  1  0  0.343005  0  2.133004  0  0  0.249338  0  2.63954  0  0  0.255492  0  2.600597  0  0.514364  0  0.400097  0.246132  0  2.665837  0
Ag  Ag1  1  0.06041248  0.01179479  0.67655756  1  0  0.343016  0  2.133046  0  0  0.249348  0  2.639588  0  0  0.255504  0  2.600641  0  0.514416  0  0.40011  0.246142  0  2.665885  0
Ag  Ag2  1  0.70865463  0.29059612  0.02222182  1  0  0.460768  0  1.708442  0  0  0.31979  0  2.202428  0  0  0.348067  0  2.151988  0  0.556921  0  0.469843  0.301224  0  2.236499  0
Ag  Ag3  1  0.29134230  0.70940086  0.97778169  1  0  0.460757  0  1.708488  0  0  0.319787  0  2.202468  0  0  0.348064  0  2.152026  0  0.556853  0  0.469859  0.301221  0  2.236539  0
Ag  Ag4  1  0.08135269  0.54292331  0.15051534  1  0  0.212999  0  2.382041  0  0  0.128703  0  2.912233  0  0  0.126812  0  2.876528  0  0.459211  0  0.339571  0.131572  0  2.935441  0
Ag  Ag5  1  0.91864415  0.45707457  0.84948890  1  0  0.212987  0  2.382071  0  0  0.128686  0  2.912278  0  0  0.126801  0  2.876564  0  0.459245  0  0.339562  0.131555  0  2.935486  0
Ag  Ag6  1  0.49332954  0.24101586  0.24279305  1  0  0.543232  0  1.734079  0  0  0.422534  0  2.217408  0  0  0.451516  0  2.166935  0  0.568167  0  0.523967  0.402512  0  2.252179  0
Ag  Ag7  1  0.50667185  0.75898203  0.75721027  1  0  0.54321  0  1.734081  0  0  0.422497  0  2.217416  0  0  0.451481  0  2.166945  0  0.568127  0  0.523937  0.402475  0  2.252184  0
Ag  Ag8  1  0.28203558  0.20856104  0.50001465  1  0  0.479497  0  1.603299  0  0  0.325066  0  2.074846  0  0  0.355973  0  2.026791  0  0.560093  0  0.476215  0.304181  0  2.10784  0
Ag  Ag9  1  0.71796519  0.79144314  0.49998343  1  0  0.479517  0  1.603257  0  0  0.325105  0  2.074814  0  0  0.356007  0  2.026755  0  0.560073  0  0.476221  0.30422  0  2.107809  0
H  H10  1  0.59343846  0.08366642  0.51554596  1  0  0.067165  0  0.953786  0  0  0.075171  0  1.02543  0  0  0.077069  0  1.02334  0  0.075029  0  0.108043  0.073704  0  1.027053  0
H  H11  1  0.40655812  0.91633417  0.48445383  1  0  0.067165  0  0.953789  0  0  0.075168  0  1.025428  0  0  0.077065  0  1.023338  0  0.075047  0  0.108046  0.0737  0  1.027052  0
H  H12  1  0.46963265  0.04513100  0.79735172  1  0  0.102205  0  0.986062  0  0  0.1124  0  1.048616  0  0  0.114466  0  1.049099  0  0.10465  0  0.101148  0.110991  0  1.048304  0
H  H13  1  0.53036156  0.95487049  0.20264998  1  0  0.102144  0  0.986049  0  0  0.112339  0  1.04862  0  0  0.114403  0  1.049102  0  0.104635  0  0.101131  0.110929  0  1.048308  0
H  H14  1  0.85549308  0.01093591  0.08259351  1  0  0.071218  0  0.945982  0  0  0.080321  0  1.010495  0  0  0.0819  0  1.009864  0  0.077767  0  0.110557  0.079195  0  1.010911  0
H  H15  1  0.14450403  0.98905928  0.91740635  1  0  0.071206  0  0.945896  0  0  0.08032  0  1.010407  0  0  0.081896  0  1.009782  0  0.077736  0  0.110552  0.079194  0  1.010821  0
H  H16  1  0.58098420  0.47311607  0.67403067  1  0  0.104814  0  0.975776  0  0  0.115998  0  1.03582  0  0  0.11804  0  1.036369  0  0.101398  0  0.103911  0.114511  0  1.035607  0
H  H17  1  0.41901474  0.52688362  0.32597015  1  0  0.104818  0  0.975783  0  0  0.115996  0  1.035825  0  0  0.118036  0  1.036372  0  0.10139  0  0.103903  0.11451  0  1.035609  0
H  H18  1  0.43456712  0.43436908  0.96076262  1  0  0.064782  0  0.956769  0  0  0.071704  0  1.032093  0  0  0.07383  0  1.029324  0  0.079706  0  0.105909  0.070018  0  1.034284  0
H  H19  1  0.56543296  0.56563061  0.03924164  1  0  0.064831  0  0.95672  0  0  0.071732  0  1.032043  0  0  0.073849  0  1.029294  0  0.079795  0  0.10592  0.070046  0  1.034234  0
H  H20  1  0.99606106  0.42813632  0.57300729  1  0  0.067047  0  0.957147  0  0  0.077807  0  1.020804  0  0  0.079449  0  1.020085  0  0.073908  0  0.11093  0.076616  0  1.021377  0
H  H21  1  0.00393753  0.57186697  0.42699420  1  0  0.067026  0  0.957167  0  0  0.077782  0  1.020835  0  0  0.079423  0  1.020118  0  0.073811  0  0.110919  0.076592  0  1.021405  0
H  H22  1  0.42160015  0.59965194  0.65104502  1  0  0.081772  0  0.994581  0  0  0.087651  0  1.074656  0  0  0.091799  0  1.070248  0  0.068812  0  0.090929  0.084664  0  1.077916  0
H  H23  1  0.57840326  0.40034865  0.34895413  1  0  0.081672  0  0.994617  0  0  0.087519  0  1.074739  0  0  0.091665  0  1.070333  0  0.068833  0  0.090882  0.084533  0  1.077998  0
H  H24  1  0.79844010  0.32263860  0.66686436  1  0  0.098161  0  0.9582  0  0  0.10813  0  1.020606  0  0  0.110173  0  1.019337  0  0.11568  0  0.106517  0.106582  0  1.021581  0
H  H25  1  0.20155771  0.67736109  0.33313374  1  0  0.098103  0  0.958243  0  0  0.108101  0  1.020619  0  0  0.110141  0  1.019355  0  0.115715  0  0.106493  0.106552  0  1.021593  0
H  H26  1  0.96544404  0.64475683  0.62426318  1  0  0.110889  0  0.949734  0  0  0.121706  0  1.006443  0  0  0.123866  0  1.007242  0  0.121164  0  0.106398  0.120213  0  1.005946  0
H  H27  1  0.03455691  0.35524556  0.37573934  1  0  0.110869  0  0.949694  0  0  0.121666  0  1.006443  0  0  0.123809  0  1.007262  0  0.12111  0  0.106387  0.120173  0  1.005946  0
H  H28  1  0.80718670  0.12371884  0.58365958  1  0  0.104294  0  0.983854  0  0  0.111517  0  1.050408  0  0  0.113829  0  1.050468  0  0.121666  0  0.100686  0.109862  0  1.050473  0
H  H29  1  0.19281338  0.87628085  0.41633880  1  0  0.104278  0  0.983902  0  0  0.111506  0  1.050449  0  0  0.113817  0  1.050509  0  0.121623  0  0.100684  0.109852  0  1.05051  0
H  H30  1  0.94429417  0.81905886  0.98507459  1  0  0.110325  0  0.951739  0  0  0.119538  0  1.012317  0  0  0.121937  0  1.012801  0  0.110381  0  0.106786  0.11781  0  1.012155  0
H  H31  1  0.05570512  0.18093722  0.01492334  1  0  0.110345  0  0.951743  0  0  0.119537  0  1.01234  0  0  0.121934  0  1.012828  0  0.110428  0  0.106797  0.117809  0  1.012178  0
H  H32  1  0.27407514  0.20313225  0.77616738  1  0  0.099099  0  0.945214  0  0  0.108562  0  1.008068  0  0  0.110307  0  1.007524  0  0.116247  0  0.104827  0.107289  0  1.008457  0
H  H33  1  0.72591898  0.79687014  0.22383724  1  0  0.099081  0  0.945215  0  0  0.108543  0  1.008068  0  0  0.110287  0  1.007524  0  0.116261  0  0.104826  0.107268  0  1.008455  0
H  H34  1  0.25361525  0.40238422  0.86184721  1  0  0.10238  0  0.993367  0  0  0.108549  0  1.063117  0  0  0.110929  0  1.06319  0  0.121437  0  0.098087  0.10683  0  1.063191  0
H  H35  1  0.74638465  0.59761727  0.13815629  1  0  0.102428  0  0.993392  0  0  0.108574  0  1.06316  0  0  0.110955  0  1.06323  0  0.121478  0  0.098106  0.106855  0  1.063235  0
H  H36  1  0.66956446  0.94283982  0.78852303  1  0  0.092103  0  0.989438  0  0  0.102027  0  1.057275  0  0  0.10479  0  1.05579  0  0.078324  0  0.095567  0.099971  0  1.058698  0
H  H37  1  0.33044104  0.05716257  0.21147050  1  0  0.092055  0  0.989458  0  0  0.101979  0  1.057323  0  0  0.104744  0  1.055834  0  0.077946  0  0.095528  0.099924  0  1.058745  0
H  H38  1  0.84720205  0.78527251  0.83498559  1  0  0.098565  0  0.942752  0  0  0.11079  0  1.000216  0  0  0.112315  0  1.000146  0  0.10687  0  0.106205  0.109787  0  1.000127  0
H  H39  1  0.15280258  0.21472718  0.16500820  1  0  0.098599  0  0.942726  0  0  0.110809  0  1.000187  0  0  0.112333  0  1.000116  0  0.106934  0  0.106214  0.109805  0  1.000099  0
H  H40  1  0.18585795  0.73106832  0.66305490  1  0  0.093533  0  0.957411  0  0  0.101299  0  1.023869  0  0  0.103213  0  1.023319  0  0.115887  0  0.102911  0.099818  0  1.024429  0
H  H41  1  0.81414414  0.26893407  0.33694518  1  0  0.093536  0  0.957378  0  0  0.101255  0  1.023867  0  0  0.103171  0  1.023316  0  0.115944  0  0.102907  0.099778  0  1.024418  0
C  C42  1  0.33434983  0.44362684  0.60397711  1  0  0.169865  0  3.754529  0  0  0.168862  0  3.989066  0  0  0.175042  0  4.010166  0  0.5277  0  0.116831  0.164777  0  3.974747  0
C  C43  1  0.66564893  0.55637465  0.39602367  1  0  0.169842  0  3.75471  0  0  0.168838  0  3.98926  0  0  0.175003  0  4.010354  0  0.52787  0  0.116848  0.164752  0  3.974941  0
C  C44  1  0.03555487  0.72332486  0.19848503  1  0  -0.080561  0  3.414936  0  0  -0.069597  0  3.768694  0  0  -0.060819  0  3.77265  0  0.764177  0  -0.045064  -0.075678  0  3.765522  0
C  C45  1  0.96444652  0.27667303  0.80151241  1  0  -0.080506  0  3.414835  0  0  -0.069542  0  3.768601  0  0  -0.060765  0  3.77256  0  0.764348  0  -0.04502  -0.075619  0  3.765419  0
C  C46  1  0.59427454  0.16949085  0.55085923  1  0  0.12774  0  3.712867  0  0  0.099248  0  3.954577  0  0  0.104311  0  3.977282  0  0.524017  0  0.047324  0.09603  0  3.93905  0
C  C47  1  0.40572222  0.83050794  0.44914132  1  0  0.127723  0  3.712827  0  0  0.099274  0  3.95451  0  0  0.104335  0  3.977216  0  0.524058  0  0.047336  0.096056  0  3.938984  0
C  C48  1  0.07806277  0.07604360  0.38869001  1  0  -0.043065  0  3.4166  0  0  -0.035638  0  3.755535  0  0  -0.024954  0  3.760648  0  0.770429  0  -0.018752  -0.043092  0  3.751863  0
C  C49  1  0.92194089  0.92396599  0.61130290  1  0  -0.043063  0  3.416641  0  0  -0.035633  0  3.755581  0  0  -0.024944  0  3.76068  0  0.770346  0  -0.018712  -0.043087  0  3.751909  0
C  C50  1  0.93214981  0.42992071  0.11227776  1  0  -0.021593  0  3.3536  0  0  -0.015484  0  3.682558  0  0  -0.003844  0  3.688276  0  0.772791  0  -0.01947  -0.023576  0  3.678539  0
C  C51  1  0.06784126  0.57007808  0.88772981  1  0  -0.0217  0  3.353861  0  0  -0.015595  0  3.682832  0  0  -0.003956  0  3.688552  0  0.772603  0  -0.019575  -0.023688  0  3.678811  0
C  C52  1  0.72906303  0.05140517  0.30418880  1  0  -0.049976  0  3.369066  0  0  -0.044071  0  3.712161  0  0  -0.031924  0  3.714176  0  0.792981  0  -0.01457  -0.052599  0  3.710909  0
C  C53  1  0.27094064  0.94859272  0.69581112  1  0  -0.049967  0  3.369152  0  0  -0.044062  0  3.712259  0  0  -0.031919  0  3.714285  0  0.793055  0  -0.01457  -0.05259  0  3.711003  0
C  C54  1  0.46175673  0.13261738  0.83163353  1  0  -0.139838  0  3.706958  0  0  -0.155997  0  3.946328  0  0  -0.163422  0  3.969738  0  0.003258  0  -0.082403  -0.151072  0  3.930446  0
C  C55  1  0.53824107  0.86738231  0.16836678  1  0  -0.139669  0  3.706894  0  0  -0.155844  0  3.946269  0  0  -0.163266  0  3.969678  0  0.003295  0  -0.082388  -0.150919  0  3.930385  0
C  C56  1  0.66654319  0.05969060  0.91264537  1  0  0.18285  0  3.752474  0  0  0.179466  0  3.989328  0  0  0.185782  0  4.010311  0  0.495634  0  0.115339  0.17521  0  3.975223  0
C  C57  1  0.33345803  0.94030908  0.08735278  1  0  0.182839  0  3.752574  0  0  0.179456  0  3.989445  0  0  0.18578  0  4.010423  0  0.495284  0  0.115392  0.175201  0  3.975338  0
C  C58  1  0.27455908  0.44428225  0.17750350  1  0  -0.020257  0  3.34087  0  0  -0.019482  0  3.679186  0  0  -0.006262  0  3.683823  0  0.790175  0  -0.014674  -0.028804  0  3.675797  0
C  C59  1  0.72543942  0.55571023  0.82249765  1  0  -0.020177  0  3.340913  0  0  -0.019404  0  3.679228  0  0  -0.006183  0  3.683868  0  0.790119  0  -0.014597  -0.028726  0  3.675838  0
C  C60  1  0.81757264  0.99292425  0.01625752  1  0  0.131115  0  3.731062  0  0  0.10445  0  3.980599  0  0  0.110572  0  3.999835  0  0.523335  0  0.046911  0.100552  0  3.967504  0
C  C61  1  0.18242770  0.00707273  0.98374236  1  0  0.131145  0  3.731071  0  0  0.104474  0  3.980637  0  0  0.110601  0  3.999866  0  0.5235  0  0.04692  0.100577  0  3.967539  0
C  C62  1  0.58723397  0.38741768  0.63713009  1  0  -0.133733  0  3.698711  0  0  -0.14982  0  3.938143  0  0  -0.157066  0  3.961318  0  0.000867  0  -0.078656  -0.145156  0  3.922685  0
C  C63  1  0.41276488  0.61258291  0.36286777  1  0  -0.133639  0  3.698568  0  0  -0.149688  0  3.937984  0  0  -0.15694  0  3.96114  0  0.000923  0  -0.078564  -0.145025  0  3.922526  0
C  C64  1  0.55615345  0.15495195  0.89170598  1  0  0.178747  0  3.725897  0  0  0.177055  0  3.955647  0  0  0.183387  0  3.977526  0  0.469399  0  0.119934  0.172866  0  3.940794  0
C  C65  1  0.44384672  0.84504684  0.10829462  1  0  0.178566  0  3.726091  0  0  0.176909  0  3.955808  0  0  0.183239  0  3.977688  0  0.469071  0  0.119886  0.17272  0  3.940955  0
C  C66  1  0.43973870  0.34881294  0.92347444  1  0  0.131992  0  3.708428  0  0  0.104046  0  3.949903  0  0  0.109357  0  3.972076  0  0.500641  0  0.04683  0.100663  0  3.934903  0
C  C67  1  0.56026270  0.65118495  0.07652741  1  0  0.131978  0  3.70815  0  0  0.104067  0  3.949623  0  0  0.109377  0  3.971794  0  0.500627  0  0.046805  0.100682  0  3.934626  0
C  C68  1  0.08868287  0.47005956  0.58983226  1  0  0.119451  0  3.747359  0  0  0.09111  0  3.999978  0  0  0.097191  0  4.01783  0  0.525884  0  0.041863  0.087105  0  3.987932  0
C  C69  1  0.91131704  0.52994193  0.41016976  1  0  0.119446  0  3.747194  0  0  0.091109  0  3.999818  0  0  0.097192  0  4.017663  0  0.525936  0  0.041848  0.087104  0  3.987772  0
C  C70  1  0.32574912  0.56355722  0.63364876  1  0  -0.12729  0  3.697023  0  0  -0.144735  0  3.94063  0  0  -0.152347  0  3.963452  0  -0.038364  0  -0.079706  -0.139675  0  3.92514  0
C  C71  1  0.67424955  0.43644516  0.36635201  1  0  -0.127157  0  3.696912  0  0  -0.144552  0  3.940465  0  0  -0.152168  0  3.963306  0  -0.038359  0  -0.079641  -0.139493  0  3.924975  0
C  C72  1  0.70945890  0.30340285  0.63314577  1  0  0.005086  0  3.700021  0  0  -0.011307  0  3.942015  0  0  -0.007937  0  3.961284  0  -0.068669  0  -0.063633  -0.013352  0  3.928959  0
C  C73  1  0.29053855  0.69660044  0.36685375  1  0  0.005071  0  3.700124  0  0  -0.011344  0  3.942102  0  0  -0.007975  0  3.961369  0  -0.068791  0  -0.063642  -0.013386  0  3.929043  0
C  C74  1  0.07154573  0.59018261  0.61866844  1  0  -0.12064  0  3.728747  0  0  -0.130897  0  3.975779  0  0  -0.137357  0  3.996747  0  -0.15491  0  -0.083614  -0.126789  0  3.961809  0
C  C75  1  0.92845391  0.40982158  0.38133428  1  0  -0.120579  0  3.728666  0  0  -0.130839  0  3.975695  0  0  -0.137282  0  3.996661  0  -0.154837  0  -0.083584  -0.126734  0  3.961727  0
C  C76  1  0.71394403  0.19237190  0.58857807  1  0  -0.101659  0  3.706307  0  0  -0.111725  0  3.947071  0  0  -0.118919  0  3.970678  0  -0.027951  0  -0.077907  -0.10709  0  3.93123  0
C  C77  1  0.28605272  0.80762689  0.41142100  1  0  -0.101625  0  3.706395  0  0  -0.11172  0  3.947177  0  0  -0.118915  0  3.970785  0  -0.027991  0  -0.077928  -0.107087  0  3.931337  0
C  C78  1  0.86656895  0.88608689  0.96222906  1  0  -0.115776  0  3.72007  0  0  -0.124608  0  3.961476  0  0  -0.131574  0  3.984076  0  -0.017033  0  -0.0813  -0.120263  0  3.946484  0
C  C79  1  0.13343271  0.11390830  0.03776695  1  0  -0.115794  0  3.72008  0  0  -0.124607  0  3.961503  0  0  -0.131574  0  3.9841  0  -0.017288  0  -0.081312  -0.120262  0  3.946511  0
C  C80  1  0.35179131  0.22100315  0.81978335  1  0  0.000316  0  3.722046  0  0  -0.016045  0  3.965768  0  0  -0.012949  0  3.985695  0  -0.062607  0  -0.066823  -0.017874  0  3.952145  0
C  C81  1  0.64820877  0.77899654  0.18021943  1  0  0.000265  0  3.722034  0  0  -0.016081  0  3.965755  0  0  -0.012984  0  3.985683  0  -0.062818  0  -0.066828  -0.017906  0  3.952127  0
C  C82  1  0.47049288  0.35876752  0.59747615  1  0  0.167673  0  3.75412  0  0  0.164768  0  3.987241  0  0  0.171099  0  4.008895  0  0.466606  0  0.117037  0.160516  0  3.972559  0
C  C83  1  0.52950834  0.64123216  0.40252347  1  0  0.167686  0  3.754039  0  0  0.164739  0  3.98723  0  0  0.171109  0  4.008823  0  0.466611  0  0.117041  0.160487  0  3.972548  0
C  C84  1  0.33965798  0.33122203  0.86715702  1  0  -0.113839  0  3.71833  0  0  -0.122645  0  3.957683  0  0  -0.130041  0  3.981265  0  -0.026166  0  -0.083292  -0.117856  0  3.9419  0
C  C85  1  0.66034447  0.66877675  0.13284679  1  0  -0.113856  0  3.718202  0  0  -0.122659  0  3.957586  0  0  -0.130053  0  3.981165  0  -0.026065  0  -0.083298  -0.11787  0  3.941804  0
C  C86  1  0.71051325  0.95499023  0.85445059  1  0  -0.146799  0  3.714639  0  0  -0.16519  0  3.964352  0  0  -0.171974  0  3.984603  0  -0.007615  0  -0.085727  -0.160856  0  3.951138  0
C  C87  1  0.28949375  0.04500856  0.14554423  1  0  -0.146618  0  3.714659  0  0  -0.165032  0  3.964375  0  0  -0.17182  0  3.984622  0  -0.00689  0  -0.085682  -0.160698  0  3.95116  0
C  C88  1  0.81209714  0.86741292  0.87937088  1  0  -0.004797  0  3.725405  0  0  -0.020826  0  3.970273  0  0  -0.01777  0  3.989708  0  -0.086978  0  -0.069821  -0.022595  0  3.957096  0
C  C89  1  0.18790740  0.13258767  0.12062510  1  0  -0.00491  0  3.725281  0  0  -0.020884  0  3.970119  0  0  -0.017841  0  3.989585  0  -0.086867  0  -0.069808  -0.022654  0  3.956943  0
C  C90  1  0.19365019  0.63765258  0.64039257  1  0  0.007922  0  3.717623  0  0  -0.007282  0  3.957726  0  0  -0.005017  0  3.979526  0  0.01768  0  -0.064819  -0.008499  0  3.942867  0
C  C91  1  0.80635191  0.36234981  0.35960898  1  0  0.00789  0  3.717458  0  0  -0.007272  0  3.957547  0  0  -0.005  0  3.979325  0  0.017637  0  -0.064842  -0.008491  0  3.942695  0
N  N92  1  0.47520882  0.25011336  0.55508349  1  0  -0.329186  0  3.319413  0  0  -0.246094  0  3.589336  0  0  -0.26577  0  3.607146  0  -1.206163  0  -0.339146  -0.23263  0  3.576856  0
N  N93  1  0.52478898  0.74988633  0.44491681  1  0  -0.329187  0  3.319275  0  0  -0.246141  0  3.589259  0  0  -0.265818  0  3.607039  0  -1.206135  0  -0.339186  -0.232677  0  3.576779  0
N  N94  1  0.21664420  0.39922328  0.58129523  1  0  -0.327246  0  3.247313  0  0  -0.261338  0  3.519496  0  0  -0.277772  0  3.534273  0  -1.186001  0  -0.333018  -0.25019  0  3.509329  0
N  N95  1  0.78335001  0.60077821  0.41870647  1  0  -0.327239  0  3.247269  0  0  -0.261331  0  3.519452  0  0  -0.277765  0  3.534233  0  -1.18622  0  -0.333012  -0.250182  0  3.509286  0
N  N96  1  0.35882359  0.37613696  0.20594393  1  0  -0.4624  0  3.369074  0  0  -0.373465  0  3.698919  0  0  -0.398823  0  3.706954  0  -1.386093  0  -0.442121  -0.356211  0  3.693131  0
N  N97  1  0.64117675  0.62386003  0.79405963  1  0  -0.462446  0  3.369088  0  0  -0.373502  0  3.698937  0  0  -0.398864  0  3.706977  0  -1.386052  0  -0.442168  -0.356249  0  3.693148  0
N  N98  1  0.72143381  0.07769024  0.99201410  1  0  -0.340338  0  3.230637  0  0  -0.279327  0  3.507886  0  0  -0.295595  0  3.522824  0  -1.217527  0  -0.333399  -0.268319  0  3.497604  0
N  N99  1  0.27856654  0.92230674  0.00798432  1  0  -0.340372  0  3.230705  0  0  -0.279376  0  3.507964  0  0  -0.295639  0  3.522883  0  -1.217627  0  -0.333474  -0.268365  0  3.497673  0
N  N100  1  0.54531176  0.26328831  0.93591888  1  0  -0.317014  0  3.30686  0  0  -0.236981  0  3.57633  0  0  -0.256758  0  3.594889  0  -1.198466  0  -0.33562  -0.223616  0  3.563483  0
N  N101  1  0.45468727  0.73671048  0.06408268  1  0  -0.316982  0  3.30696  0  0  -0.236961  0  3.576417  0  0  -0.256739  0  3.59498  0  -1.198163  0  -0.335574  -0.223594  0  3.56357  0
N  N102  1  0.01445594  0.81598885  0.24047268  1  0  -0.40305  0  3.159341  0  0  -0.336215  0  3.466695  0  0  -0.354018  0  3.477518  0  -1.392452  0  -0.4098  -0.324131  0  3.45897  0
N  N103  1  0.98554983  0.18401084  0.75952382  1  0  -0.403102  0  3.159314  0  0  -0.336267  0  3.466665  0  0  -0.35407  0  3.477492  0  -1.392664  0  -0.40985  -0.324181  0  3.458941  0
N  N104  1  0.62864163  0.10941852  0.28407930  1  0  -0.435952  0  3.359393  0  0  -0.350369  0  3.684752  0  0  -0.374492  0  3.69349  0  -1.3788  0  -0.434288  -0.334031  0  3.678453  0
N  N105  1  0.37136406  0.89058207  0.71592160  1  0  -0.435965  0  3.359444  0  0  -0.350384  0  3.684818  0  0  -0.37451  0  3.693561  0  -1.378883  0  -0.434292  -0.334046  0  3.678515  0
N  N106  1  0.84599830  0.37268702  0.08951456  1  0  -0.447916  0  3.312893  0  0  -0.359325  0  3.635713  0  0  -0.382864  0  3.64326  0  -1.372116  0  -0.431971  -0.34356  0  3.630226  0
N  N107  1  0.15399741  0.62731087  0.91048916  1  0  -0.447824  0  3.313073  0  0  -0.35923  0  3.63588  0  0  -0.38277  0  3.643433  0  -1.371771  0  -0.431874  -0.343465  0  3.630389  0
N  N108  1  0.15686003  0.12573550  0.42491852  1  0  -0.447667  0  3.341496  0  0  -0.359112  0  3.675226  0  0  -0.382214  0  3.681748  0  -1.365366  0  -0.431571  -0.343662  0  3.67053  0
N  N109  1  0.84314240  0.87427499  0.57507313  1  0  -0.447733  0  3.341573  0  0  -0.359189  0  3.675324  0  0  -0.382293  0  3.681852  0  -1.365246  0  -0.431648  -0.343741  0  3.670631  0
