# generated using pymatgen
data_FeH26C34S2(N2O)4
_symmetry_space_group_name_H-M   'P 1'
_cell_length_a   11.51300384
_cell_length_b   12.22068908
_cell_length_c   13.19310714
_cell_angle_alpha   101.67295943
_cell_angle_beta   89.96029319
_cell_angle_gamma   118.04857746
_symmetry_Int_Tables_number   1
_chemical_formula_structural   FeH26C34S2(N2O)4
_chemical_formula_sum   'Fe2 H52 C68 S4 N16 O8'
_cell_volume   1594.72508407
_cell_formula_units_Z   2
loop_
 _symmetry_equiv_pos_site_id
 _symmetry_equiv_pos_as_xyz
  1  'x, y, z'
loop_
 _atom_site_type_symbol
 _atom_site_label
 _atom_site_symmetry_multiplicity
 _atom_site_fract_x
 _atom_site_fract_y
 _atom_site_fract_z
 _atom_site_occupancy
 _atom_site_pbe_bader_spin_density
 _atom_site_pbe_cm5_charge
 _atom_site_pbe_ddec_charge
 _atom_site_pbe_ddec_spin_density
 _atom_site_pbe_ddec_sum_bond_order
 _atom_site_pbe_magmom
Fe  Fe0  1  0.73764899  0.00004518  0.74991800  1  0  0.745897  0.472857  0  3.565233  0
Fe  Fe1  1  0.26235157  0.99996034  0.25008694  1  0  0.745828  0.472803  0  3.565214  0
H  H2  1  0.68035705  0.15077314  0.93919588  1  0  0.117667  0.086012  0  1.021806  0
H  H3  1  0.52967368  0.84955273  0.56093626  1  0  0.117443  0.085453  0  1.021318  0
H  H4  1  0.31964375  0.84922764  0.06080438  1  0  0.117634  0.085985  0  1.021735  0
H  H5  1  0.47033432  0.15045377  0.43906205  1  0  0.117451  0.085453  0  1.021388  0
H  H6  1  0.78837400  0.36555165  0.05057357  1  0  0.104584  0.111271  0  1.032284  0
H  H7  1  0.42272136  0.63471497  0.44971098  1  0  0.104344  0.11021  0  1.034308  0
H  H8  1  0.21162480  0.63444340  0.94942939  1  0  0.104566  0.111256  0  1.032393  0
H  H9  1  0.57728474  0.36528771  0.55028737  1  0  0.104342  0.11023  0  1.034353  0
H  H10  1  0.11172090  0.45745391  0.85701984  1  0  0.103954  0.110456  0  1.037005  0
H  H11  1  0.65433662  0.54237524  0.64251095  1  0  0.103795  0.110039  0  1.037379  0
H  H12  1  0.88827746  0.54255068  0.14298190  1  0  0.10394  0.110445  0  1.03697  0
H  H13  1  0.34566956  0.45762934  0.35748927  1  0  0.10381  0.110027  0  1.037411  0
H  H14  1  0.98693525  0.23943350  0.75209491  1  0  0.119531  0.091202  0  1.007867  0
H  H15  1  0.74790449  0.76055043  0.74727999  1  0  0.119264  0.09105  0  1.007986  0
H  H16  1  0.01306137  0.76057109  0.24790532  1  0  0.119519  0.091169  0  1.007832  0
H  H17  1  0.25210034  0.23945319  0.25272308  1  0  0.119292  0.091083  0  1.007965  0
H  H18  1  0.94413846  0.05429383  0.91142937  1  0  0.121714  0.106955  0  1.026085  0
H  H19  1  0.89032879  0.94581956  0.58860718  1  0  0.121809  0.106698  0  1.025208  0
H  H20  1  0.05586132  0.94571360  0.08857594  1  0  0.121683  0.106914  0  1.02602  0
H  H21  1  0.10967153  0.05418025  0.41139592  1  0  0.121777  0.106624  0  1.02527  0
H  H22  1  0.16193812  0.05933886  0.91799467  1  0  0.106056  0.117962  0  1.025264  0
H  H23  1  0.10318544  0.94102043  0.58208396  1  0  0.106069  0.118267  0  1.024748  0
H  H24  1  0.83806205  0.94066762  0.08200970  1  0  0.106059  0.118  0  1.025194  0
H  H25  1  0.89681527  0.05897842  0.41792048  1  0  0.106041  0.118184  0  1.024821  0
H  H26  1  0.54809455  0.06556373  0.61436206  1  0  0.112192  0.082053  0  1.031663  0
H  H27  1  0.48250271  0.93452945  0.88562975  1  0  0.112  0.081805  0  1.032347  0
H  H28  1  0.45189968  0.93442564  0.38563224  1  0  0.112137  0.081985  0  1.031712  0
H  H29  1  0.51750749  0.06547798  0.11437405  1  0  0.112044  0.081817  0  1.032302  0
H  H30  1  0.33298079  0.06774695  0.60818673  1  0  0.106633  0.114731  0  1.02445  0
H  H31  1  0.26518995  0.93238499  0.89182277  1  0  0.106452  0.114185  0  1.024448  0
H  H32  1  0.66701620  0.93224620  0.39181359  1  0  0.106642  0.114726  0  1.024411  0
H  H33  1  0.73481851  0.06762242  0.10818481  1  0  0.106449  0.114258  0  1.024419  0
H  H34  1  0.30755068  0.70345442  0.31300307  1  0  0.093831  0.092927  0  1.060616  0
H  H35  1  0.60373012  0.29597157  0.18740819  1  0  0.094042  0.09329  0  1.061506  0
H  H36  1  0.69244024  0.29653875  0.68699272  1  0  0.093814  0.0929  0  1.060601  0
H  H37  1  0.39627273  0.70402635  0.81259076  1  0  0.09402  0.093263  0  1.061433  0
H  H38  1  0.49081542  0.71778197  0.20525390  1  0  0.10078  0.10911  0  1.026368  0
H  H39  1  0.77306408  0.28170429  0.29457006  1  0  0.10049  0.108337  0  1.02803  0
H  H40  1  0.50917031  0.28221123  0.79473582  1  0  0.100798  0.109124  0  1.026363  0
H  H41  1  0.22693923  0.71829456  0.70543211  1  0  0.100505  0.108359  0  1.028049  0
H  H42  1  0.46287390  0.52842538  0.07293392  1  0  0.097502  0.099291  0  1.02472  0
H  H43  1  0.93427737  0.47108998  0.42675013  1  0  0.097395  0.099136  0  1.024369  0
H  H44  1  0.53711046  0.47156684  0.92706320  1  0  0.097513  0.099271  0  1.024603  0
H  H45  1  0.06572620  0.52891460  0.57325085  1  0  0.097401  0.099141  0  1.024372  0
H  H46  1  0.24820146  0.32687675  0.04147302  1  0  0.104169  0.111235  0  1.041756  0
H  H47  1  0.92110958  0.67279421  0.45816664  1  0  0.103926  0.111096  0  1.041165  0
H  H48  1  0.75178976  0.67311354  0.95852676  1  0  0.104188  0.111353  0  1.041625  0
H  H49  1  0.07889370  0.32721327  0.54182731  1  0  0.103884  0.111063  0  1.041171  0
H  H50  1  0.09570251  0.50086975  0.28488793  1  0  0.106896  0.110414  0  1.038218  0
H  H51  1  0.59452152  0.49875839  0.21542512  1  0  0.107118  0.111176  0  1.038133  0
H  H52  1  0.90428744  0.49912149  0.71511431  1  0  0.106888  0.110383  0  1.038307  0
H  H53  1  0.40547684  0.50123575  0.78456630  1  0  0.107081  0.111087  0  1.038326  0
C  C54  1  0.63528536  0.85369847  0.92139552  1  0  0.13433  0.228339  0  4.331902  0
C  C55  1  0.78187182  0.14632591  0.57846996  1  0  0.134555  0.228039  0  4.331921  0
C  C56  1  0.36471528  0.14630896  0.07860979  1  0  0.134362  0.228375  0  4.332112  0
C  C57  1  0.21813235  0.85367294  0.42153447  1  0  0.134419  0.227898  0  4.332044  0
C  C58  1  0.77669315  0.22124477  0.92393735  1  0  0.048716  0.08918  0  3.914271  0
C  C59  1  0.55555384  0.77898641  0.57606499  1  0  0.049703  0.090881  0  3.914083  0
C  C60  1  0.22330417  0.77875600  0.07606518  1  0  0.048702  0.089107  0  3.914517  0
C  C61  1  0.44444916  0.22101531  0.42393772  1  0  0.04971  0.090865  0  3.914199  0
C  C62  1  0.83949324  0.34359608  0.98666891  1  0  -0.082524  -0.163898  0  3.92796  0
C  C63  1  0.49581826  0.65656593  0.51344670  1  0  -0.082873  -0.162692  0  3.930011  0
C  C64  1  0.16050890  0.65640563  0.01333456  1  0  -0.082482  -0.163855  0  3.928249  0
C  C65  1  0.50418562  0.34343579  0.48655449  1  0  -0.082889  -0.162747  0  3.930079  0
C  C66  1  0.96435670  0.43478333  0.96712377  1  0  0.00366  0.089992  0  3.972152  0
C  C67  1  0.52953359  0.56525297  0.53281034  1  0  0.003597  0.089014  0  3.974597  0
C  C68  1  0.03564363  0.56521650  0.03287555  1  0  0.003609  0.089939  0  3.972117  0
C  C69  1  0.47046990  0.43474971  0.46719028  1  0  0.003584  0.089011  0  3.97463  0
C  C70  1  0.01679104  0.39406313  0.88005987  1  0  -0.082627  -0.161765  0  3.933682  0
C  C71  1  0.62282607  0.60589676  0.61959141  1  0  -0.082302  -0.1607  0  3.935037  0
C  C72  1  0.98320629  0.60593765  0.11993963  1  0  -0.082646  -0.161803  0  3.933437  0
C  C73  1  0.37717686  0.39410307  0.38040791  1  0  -0.08235  -0.160746  0  3.935076  0
C  C74  1  0.94765263  0.27082878  0.82018376  1  0  0.045667  0.086183  0  3.915367  0
C  C75  1  0.67712623  0.72921248  0.67936931  1  0  0.04537  0.086195  0  3.913998  0
C  C76  1  0.05234517  0.72917293  0.17981970  1  0  0.045772  0.086355  0  3.915143  0
C  C77  1  0.32287756  0.27078734  0.32063152  1  0  0.045299  0.086118  0  3.914233  0
C  C78  1  0.98351844  0.03042495  0.84056436  1  0  0.036722  0.064091  0  3.904545  0
C  C79  1  0.95342420  0.96976834  0.65951644  1  0  0.037549  0.066012  0  3.902089  0
C  C80  1  0.01648442  0.96958343  0.15944037  1  0  0.036779  0.064205  0  3.904624  0
C  C81  1  0.04657628  0.03023528  0.34048815  1  0  0.037548  0.066035  0  3.902289  0
C  C82  1  0.10438151  0.03161196  0.84312676  1  0  -0.080301  -0.153935  0  3.942287  0
C  C83  1  0.07315416  0.96867789  0.65696956  1  0  -0.081357  -0.155721  0  3.942248  0
C  C84  1  0.89562426  0.96839356  0.15687819  1  0  -0.08042  -0.154232  0  3.942292  0
C  C85  1  0.92685009  0.03132284  0.34303827  1  0  -0.081325  -0.155703  0  3.942397  0
C  C86  1  0.15237984  0.00014534  0.75005171  1  0  0.009522  0.102647  0  3.973478  0
C  C87  1  0.84762680  0.99986016  0.24995551  1  0  0.009633  0.10308  0  3.972914  0
C  C88  1  0.48198437  0.03594652  0.67415044  1  0  0.040555  0.07466  0  3.961444  0
C  C89  1  0.44600898  0.96411901  0.82585789  1  0  0.040654  0.07458  0  3.963134  0
C  C90  1  0.51800664  0.96404857  0.32584495  1  0  0.040695  0.074733  0  3.961383  0
C  C91  1  0.55399317  0.03588272  0.17414179  1  0  0.040736  0.074823  0  3.963245  0
C  C92  1  0.36149558  0.03619630  0.67069366  1  0  -0.079816  -0.159835  0  3.959055  0
C  C93  1  0.32529231  0.96393378  0.82931612  1  0  -0.079619  -0.159042  0  3.957845  0
C  C94  1  0.63849628  0.96379875  0.32930779  1  0  -0.079916  -0.159837  0  3.958854  0
C  C95  1  0.67471173  0.03607175  0.17068579  1  0  -0.079667  -0.159213  0  3.957944  0
C  C96  1  0.28004587  0.00011737  0.75002390  1  0  0.012785  0.101258  0  3.973235  0
C  C97  1  0.71995232  0.99988340  0.24997863  1  0  0.012795  0.101096  0  3.973107  0
C  C98  1  0.29565032  0.62172441  0.25353889  1  0  -0.08966  -0.078269  0  3.984634  0
C  C99  1  0.67361587  0.37775980  0.24666513  1  0  -0.089441  -0.078067  0  3.98677  0
C  C100  1  0.70434685  0.37827258  0.74645610  1  0  -0.089601  -0.078255  0  3.98456  0
C  C101  1  0.32638233  0.62224098  0.75333437  1  0  -0.089464  -0.078127  0  3.986794  0
C  C102  1  0.39792450  0.62923676  0.19324818  1  0  -0.07637  -0.04712  0  3.925285  0
C  C103  1  0.76847581  0.37021341  0.30669982  1  0  -0.076942  -0.047424  0  3.925112  0
C  C104  1  0.60206665  0.37075165  0.80674518  1  0  -0.076405  -0.047133  0  3.925174  0
C  C105  1  0.23152643  0.62979024  0.69329720  1  0  -0.076949  -0.0474  0  3.925336  0
C  C106  1  0.38182014  0.52308656  0.11799282  1  0  -0.08772  -0.067664  0  3.9766  0
C  C107  1  0.85853584  0.47640897  0.38175887  1  0  -0.087614  -0.067685  0  3.975463  0
C  C108  1  0.61817244  0.47690471  0.88200108  1  0  -0.08769  -0.067586  0  3.976359  0
C  C109  1  0.14147138  0.52359945  0.61823677  1  0  -0.08759  -0.067699  0  3.97557  0
C  C110  1  0.26245052  0.41016571  0.09999808  1  0  -0.080071  -0.122134  0  3.974583  0
C  C111  1  0.85208638  0.58946452  0.39975340  1  0  -0.080217  -0.122723  0  3.973583  0
C  C112  1  0.73755130  0.58982840  0.89999939  1  0  -0.08017  -0.122338  0  3.974507  0
C  C113  1  0.14791450  0.41053816  0.60024570  1  0  -0.080184  -0.122635  0  3.973462  0
C  C114  1  0.16155185  0.40526289  0.16081927  1  0  0.068693  0.048969  0  3.969004  0
C  C115  1  0.75605545  0.59443867  0.33913539  1  0  0.068477  0.049424  0  3.968802  0
C  C116  1  0.83845255  0.59473120  0.83918275  1  0  0.068814  0.048958  0  3.969251  0
C  C117  1  0.24394962  0.40556023  0.66085693  1  0  0.068503  0.04936  0  3.96901  0
C  C118  1  0.17641128  0.50876311  0.23860698  1  0  -0.081442  -0.124632  0  3.974083  0
C  C119  1  0.66737745  0.49085285  0.26157115  1  0  -0.082045  -0.126299  0  3.977417  0
C  C120  1  0.82358792  0.49123099  0.76139504  1  0  -0.081493  -0.124551  0  3.974301  0
C  C121  1  0.33262827  0.50915081  0.73842359  1  0  -0.082005  -0.126145  0  3.977531  0
S  S122  1  0.55404519  0.75605651  0.99363442  1  0  -0.161422  -0.333589  0  2.355212  0
S  S123  1  0.79803152  0.24392065  0.50624394  1  0  -0.161015  -0.33287  0  2.356401  0
S  S124  1  0.44595654  0.24394613  0.00637529  1  0  -0.161447  -0.333615  0  2.355488  0
S  S125  1  0.20197497  0.75608109  0.49375271  1  0  -0.16097  -0.332791  0  2.356605  0
N  N126  1  0.69171220  0.92673662  0.86821427  1  0  -0.426316  -0.449159  0  3.518747  0
N  N127  1  0.76520488  0.07330094  0.63168724  1  0  -0.426754  -0.449289  0  3.521233  0
N  N128  1  0.30828646  0.07326509  0.13179072  1  0  -0.426351  -0.449228  0  3.51886  0
N  N129  1  0.23479639  0.92670077  0.36831623  1  0  -0.42668  -0.449238  0  3.52106  0
N  N130  1  0.82912335  0.18296117  0.84134792  1  0  -0.313358  -0.155301  0  3.551434  0
N  N131  1  0.64639531  0.81719799  0.65840890  1  0  -0.312933  -0.156348  0  3.55112  0
N  N132  1  0.17087120  0.81703580  0.15865162  1  0  -0.313295  -0.155234  0  3.551427  0
N  N133  1  0.35361054  0.18280943  0.34159717  1  0  -0.312876  -0.156218  0  3.551314  0
N  N134  1  0.90762223  0.00003694  0.75002751  1  0  -0.338278  -0.15533  0  3.657031  0
N  N135  1  0.09237383  0.99996478  0.24997596  1  0  -0.338223  -0.155297  0  3.65702  0
N  N136  1  0.52411711  0.00005868  0.75001588  1  0  -0.289823  -0.192218  0  3.418584  0
N  N137  1  0.47589404  0.99994021  0.24997871  1  0  -0.28993  -0.192347  0  3.418979  0
N  N138  1  0.03529425  0.28781869  0.14178411  1  0  0.051173  0.5101  0  4.202699  0
N  N139  1  0.74726011  0.71203502  0.35811654  1  0  0.051284  0.508902  0  4.203235  0
N  N140  1  0.96469593  0.71216779  0.85821646  1  0  0.051116  0.510087  0  4.20299  0
N  N141  1  0.25274167  0.28796771  0.64187197  1  0  0.051247  0.508792  0  4.203337  0
O  O142  1  0.95228123  0.27880512  0.20440485  1  0  -0.124181  -0.337889  0  2.002362  0
O  O143  1  0.67303102  0.72093619  0.29568101  1  0  -0.125215  -0.338679  0  2.003547  0
O  O144  1  0.04770976  0.72118993  0.79559735  1  0  -0.124188  -0.33794  0  2.002494  0
O  O145  1  0.32697204  0.27906561  0.70430277  1  0  -0.125165  -0.3386  0  2.003484  0
O  O146  1  0.01647468  0.20277006  0.06345505  1  0  -0.127843  -0.342601  0  1.998087  0
O  O147  1  0.81369734  0.79726468  0.43623678  1  0  -0.128432  -0.342755  0  1.998324  0
O  O148  1  0.98351906  0.79721833  0.93654513  1  0  -0.127831  -0.342532  0  1.998048  0
O  O149  1  0.18628903  0.20273328  0.56375537  1  0  -0.128482  -0.342743  0  1.998149  0
