# generated using pymatgen
data_TmH9C5(NO4)2
_symmetry_space_group_name_H-M   'P 1'
_cell_length_a   6.51461421
_cell_length_b   6.63897772
_cell_length_c   6.63907023
_cell_angle_alpha   64.51099823
_cell_angle_beta   73.26485417
_cell_angle_gamma   73.26509050
_symmetry_Int_Tables_number   1
_chemical_formula_structural   TmH9C5(NO4)2
_chemical_formula_sum   'Tm1 H9 C5 N2 O8'
_cell_volume   243.70662949
_cell_formula_units_Z   1
loop_
 _symmetry_equiv_pos_site_id
 _symmetry_equiv_pos_as_xyz
  1  'x, y, z'
loop_
 _atom_site_type_symbol
 _atom_site_label
 _atom_site_symmetry_multiplicity
 _atom_site_fract_x
 _atom_site_fract_y
 _atom_site_fract_z
 _atom_site_occupancy
 _atom_site_hle17_bader_spin_density
 _atom_site_hle17_ddec_charge
 _atom_site_hle17_ddec_spin_density
 _atom_site_hle17_ddec_sum_bond_order
 _atom_site_hle17_magmom
 _atom_site_hse06_10hf_bader_spin_density
 _atom_site_hse06_10hf_ddec_charge
 _atom_site_hse06_10hf_ddec_spin_density
 _atom_site_hse06_10hf_ddec_sum_bond_order
 _atom_site_hse06_10hf_magmom
 _atom_site_hse06_bader_spin_density
 _atom_site_hse06_ddec_charge
 _atom_site_hse06_ddec_spin_density
 _atom_site_hse06_ddec_sum_bond_order
 _atom_site_hse06_magmom
 _atom_site_pbe_bader_spin_density
 _atom_site_pbe_cm5_charge
 _atom_site_pbe_ddec_charge
 _atom_site_pbe_ddec_spin_density
 _atom_site_pbe_ddec_sum_bond_order
 _atom_site_pbe_magmom
Tm  Tm0  1  0.00001443  0.45635859  0.54362878  1  0  2.143613  0  1.795922  0  0  2.070799  0  2.129946  0  0  2.131914  0  2.081354  0  0  1.504432  2.03414  0  2.157851  0
H  H1  1  0.40218107  0.25173007  0.18749208  1  0  0.355518  0  0.883967  0  0  0.332723  0  0.950224  0  0  0.342742  0  0.941129  0  0  0.310301  0.325801  0  0.956398  0
H  H2  1  0.59780303  0.81249576  0.74829808  1  0  0.355609  0  0.883831  0  0  0.332801  0  0.950086  0  0  0.342817  0  0.941002  0  0  0.31029  0.325882  0  0.956261  0
H  H3  1  0.53115469  0.95857089  0.28586185  1  0  0.34298  0  0.892161  0  0  0.321883  0  0.958314  0  0  0.330565  0  0.951136  0  0  0.309579  0.31599  0  0.963017  0
H  H4  1  0.46881962  0.71414901  0.04145274  1  0  0.343463  0  0.892291  0  0  0.322333  0  0.958427  0  0  0.33102  0  0.951221  0  0  0.309763  0.316438  0  0.963139  0
H  H5  1  0.82533818  0.00466133  0.00961573  1  0  0.015585  0  0.926597  0  0  0.023887  0  1.001995  0  0  0.025463  0  0.996151  0  0  0.126429  0.022756  0  1.005904  0
H  H6  1  0.17464787  0.99036452  0.99533769  1  0  0.015613  0  0.926625  0  0  0.023856  0  1.002073  0  0  0.025429  0  0.996232  0  0  0.126436  0.022731  0  1.005983  0
H  H7  1  0.86955269  0.61148454  0.01625120  1  0  0.003221  0  0.938335  0  0  0.011091  0  1.013712  0  0  0.012822  0  1.007078  0  0  0.113257  0.009936  0  1.018084  0
H  H8  1  0.13043106  0.98376557  0.38848387  1  0  0.003168  0  0.938195  0  0  0.011005  0  1.013652  0  0  0.012713  0  1.007041  0  0  0.113188  0.009848  0  1.018022  0
H  H9  1  0.49998577  0.37124259  0.62876841  1  0  0.022004  0  0.964267  0  0  0.028803  0  1.034774  0  0  0.030382  0  1.028303  0  0  0.119513  0.027764  0  1.038989  0
C  C10  1  0.70586102  0.16018701  0.01203989  1  0  0.579094  0  3.810744  0  0  0.507132  0  4.112481  0  0  0.538443  0  4.108772  0  0  0.191861  0.486796  0  4.114266  0
C  C11  1  0.29414721  0.98795229  0.83983862  1  0  0.579307  0  3.810342  0  0  0.507392  0  4.112029  0  0  0.538703  0  4.108321  0  0  0.191877  0.48705  0  4.113826  0
C  C12  1  0.03702595  0.50850558  0.01493168  1  0  0.642237  0  3.865644  0  0  0.572429  0  4.179073  0  0  0.608562  0  4.16765  0  0  0.158992  0.549383  0  4.185663  0
C  C13  1  0.96295300  0.98506419  0.49148780  1  0  0.642105  0  3.86578  0  0  0.57229  0  4.179243  0  0  0.608436  0  4.167814  0  0  0.159006  0.549249  0  4.185827  0
C  C14  1  0.50000590  0.52608200  0.47391564  1  0  0.632679  0  3.834704  0  0  0.561808  0  4.145842  0  0  0.599578  0  4.131266  0  0  0.153612  0.537398  0  4.155003  0
N  N15  1  0.53285139  0.12314309  0.17551885  1  0  -0.602096  0  3.117522  0  0  -0.559696  0  3.363213  0  0  -0.580552  0  3.354086  0  0  -0.547396  -0.544754  0  3.367851  0
N  N16  1  0.46712981  0.82446084  0.87690669  1  0  -0.602798  0  3.117937  0  0  -0.560376  0  3.36366  0  0  -0.581224  0  3.35451  0  0  -0.547578  -0.545436  0  3.368318  0
O  O17  1  0.33137241  0.60422950  0.38330716  1  0  -0.691548  0  2.072247  0  0  -0.642531  0  2.330716  0  0  -0.671937  0  2.320983  0  0  -0.382145  -0.623845  0  2.337676  0
O  O18  1  0.66866096  0.61667384  0.39577010  1  0  -0.691382  0  2.072094  0  0  -0.642382  0  2.330556  0  0  -0.671799  0  2.320839  0  0  -0.38202  -0.623698  0  2.337516  0
O  O19  1  0.12422164  0.46446123  0.18254038  1  0  -0.71513  0  2.126467  0  0  -0.665925  0  2.39053  0  0  -0.696389  0  2.38191  0  0  -0.411571  -0.647087  0  2.396821  0
O  O20  1  0.87579322  0.81743536  0.53555188  1  0  -0.715078  0  2.126615  0  0  -0.665842  0  2.390651  0  0  -0.696301  0  2.382024  0  0  -0.411583  -0.647005  0  2.396938  0
O  O21  1  0.73849775  0.35311780  0.86801125  1  0  -0.654175  0  2.112988  0  0  -0.605179  0  2.372752  0  0  -0.633893  0  2.366968  0  0  -0.386661  -0.587402  0  2.377149  0
O  O22  1  0.26154914  0.13201679  0.64687925  1  0  -0.654334  0  2.112516  0  0  -0.605343  0  2.372269  0  0  -0.634049  0  2.366461  0  0  -0.386641  -0.587549  0  2.376632  0
O  O23  1  0.12848167  0.44280614  0.85362807  1  0  -0.674863  0  2.128713  0  0  -0.626506  0  2.382604  0  0  -0.656751  0  2.377499  0  0  -0.371484  -0.607223  0  2.385662  0
O  O24  1  0.87150656  0.14637486  0.55716875  1  0  -0.674793  0  2.128869  0  0  -0.62645  0  2.382813  0  0  -0.656692  0  2.377699  0  0  -0.371457  -0.60716  0  2.385855  0
