# generated using pymatgen
data_ErH21(C9O2)3
_symmetry_space_group_name_H-M   'P 1'
_cell_length_a   7.84594050
_cell_length_b   11.31607797
_cell_length_c   13.04800000
_cell_angle_alpha   94.23520801
_cell_angle_beta   90.00000000
_cell_angle_gamma   90.00000000
_symmetry_Int_Tables_number   1
_chemical_formula_structural   ErH21(C9O2)3
_chemical_formula_sum   'Er2 H42 C54 O12'
_cell_volume   1155.30680922
_cell_formula_units_Z   2
loop_
 _symmetry_equiv_pos_site_id
 _symmetry_equiv_pos_as_xyz
  1  'x, y, z'
loop_
 _atom_site_type_symbol
 _atom_site_label
 _atom_site_symmetry_multiplicity
 _atom_site_fract_x
 _atom_site_fract_y
 _atom_site_fract_z
 _atom_site_occupancy
 _atom_site_hle17_bader_spin_density
 _atom_site_hle17_ddec_charge
 _atom_site_hle17_ddec_spin_density
 _atom_site_hle17_ddec_sum_bond_order
 _atom_site_hle17_magmom
 _atom_site_hse06_10hf_bader_spin_density
 _atom_site_hse06_10hf_ddec_charge
 _atom_site_hse06_10hf_ddec_spin_density
 _atom_site_hse06_10hf_ddec_sum_bond_order
 _atom_site_hse06_10hf_magmom
 _atom_site_hse06_bader_spin_density
 _atom_site_hse06_ddec_charge
 _atom_site_hse06_ddec_spin_density
 _atom_site_hse06_ddec_sum_bond_order
 _atom_site_hse06_magmom
 _atom_site_pbe_bader_charge
 _atom_site_pbe_bader_spin_density
 _atom_site_pbe_cm5_charge
 _atom_site_pbe_ddec_charge
 _atom_site_pbe_ddec_spin_density
 _atom_site_pbe_ddec_sum_bond_order
 _atom_site_pbe_magmom
Er  Er0  1  0.45711282  0.95894376  0.52566394  1  0  2.256797  0  1.721852  0  0  2.12411  0  2.197386  0  0  2.24902  0  2.015868  0  2.163527  0  1.535931  2.08559  0  2.233723  0
Er  Er1  1  0.95710769  0.04105740  0.47433644  1  0  2.25682  0  1.721867  0  0  2.124085  0  2.197471  0  0  2.249035  0  2.015879  0  2.163518  0  1.535937  2.085584  0  2.233775  0
H  H2  1  0.78234215  0.62581207  0.60878630  1  0  0.114054  0  0.954156  0  0  0.125061  0  1.0117  0  0  0.129086  0  1.010447  0  0.059279  0  0.103542  0.122324  0  1.012423  0
H  H3  1  0.28234856  0.37419174  0.39121502  1  0  0.114025  0  0.954152  0  0  0.12502  0  1.011728  0  0  0.129049  0  1.010453  0  0.058477  0  0.103497  0.122283  0  1.012446  0
H  H4  1  0.12028641  0.76473856  0.60286290  1  0  0.102424  0  0.961254  0  0  0.109128  0  1.029198  0  0  0.112186  0  1.02661  0  0.135429  0  0.111627  0.10691  0  1.031118  0
H  H5  1  0.62028765  0.23525905  0.39713036  1  0  0.102465  0  0.961232  0  0  0.109188  0  1.029132  0  0  0.112254  0  1.026536  0  0.135312  0  0.111641  0.106972  0  1.03105  0
H  H6  1  0.91637452  0.45784395  0.59697670  1  0  0.088924  0  0.957108  0  0  0.100786  0  1.017203  0  0  0.103526  0  1.016212  0  0.023123  0  0.100204  0.098883  0  1.017864  0
H  H7  1  0.41638348  0.54215543  0.40302893  1  0  0.08902  0  0.956956  0  0  0.100859  0  1.017077  0  0  0.103597  0  1.016083  0  0.023298  0  0.100238  0.098956  0  1.017736  0
H  H8  1  0.07898097  0.27763853  0.62748955  1  0  0.092245  0  0.988578  0  0  0.095986  0  1.061716  0  0  0.099466  0  1.059932  0  0.098396  0  0.100291  0.093273  0  1.063748  0
H  H9  1  0.57899368  0.72236173  0.37251691  1  0  0.092259  0  0.98856  0  0  0.096016  0  1.061686  0  0  0.099498  0  1.059899  0  0.098475  0  0.100338  0.0933  0  1.063725  0
H  H10  1  0.38833330  0.28918554  0.66577817  1  0  0.090613  0  0.980424  0  0  0.100144  0  1.042876  0  0  0.102343  0  1.042917  0  0.078196  0  0.098046  0.098736  0  1.042538  0
H  H11  1  0.88834474  0.71081207  0.33422582  1  0  0.090584  0  0.980446  0  0  0.100116  0  1.04289  0  0  0.102311  0  1.042944  0  0.078114  0  0.098045  0.098708  0  1.042554  0
H  H12  1  0.53835738  0.48405975  0.67001768  1  0  0.080269  0  0.953841  0  0  0.09304  0  1.011432  0  0  0.095705  0  1.010752  0  0.029121  0  0.096067  0.091171  0  1.011986  0
H  H13  1  0.03836506  0.51593520  0.32998537  1  0  0.080186  0  0.953879  0  0  0.092964  0  1.011476  0  0  0.095621  0  1.010803  0  0.029033  0  0.096042  0.091091  0  1.012036  0
H  H14  1  0.37488813  0.66684643  0.63800324  1  0  0.105335  0  0.954816  0  0  0.114022  0  1.019404  0  0  0.117651  0  1.016891  0  0.113264  0  0.108061  0.111415  0  1.021374  0
H  H15  1  0.87489065  0.33314941  0.36199527  1  0  0.10528  0  0.95484  0  0  0.113948  0  1.01946  0  0  0.117581  0  1.016941  0  0.113183  0  0.108023  0.111339  0  1.021428  0
H  H16  1  0.54892846  0.87291498  0.24139550  1  0  0.117062  0  0.956341  0  0  0.12601  0  1.018658  0  0  0.129631  0  1.018212  0  0.083979  0  0.106534  0.123576  0  1.018749  0
H  H17  1  0.04891574  0.12708884  0.75860811  1  0  0.117061  0  0.956303  0  0  0.126013  0  1.018606  0  0  0.129634  0  1.01816  0  0.083826  0  0.106551  0.123581  0  1.018693  0
H  H18  1  0.78156596  0.04790355  0.13651312  1  0  0.098166  0  0.948024  0  0  0.109176  0  1.009325  0  0  0.111659  0  1.007751  0  0.139581  0  0.108162  0.107402  0  1.010272  0
H  H19  1  0.28155579  0.95209495  0.86348402  1  0  0.098161  0  0.948023  0  0  0.10917  0  1.009332  0  0  0.111662  0  1.007748  0  0.139642  0  0.108164  0.107403  0  1.010253  0
H  H20  1  0.50922894  0.76760870  0.09532064  1  0  0.086867  0  0.959401  0  0  0.098708  0  1.020123  0  0  0.100865  0  1.01998  0  0.059517  0  0.099042  0.097178  0  1.020299  0
H  H21  1  0.00922515  0.23239246  0.90467821  1  0  0.086882  0  0.959319  0  0  0.098719  0  1.020066  0  0  0.100881  0  1.019907  0  0.059491  0  0.099043  0.097185  0  1.020246  0
H  H22  1  0.44715990  0.67236163  0.92330743  1  0  0.08712  0  0.978672  0  0  0.097287  0  1.040297  0  0  0.099157  0  1.041956  0  0.089807  0  0.096484  0.095996  0  1.039129  0
H  H23  1  0.94715477  0.32763421  0.07669491  1  0  0.087184  0  0.978622  0  0  0.097281  0  1.040324  0  0  0.09915  0  1.04198  0  0.089674  0  0.096473  0.09599  0  1.039155  0
H  H24  1  0.55051781  0.76377712  0.76618804  1  0  0.09917  0  0.958885  0  0  0.108871  0  1.019477  0  0  0.111875  0  1.017489  0  0.094552  0  0.104944  0.106852  0  1.020671  0
H  H25  1  0.05051275  0.23621694  0.23381265  1  0  0.099174  0  0.958929  0  0  0.108881  0  1.019502  0  0  0.111891  0  1.017508  0  0.094557  0  0.104945  0.106869  0  1.020689  0
H  H26  1  0.71800570  0.94991687  0.78297818  1  0  0.101591  0  0.948161  0  0  0.111316  0  1.006868  0  0  0.11388  0  1.006704  0  0.098446  0  0.105837  0.109649  0  1.006789  0
H  H27  1  0.21801083  0.05007897  0.21702109  1  0  0.101586  0  0.948133  0  0  0.111302  0  1.006858  0  0  0.113867  0  1.006691  0  0.098345  0  0.105833  0.109633  0  1.006779  0
H  H28  1  0.78052593  0.04673830  0.95658027  1  0  0.086036  0  0.978502  0  0  0.094627  0  1.04603  0  0  0.096331  0  1.047475  0  0.076857  0  0.09628  0.093417  0  1.045086  0
H  H29  1  0.28052851  0.95326197  0.04341545  1  0  0.086096  0  0.978419  0  0  0.094677  0  1.045945  0  0  0.096383  0  1.047391  0  0.076854  0  0.096294  0.093465  0  1.045005  0
H  H30  1  0.31652037  0.68258743  0.26271084  1  0  0.112473  0  0.967499  0  0  0.121417  0  1.031212  0  0  0.125363  0  1.029992  0  0.074264  0  0.10275  0.118773  0  1.031826  0
H  H31  1  0.81652161  0.31741106  0.73729244  1  0  0.112503  0  0.967394  0  0  0.121437  0  1.031128  0  0  0.125383  0  1.029905  0  0.074272  0  0.102771  0.118785  0  1.03175  0
H  H32  1  0.01945337  0.83056828  0.18522526  1  0  0.097382  0  0.93809  0  0  0.107577  0  1.000906  0  0  0.110028  0  0.999087  0  0.109722  0  0.10871  0.105851  0  1.002022  0
H  H33  1  0.51944952  0.16943288  0.81477282  1  0  0.097353  0  0.938137  0  0  0.107562  0  1.000929  0  0  0.110015  0  0.999108  0  0.109711  0  0.108715  0.10584  0  1.00204  0
H  H34  1  0.26734972  0.54203138  0.13832678  1  0  0.087458  0  0.957501  0  0  0.099766  0  1.017032  0  0  0.102391  0  1.016136  0  0.06487  0  0.099975  0.097887  0  1.017759  0
H  H35  1  0.76734714  0.45796978  0.86167207  1  0  0.087447  0  0.957497  0  0  0.099755  0  1.017029  0  0  0.102377  0  1.016135  0  0.064861  0  0.09996  0.097876  0  1.017756  0
H  H36  1  0.27731411  0.42726490  0.97048567  1  0  0.087549  0  0.972647  0  0  0.097096  0  1.034488  0  0  0.098898  0  1.035808  0  0.094946  0  0.096703  0.095801  0  1.033664  0
H  H37  1  0.77732427  0.57273182  0.02951596  1  0  0.087544  0  0.972608  0  0  0.097093  0  1.034459  0  0  0.098898  0  1.035776  0  0.09492  0  0.096712  0.095799  0  1.033635  0
H  H38  1  0.13513230  0.50324155  0.81797831  1  0  0.078729  0  0.997858  0  0  0.086696  0  1.064207  0  0  0.087952  0  1.066122  0  0.086245  0  0.093457  0.085766  0  1.06295  0
H  H39  1  0.63515266  0.49675162  0.18202539  1  0  0.078767  0  0.997781  0  0  0.086738  0  1.064126  0  0  0.087994  0  1.066042  0  0.08619  0  0.093515  0.085808  0  1.062871  0
H  H40  1  0.98185297  0.69712154  0.83489863  1  0  0.089874  0  0.957195  0  0  0.099539  0  1.017096  0  0  0.101382  0  1.018293  0  0.073559  0  0.098506  0.09824  0  1.016328  0
H  H41  1  0.48186575  0.30287429  0.16510371  1  0  0.089891  0  0.957195  0  0  0.099549  0  1.01711  0  0  0.101386  0  1.018313  0  0.07354  0  0.098495  0.098249  0  1.016341  0
H  H42  1  0.97193319  0.81306744  0.00367364  1  0  0.087209  0  0.974165  0  0  0.095794  0  1.040784  0  0  0.097419  0  1.042147  0  0.077935  0  0.097108  0.094621  0  1.039897  0
H  H43  1  0.47192813  0.18693637  0.99632691  1  0  0.08727  0  0.974075  0  0  0.095807  0  1.040749  0  0  0.097435  0  1.042095  0  0.077894  0  0.097087  0.09463  0  1.039879  0
C  C44  1  0.79287499  0.81489285  0.58965276  1  0  0.761573  0  3.86724  0  0  0.720301  0  4.150784  0  0  0.757998  0  4.143297  0  1.490436  0  0.226212  0.694985  0  4.158385  0
C  C45  1  0.29287757  0.18511451  0.41034955  1  0  0.761539  0  3.867313  0  0  0.720262  0  4.150866  0  0  0.757952  0  4.143394  0  1.490278  0  0.226209  0.694947  0  4.158469  0
C  C46  1  0.87100329  0.69934836  0.60389165  1  0  -0.26627  0  3.68067  0  0  -0.27659  0  3.930522  0  0  -0.290778  0  3.94655  0  -0.006348  0  -0.104443  -0.266848  0  3.918315  0
C  C47  1  0.37100970  0.30065723  0.39610595  1  0  -0.26619  0  3.680649  0  0  -0.276529  0  3.930532  0  0  -0.290707  0  3.946565  0  -0.005445  0  -0.10444  -0.266787  0  3.918322  0
C  C48  1  0.04183565  0.68557011  0.60730485  1  0  -0.008608  0  3.700038  0  0  -0.034104  0  3.945304  0  0  -0.027011  0  3.960726  0  -0.104028  0  -0.062125  -0.038214  0  3.933717  0
C  C49  1  0.54184071  0.31442927  0.39269312  1  0  -0.008775  0  3.700079  0  0  -0.034274  0  3.945322  0  0  -0.027192  0  3.96075  0  -0.104073  0  -0.06214  -0.038383  0  3.93373  0
C  C50  1  0.13349451  0.57592096  0.61894539  1  0  0.060389  0  3.831245  0  0  0.083413  0  4.058662  0  0  0.080569  0  4.083995  0  0.073037  0  -0.014426  0.085196  0  4.04137  0
C  C51  1  0.63349958  0.42407665  0.38105476  1  0  0.060507  0  3.83131  0  0  0.083567  0  4.058652  0  0  0.080718  0  4.08399  0  0.073061  0  -0.014383  0.085346  0  4.041361  0
C  C52  1  0.05182170  0.46472732  0.61519884  1  0  -0.106961  0  3.726237  0  0  -0.124329  0  3.965938  0  0  -0.126008  0  3.986854  0  -0.09213  0  -0.085909  -0.122914  0  3.951438  0
C  C53  1  0.55182804  0.53527029  0.38480514  1  0  -0.107175  0  3.726269  0  0  -0.124536  0  3.965993  0  0  -0.126216  0  3.986914  0  -0.09219  0  -0.086026  -0.12312  0  3.951488  0
C  C54  1  0.14338498  0.36301690  0.63241299  1  0  -0.07771  0  3.779653  0  0  -0.09014  0  4.031407  0  0  -0.092855  0  4.051723  0  -0.045831  0  -0.093348  -0.088179  0  4.017219  0
C  C55  1  0.64339259  0.63698159  0.36759105  1  0  -0.077686  0  3.779666  0  0  -0.090123  0  4.03141  0  0  -0.092837  0  4.051725  0  -0.04578  0  -0.093352  -0.08816  0  4.017219  0
C  C56  1  0.31821169  0.36978330  0.65316442  1  0  -0.060427  0  3.747574  0  0  -0.073229  0  3.989933  0  0  -0.074733  0  4.012602  0  -0.081106  0  -0.088293  -0.071858  0  3.973913  0
C  C57  1  0.81822058  0.63021342  0.34683797  1  0  -0.0605  0  3.747619  0  0  -0.073293  0  3.989998  0  0  -0.074805  0  4.012666  0  -0.080838  0  -0.088357  -0.071922  0  3.973974  0
C  C58  1  0.40169053  0.47894597  0.65494383  1  0  -0.073431  0  3.790578  0  0  -0.08415  0  4.037678  0  0  -0.087508  0  4.061103  0  -0.040291  0  -0.092046  -0.081876  0  4.021627  0
C  C59  1  0.90169687  0.52105076  0.34505857  1  0  -0.073309  0  3.790414  0  0  -0.084055  0  4.037537  0  0  -0.087401  0  4.060963  0  -0.040525  0  -0.092  -0.08178  0  4.021482  0
C  C60  1  0.31055933  0.58123236  0.63726841  1  0  -0.102557  0  3.698881  0  0  -0.121554  0  3.940696  0  0  -0.123312  0  3.961421  0  -0.065292  0  -0.079216  -0.120053  0  3.926347  0
C  C61  1  0.81056439  0.41876348  0.36272857  1  0  -0.102459  0  3.698746  0  0  -0.121448  0  3.940563  0  0  -0.123204  0  3.961281  0  -0.065353  0  -0.079164  -0.119943  0  3.926214  0
C  C62  1  0.71408393  0.00145766  0.32457987  1  0  0.7147  0  3.896537  0  0  0.672806  0  4.180879  0  0  0.708777  0  4.178884  0  1.48089  0  0.198842  0.647627  0  4.188262  0
C  C63  1  0.21407631  0.99854615  0.67541838  1  0  0.714495  0  3.896939  0  0  0.672631  0  4.181211  0  0  0.708602  0  4.179208  0  1.481051  0  0.198848  0.647452  0  4.188582  0
C  C64  1  0.63908591  0.94441851  0.23112617  1  0  -0.241641  0  3.644777  0  0  -0.253296  0  3.894167  0  0  -0.267557  0  3.909947  0  -0.027803  0  -0.098703  -0.243458  0  3.88244  0
C  C65  1  0.13907319  0.05558619  0.76887443  1  0  -0.241664  0  3.644754  0  0  -0.253323  0  3.894117  0  0  -0.267591  0  3.9099  0  -0.028101  0  -0.098741  -0.243484  0  3.882388  0
C  C66  1  0.69186862  0.97386864  0.13759779  1  0  -0.003526  0  3.687877  0  0  -0.025953  0  3.929185  0  0  -0.017358  0  3.943827  0  -0.13905  0  -0.056259  -0.031124  0  3.918499  0
C  C67  1  0.19186100  0.02613162  0.86240024  1  0  -0.003481  0  3.687845  0  0  -0.025911  0  3.929125  0  0  -0.017326  0  3.943765  0  -0.138919  0  -0.056277  -0.031078  0  3.918449  0
C  C68  1  0.64762153  0.91543447  0.03820526  1  0  0.048029  0  3.84584  0  0  0.068544  0  4.077127  0  0  0.065086  0  4.101748  0  0.025018  0  -0.017779  0.070726  0  4.060429  0
C  C69  1  0.14761901  0.08456314  0.96179336  1  0  0.048083  0  3.845976  0  0  0.068595  0  4.077274  0  0  0.065132  0  4.101906  0  0.024978  0  -0.017722  0.07077  0  4.060583  0
C  C70  1  0.55390428  0.80886459  0.02731234  1  0  -0.104747  0  3.729815  0  0  -0.121023  0  3.96988  0  0  -0.122322  0  3.991048  0  -0.05972  0  -0.085027  -0.11993  0  3.955527  0
C  C71  1  0.05390176  0.19113391  0.97268787  1  0  -0.104815  0  3.729753  0  0  -0.121089  0  3.969796  0  0  -0.122389  0  3.990976  0  -0.059673  0  -0.085052  -0.119992  0  3.955446  0
C  C72  1  0.51975031  0.75465365  0.93035462  1  0  -0.077862  0  3.779617  0  0  -0.088935  0  4.025501  0  0  -0.092221  0  4.048141  0  -0.173253  0  -0.090816  -0.08671  0  4.010086  0
C  C73  1  0.01974524  0.24534485  0.06964712  1  0  -0.077823  0  3.779542  0  0  -0.088831  0  4.025399  0  0  -0.092114  0  4.048048  0  -0.173192  0  -0.090779  -0.086604  0  4.009984  0
C  C74  1  0.57877446  0.80511985  0.84223574  1  0  -0.041954  0  3.718506  0  0  -0.058389  0  3.966988  0  0  -0.0583  0  3.985762  0  -0.006299  0  -0.078834  -0.058143  0  3.953756  0
C  C75  1  0.07877195  0.19487865  0.15776371  1  0  -0.04205  0  3.718526  0  0  -0.058482  0  3.96698  0  0  -0.058396  0  3.98575  0  -0.006196  0  -0.078855  -0.05824  0  3.953744  0
C  C76  1  0.67247642  0.91039689  0.85155367  1  0  -0.066673  0  3.746842  0  0  -0.079535  0  3.997444  0  0  -0.082621  0  4.01925  0  -0.033817  0  -0.087443  -0.077439  0  3.982329  0
C  C77  1  0.17248155  0.08960161  0.14844271  1  0  -0.066573  0  3.746655  0  0  -0.079422  0  3.997241  0  0  -0.082504  0  4.019046  0  -0.033617  0  -0.08742  -0.077322  0  3.982122  0
C  C78  1  0.70669029  0.96487189  0.94862410  1  0  -0.110023  0  3.725481  0  0  -0.127507  0  3.969321  0  0  -0.129766  0  3.992321  0  -0.050348  0  -0.085839  -0.12576  0  3.953742  0
C  C79  1  0.20668905  0.03512484  0.05137216  1  0  -0.110208  0  3.725596  0  0  -0.127674  0  3.969426  0  0  -0.129941  0  3.992425  0  -0.050445  0  -0.085902  -0.125925  0  3.953849  0
C  C80  1  0.19902394  0.82751737  0.35690677  1  0  0.763544  0  3.870722  0  0  0.722542  0  4.155424  0  0  0.760412  0  4.147321  0  1.52564  0  0.230118  0.697019  0  4.163842  0
C  C81  1  0.69903283  0.17248733  0.64309153  1  0  0.763724  0  3.870463  0  0  0.722747  0  4.155134  0  0  0.760603  0  4.147039  0  1.525352  0  0.230294  0.697215  0  4.163554  0
C  C82  1  0.21449946  0.74809017  0.26280135  1  0  -0.273518  0  3.67009  0  0  -0.285233  0  3.920906  0  0  -0.299338  0  3.934806  0  -0.045777  0  -0.105852  -0.275568  0  3.910035  0
C  C83  1  0.71450070  0.25191009  0.73720051  1  0  -0.273501  0  3.669968  0  0  -0.285225  0  3.920797  0  0  -0.299309  0  3.934684  0  -0.046055  0  -0.105867  -0.275542  0  3.909925  0
C  C84  1  0.11370976  0.75904525  0.17995533  1  0  -0.007043  0  3.708069  0  0  -0.030323  0  3.954223  0  0  -0.021641  0  3.968629  0  -0.08447  0  -0.059578  -0.035558  0  3.943548  0
C  C85  1  0.61370463  0.24095413  0.82004494  1  0  -0.00711  0  3.708139  0  0  -0.030398  0  3.954324  0  0  -0.021719  0  3.968724  0  -0.084181  0  -0.059608  -0.035634  0  3.943648  0
C  C86  1  0.12030298  0.68694359  0.08293083  1  0  0.053287  0  3.831054  0  0  0.074281  0  4.061739  0  0  0.070647  0  4.087191  0  -0.006597  0  -0.015726  0.07656  0  4.044457  0
C  C87  1  0.62029530  0.31305579  0.91706713  1  0  0.053457  0  3.831029  0  0  0.074447  0  4.0617  0  0  0.070817  0  4.087154  0  -0.006271  0  -0.015637  0.076723  0  4.044425  0
C  C88  1  0.20569746  0.57710304  0.07206678  1  0  -0.101815  0  3.719933  0  0  -0.119821  0  3.959513  0  0  -0.121533  0  3.980927  0  -0.074564  0  -0.083729  -0.118467  0  3.944923  0
C  C89  1  0.70569360  0.42289634  0.92793119  1  0  -0.101865  0  3.719912  0  0  -0.119861  0  3.959476  0  0  -0.121573  0  3.980896  0  -0.074489  0  -0.083726  -0.118505  0  3.944891  0
C  C90  1  0.21054327  0.51190336  0.97750074  1  0  -0.072647  0  3.776381  0  0  -0.083082  0  4.022034  0  0  -0.085556  0  4.043433  0  -0.054666  0  -0.090011  -0.081444  0  4.007486  0
C  C91  1  0.71054961  0.48809425  0.02249864  1  0  -0.072638  0  3.776352  0  0  -0.083076  0  4.022013  0  0  -0.085555  0  4.043413  0  -0.054676  0  -0.090027  -0.081438  0  4.007466  0
C  C92  1  0.13010550  0.55461514  0.89189869  1  0  -0.060943  0  3.746408  0  0  -0.074517  0  3.991626  0  0  -0.075249  0  4.012461  0  -0.073115  0  -0.08574  -0.073819  0  3.977367  0
C  C93  1  0.63011694  0.44538070  0.10810212  1  0  -0.060944  0  3.746362  0  0  -0.074524  0  3.991592  0  0  -0.075251  0  4.012421  0  -0.072567  0  -0.085766  -0.073828  0  3.977336  0
C  C94  1  0.04432738  0.66314069  0.90134958  1  0  -0.067529  0  3.761012  0  0  -0.077701  0  4.005212  0  0  -0.080462  0  4.026656  0  -0.018113  0  -0.088502  -0.075895  0  3.99064  0
C  C95  1  0.54432480  0.33686135  0.09864932  1  0  -0.067548  0  3.761085  0  0  -0.077707  0  4.005274  0  0  -0.080465  0  4.026716  0  -0.018549  0  -0.088499  -0.075897  0  3.990701  0
C  C96  1  0.03879204  0.72836075  0.99618133  1  0  -0.102036  0  3.715803  0  0  -0.120174  0  3.958046  0  0  -0.121839  0  3.979967  0  -0.087506  0  -0.083144  -0.118846  0  3.943185  0
C  C97  1  0.53878818  0.27164129  0.00381834  1  0  -0.102158  0  3.715773  0  0  -0.120257  0  3.958025  0  0  -0.121916  0  3.979948  0  -0.087899  0  -0.083156  -0.118933  0  3.943167  0
O  O98  1  0.63010929  0.81964067  0.58446252  1  0  -0.739651  0  1.989692  0  0  -0.688688  0  2.248913  0  0  -0.725487  0  2.232799  0  -1.171869  0  -0.406655  -0.670731  0  2.25758  0
O  O99  1  0.13011315  0.18036580  0.41553437  1  0  -0.739653  0  1.989808  0  0  -0.688685  0  2.24903  0  0  -0.725496  0  2.23294  0  -1.171826  0  -0.406646  -0.670719  0  2.25768  0
O  O100  1  0.88832308  0.90600706  0.58332570  1  0  -0.794716  0  2.07828  0  0  -0.740014  0  2.338056  0  0  -0.779679  0  2.325699  0  -1.208046  0  -0.427932  -0.720764  0  2.345266  0
O  O101  1  0.38831291  0.09399498  0.41667474  1  0  -0.794664  0  2.078217  0  0  -0.739951  0  2.337961  0  0  -0.77962  0  2.325624  0  -1.207912  0  -0.427893  -0.720716  0  2.345189  0
O  O102  1  0.68478470  0.95635009  0.41251882  1  0  -0.866769  0  2.115885  0  0  -0.808315  0  2.388064  0  0  -0.854514  0  2.374392  0  -1.21032  0  -0.454998  -0.789343  0  2.397368  0
O  O103  1  0.18477708  0.04365815  0.58748125  1  0  -0.86675  0  2.116017  0  0  -0.808312  0  2.388186  0  0  -0.854501  0  2.374499  0  -1.210189  0  -0.455028  -0.789365  0  2.397537  0
O  O104  1  0.81889864  0.08699199  0.32325640  1  0  -0.682065  0  1.963157  0  0  -0.633767  0  2.205519  0  0  -0.667015  0  2.195094  0  -1.157101  0  -0.371226  -0.616732  0  2.211964  0
O  O105  1  0.31889740  0.91301802  0.67674225  1  0  -0.681901  0  1.963269  0  0  -0.633633  0  2.205614  0  0  -0.666865  0  2.195192  0  -1.157113  0  -0.371193  -0.616593  0  2.212064  0
O  O106  1  0.31897005  0.82424848  0.42358199  1  0  -0.770477  0  2.003744  0  0  -0.718977  0  2.266081  0  0  -0.757495  0  2.248421  0  -1.197548  0  -0.419981  -0.701084  0  2.276396  0
O  O107  1  0.81897766  0.17575710  0.57641561  1  0  -0.770604  0  2.003578  0  0  -0.719107  0  2.265918  0  0  -0.757633  0  2.248255  0  -1.197733  0  -0.420085  -0.701214  0  2.276236  0
O  O108  1  0.07047721  0.89613836  0.36871524  1  0  -0.767236  0  2.046878  0  0  -0.718643  0  2.312571  0  0  -0.757106  0  2.297421  0  -1.204601  0  -0.409844  -0.700612  0  2.32117  0
O  O109  1  0.57048865  0.10386811  0.63127552  1  0  -0.767354  0  2.046916  0  0  -0.718758  0  2.312566  0  0  -0.757229  0  2.297456  0  -1.204128  0  -0.40994  -0.700725  0  2.321174  0
