# generated using pymatgen
data_CoH15C21(NO2)2
_symmetry_space_group_name_H-M   'P 1'
_cell_length_a   14.65095252
_cell_length_b   15.33444819
_cell_length_c   15.33410217
_cell_angle_alpha   103.48698878
_cell_angle_beta   112.59175448
_cell_angle_gamma   112.55925868
_symmetry_Int_Tables_number   1
_chemical_formula_structural   CoH15C21(NO2)2
_chemical_formula_sum   'Co4 H60 C84 N8 O16'
_cell_volume   2628.40215081
_cell_formula_units_Z   4
loop_
 _symmetry_equiv_pos_site_id
 _symmetry_equiv_pos_as_xyz
  1  'x, y, z'
loop_
 _atom_site_type_symbol
 _atom_site_label
 _atom_site_symmetry_multiplicity
 _atom_site_fract_x
 _atom_site_fract_y
 _atom_site_fract_z
 _atom_site_occupancy
 _atom_site_pbe_bader_charge
 _atom_site_pbe_bader_spin_density
 _atom_site_pbe_cm5_charge
 _atom_site_pbe_ddec_charge
 _atom_site_pbe_ddec_spin_density
 _atom_site_pbe_ddec_sum_bond_order
 _atom_site_pbe_magmom
Co  Co0  1  0.34888605  0.82719279  0.27014006  1  1.202768  2.603418  0.609771  0.750481  2.817507  2.756925  2.585
Co  Co1  1  0.15110911  0.72998906  0.17289529  1  1.157178  2.597209  0.609856  0.750748  2.816843  2.757928  2.585
Co  Co2  1  0.65112724  0.17282408  0.72988042  1  1.20307  2.603407  0.6097  0.750367  2.817468  2.757236  2.585
Co  Co3  1  0.84885508  0.26998558  0.82709680  1  1.156962  2.597246  0.609695  0.750327  2.816973  2.758592  2.585
H  H4  1  0.42722966  0.15502546  0.34586477  1  0.07194  0.000397  0.106382  0.10958  0.000192  1.020403  0.0
H  H5  1  0.07279484  0.65419006  0.84496536  1  0.072371  0.000396  0.106384  0.109615  0.000192  1.020661  0.0
H  H6  1  0.57276368  0.84496147  0.65414460  1  0.071843  0.000397  0.106355  0.109585  0.000192  1.020426  0.0
H  H7  1  0.92717911  0.34581084  0.15501960  1  0.072675  0.000396  0.106293  0.109568  0.000192  1.020631  0.0
H  H8  1  0.42556351  0.31251705  0.33587094  1  0.086118  0.000166  0.103575  0.102863  8.7e-05  1.005558  0.0
H  H9  1  0.07453684  0.66432138  0.68753471  1  0.086127  0.000167  0.103576  0.1027  8.8e-05  1.006569  0.0
H  H10  1  0.57444256  0.68747662  0.66412760  1  0.086131  0.000166  0.103575  0.102911  8.7e-05  1.005468  0.0
H  H11  1  0.92547767  0.33569496  0.31246719  1  0.086388  0.000167  0.103564  0.102728  8.8e-05  1.006319  0.0
H  H12  1  0.06252789  0.11447702  0.08800047  1  0.052614  0.000181  0.100119  0.099485  8.6e-05  1.025723  0.0
H  H13  1  0.43758183  0.91200268  0.88580305  1  0.053607  0.000181  0.10014  0.099436  8.6e-05  1.025657  0.0
H  H14  1  0.93749173  0.88554963  0.91200745  1  0.052617  0.000181  0.100164  0.09956  8.6e-05  1.025589  0.0
H  H15  1  0.56241186  0.08798613  0.11419055  1  0.053556  0.000181  0.100106  0.099343  8.6e-05  1.025627  0.0
H  H16  1  0.06468033  0.95807931  0.10351897  1  0.094437  0.000321  0.102919  0.105087  0.000171  1.014377  0.0
H  H17  1  0.43537482  0.89633947  0.04215510  1  0.08392  0.000321  0.103023  0.104936  0.000172  1.014218  0.0
H  H18  1  0.93529826  0.04192200  0.89647954  1  0.094542  0.000321  0.102863  0.105001  0.000171  1.014422  0.0
H  H19  1  0.56461978  0.10366530  0.95785265  1  0.081306  0.000321  0.103039  0.104911  0.000172  1.014261  0.0
H  H20  1  0.42941334  0.41362672  0.26564558  1  0.076015  0.000173  0.101931  0.101  8.9e-05  1.009537  0.0
H  H21  1  0.07062712  0.73449137  0.58645983  1  0.046148  0.000176  0.101745  0.100983  8.9e-05  1.009783  0.0
H  H22  1  0.57058471  0.58635939  0.73436144  1  0.075974  0.000173  0.101899  0.101018  8.9e-05  1.009366  0.0
H  H23  1  0.92937807  0.26550341  0.41355037  1  0.046334  0.000176  0.101721  0.100956  8.9e-05  1.009703  0.0
H  H24  1  0.43201281  0.57641239  0.26748182  1  0.075117  0.000411  0.107313  0.114141  0.000221  0.988007  0.0
H  H25  1  0.06802480  0.73280014  0.42371004  1  0.07435  0.00041  0.107392  0.114262  0.00022  0.988337  0.0
H  H26  1  0.56799535  0.42357321  0.73250600  1  0.074746  0.000411  0.107335  0.114201  0.000221  0.988134  0.0
H  H27  1  0.93197601  0.26718820  0.57629326  1  0.074317  0.000409  0.107401  0.114281  0.00022  0.988256  0.0
H  H28  1  0.06166143  0.41156528  0.12755920  1  0.088246  0.000444  0.104434  0.108021  0.000242  1.035196  0.0
H  H29  1  0.43841011  0.87272380  0.58871710  1  0.091151  0.000443  0.104601  0.10832  0.000241  1.035543  0.0
H  H30  1  0.93834040  0.58842365  0.87246417  1  0.088473  0.000444  0.104574  0.108332  0.000242  1.035148  0.0
H  H31  1  0.56159940  0.12729166  0.41130886  1  0.090918  0.000443  0.104627  0.10835  0.000241  1.035417  0.0
H  H32  1  0.05836856  0.25181134  0.13475636  1  0.088132  0.000189  0.102459  0.103154  9e-05  1.011359  0.0
H  H33  1  0.44169397  0.86543911  0.74844006  1  0.08607  0.000189  0.102294  0.102885  9e-05  1.012009  0.0
H  H34  1  0.94166554  0.74819548  0.86531663  1  0.088605  0.000189  0.102267  0.102963  9e-05  1.011209  0.0
H  H35  1  0.55829776  0.13456584  0.25157449  1  0.086192  0.000189  0.102314  0.102931  9e-05  1.011901  0.0
H  H36  1  0.54334702  0.86982460  0.22018017  1  0.124232  0.000734  0.117043  0.091666  0.000202  1.010165  0.001
H  H37  1  0.95652514  0.78000285  0.12992452  1  0.120203  0.000738  0.117171  0.0915  0.000202  1.009936  0.001
H  H38  1  0.45665096  0.13015353  0.77981991  1  0.124198  0.000732  0.117047  0.091703  0.000201  1.010072  0.001
H  H39  1  0.04350559  0.22000693  0.87008980  1  0.120227  0.000736  0.117176  0.091507  0.000201  1.009889  0.001
H  H40  1  0.75613427  0.93132467  0.31395860  1  0.112763  0.000394  0.109142  0.112232  0.000161  1.0116  0.0
H  H41  1  0.74377446  0.68620727  0.06842095  1  0.111657  0.000394  0.109378  0.112476  0.000161  1.011101  0.0
H  H42  1  0.24385744  0.06864635  0.68603832  1  0.112327  0.000394  0.109067  0.112123  0.000161  1.011395  0.0
H  H43  1  0.25624718  0.31381899  0.93157330  1  0.112031  0.000394  0.109389  0.112475  0.000161  1.011203  0.0
H  H44  1  0.75817593  0.00051941  0.60423674  1  0.057114  0.00046  0.107165  0.112397  6.1e-05  1.041392  0.0
H  H45  1  0.74206331  0.39611356  0.99950401  1  0.062632  0.000458  0.107045  0.112539  6.1e-05  1.041828  0.0
H  H46  1  0.24183028  0.99949143  0.39576419  1  0.057089  0.000459  0.10717  0.112384  6.1e-05  1.041447  0.0
H  H47  1  0.25792439  0.60388810  0.00047770  1  0.062649  0.000457  0.107155  0.112653  6.1e-05  1.041707  0.0
H  H48  1  0.54772329  0.93445729  0.49942152  1  0.130937  0.000874  0.119688  0.098313  0.000261  1.017119  0.001
H  H49  1  0.95248323  0.50095404  0.06562475  1  0.135612  0.000875  0.119419  0.098277  0.000263  1.017695  0.001
H  H50  1  0.45229059  0.06556444  0.50057868  1  0.13063  0.000874  0.119714  0.098348  0.000261  1.017022  0.001
H  H51  1  0.04751076  0.49903790  0.93436962  1  0.135712  0.000874  0.119465  0.098303  0.000262  1.017648  0.001
H  H52  1  0.06162948  0.10951686  0.67634542  1  0.080268  1.1e-05  0.098148  0.141501  -1e-06  1.024663  0.0
H  H53  1  0.43861492  0.32374273  0.89046560  1  0.08268  1.1e-05  0.098177  0.141476  -1e-06  1.024366  0.0
H  H54  1  0.93838745  0.89047506  0.32364436  1  0.0806  1.1e-05  0.098239  0.141577  -1e-06  1.024665  0.0
H  H55  1  0.56139494  0.67626665  0.10951093  1  0.082514  1.1e-05  0.09818  0.141545  -1e-06  1.024267  0.0
H  H56  1  0.94257783  0.02596483  0.68316619  1  0.060054  -6e-06  0.100793  0.149262  -2e-05  0.983436  0.0
H  H57  1  0.55782579  0.31710787  0.97411585  1  0.060008  -6e-06  0.100717  0.14921  -2e-05  0.984214  0.0
H  H58  1  0.05741340  0.97401441  0.31681925  1  0.059617  -6e-06  0.100804  0.149277  -2e-05  0.983622  0.0
H  H59  1  0.44217251  0.68290850  0.02586246  1  0.059401  -6e-06  0.100728  0.149215  -2e-05  0.98417  0.0
H  H60  1  0.94955949  0.13706871  0.66443686  1  0.082625  0.000111  0.098554  0.15077  5.8e-05  1.014028  0.0
H  H61  1  0.55070742  0.33578568  0.86294763  1  0.08074  0.000112  0.098677  0.150844  5.8e-05  1.013756  0.0
H  H62  1  0.05044524  0.86293559  0.33555300  1  0.082511  0.000111  0.098596  0.150759  5.8e-05  1.01419  0.0
H  H63  1  0.44930363  0.66423104  0.13704068  1  0.081054  0.000112  0.098563  0.150694  5.8e-05  1.013885  0.0
C  C64  1  0.24827055  0.95135038  0.23073772  1  1.513434  -0.009289  0.211007  0.552809  -0.013208  4.188637  -0.009
C  C65  1  0.25172140  0.76918145  0.04873458  1  1.511881  -0.009288  0.210391  0.552278  -0.013213  4.187713  -0.009
C  C66  1  0.75170745  0.04864858  0.76926006  1  1.512546  -0.009288  0.211033  0.55279  -0.013215  4.188197  -0.009
C  C67  1  0.74825617  0.23081929  0.95124385  1  1.512475  -0.009291  0.210242  0.551966  -0.013225  4.18815  -0.009
C  C68  1  0.24639021  0.04627802  0.22491152  1  -0.023193  0.00976  -0.023179  -0.044217  0.005299  4.004259  0.008
C  C69  1  0.25365138  0.77503524  0.95383522  1  -0.01713  0.009757  -0.022379  -0.042757  0.005302  4.00296  0.008
C  C70  1  0.75359751  0.95372378  0.77510219  1  -0.023283  0.009758  -0.023306  -0.044257  0.005299  4.004278  0.008
C  C71  1  0.74632251  0.22496163  0.04614429  1  -0.016378  0.00976  -0.022264  -0.042445  0.005305  4.002267  0.008
C  C72  1  0.34763406  0.14677147  0.28948369  1  -0.05633  -0.001616  -0.083582  -0.085529  -0.002025  3.983133  -0.001
C  C73  1  0.15240606  0.71057027  0.85333062  1  -0.059064  -0.001618  -0.083804  -0.085989  -0.002028  3.983939  -0.001
C  C74  1  0.65236674  0.85323514  0.71053326  1  -0.056166  -0.001616  -0.083517  -0.085486  -0.002025  3.982771  -0.001
C  C75  1  0.84757720  0.28942622  0.14666141  1  -0.059685  -0.001618  -0.083803  -0.086105  -0.002029  3.983524  -0.001
C  C76  1  0.34629563  0.23503779  0.28262098  1  -0.024448  0.001099  -0.08831  -0.127883  0.000414  3.972885  0.001
C  C77  1  0.15373719  0.71747016  0.76507226  1  -0.021581  0.001099  -0.088389  -0.127962  0.000414  3.974051  0.001
C  C78  1  0.65371045  0.76496118  0.71739956  1  -0.024235  0.001098  -0.08836  -0.128066  0.000414  3.97245  0.001
C  C79  1  0.84625198  0.28253284  0.23492920  1  -0.025051  0.001099  -0.088377  -0.128044  0.000415  3.973645  0.001
C  C80  1  0.24431033  0.22598023  0.20987599  1  -0.028698  -0.002812  -0.002142  0.074998  -0.003096  3.990328  -0.002
C  C81  1  0.25568947  0.79013694  0.77412103  1  -0.014344  -0.002807  -0.001912  0.075419  -0.003096  3.98922  -0.002
C  C82  1  0.75570218  0.77402484  0.79013974  1  -0.028216  -0.002809  -0.002019  0.07517  -0.003093  3.990677  -0.002
C  C83  1  0.74430341  0.20985826  0.22587883  1  -0.011141  -0.002808  -0.001997  0.075407  -0.003097  3.989613  -0.002
C  C84  1  0.14284186  0.12453078  0.14569064  1  -0.023564  0.000916  -0.09108  -0.135333  0.000317  3.981715  0.001
C  C85  1  0.35721391  0.85431308  0.87561911  1  -0.032922  0.000914  -0.091361  -0.135508  0.000318  3.980521  0.001
C  C86  1  0.85716337  0.87548361  0.85432568  1  -0.024041  0.000915  -0.091103  -0.135285  0.000317  3.981571  0.001
C  C87  1  0.64278782  0.14569252  0.12438949  1  -0.032533  0.000915  -0.091351  -0.135385  0.000318  3.980703  0.001
C  C88  1  0.14353260  0.03625081  0.15353522  1  -0.063625  -0.001691  -0.087947  -0.095113  -0.002076  3.996826  -0.001
C  C89  1  0.35651819  0.84640677  0.96391341  1  -0.054883  -0.001688  -0.088102  -0.095266  -0.002074  3.9961  -0.001
C  C90  1  0.85645120  0.96374539  0.84647391  1  -0.06383  -0.001687  -0.087873  -0.095039  -0.002071  3.997065  -0.001
C  C91  1  0.64346524  0.15359004  0.03608984  1  -0.05257  -0.001689  -0.088133  -0.095354  -0.002076  3.995828  -0.001
C  C92  1  0.24431089  0.32055154  0.20307607  1  -0.070286  -0.002744  -0.005671  0.068349  -0.003008  3.99768  -0.002
C  C93  1  0.25565473  0.79703262  0.67955069  1  -0.08041  -0.002743  -0.005877  0.06843  -0.003007  3.998324  -0.002
C  C94  1  0.75570807  0.67947011  0.79694752  1  -0.062564  -0.002741  -0.005714  0.068087  -0.003008  3.997955  -0.002
C  C95  1  0.74435672  0.20297052  0.32045184  1  -0.08118  -0.00274  -0.005787  0.068437  -0.003003  3.998325  -0.002
C  C96  1  0.34863565  0.41317326  0.23830927  1  -0.011493  0.001024  -0.091302  -0.136378  0.000364  3.984998  0.001
C  C97  1  0.15137512  0.76186954  0.58689582  1  0.016591  0.00102  -0.091147  -0.136447  0.000364  3.985527  0.001
C  C98  1  0.65138748  0.58683221  0.76169154  1  -0.021684  0.001021  -0.091266  -0.136449  0.000365  3.984549  0.001
C  C99  1  0.84861824  0.23813824  0.41310885  1  0.016861  0.001018  -0.091215  -0.136592  0.000363  3.98586  0.001
C  C100  1  0.35062599  0.50449248  0.23821587  1  -0.082258  -0.001577  -0.083046  -0.085384  -0.001982  3.978344  -0.001
C  C101  1  0.14943311  0.76200553  0.49559978  1  -0.082132  -0.001582  -0.082902  -0.085611  -0.001987  3.979195  -0.001
C  C102  1  0.64937002  0.49549389  0.76177350  1  -0.079104  -0.001577  -0.083002  -0.08537  -0.001982  3.977573  -0.001
C  C103  1  0.85056342  0.23798831  0.50440637  1  -0.082078  -0.00158  -0.082919  -0.085625  -0.001986  3.978902  -0.001
C  C104  1  0.24742489  0.50518608  0.20041234  1  0.044895  0.010036  -0.018766  -0.035635  0.005483  3.98204  0.008
C  C105  1  0.25263693  0.79986757  0.49499617  1  0.015805  0.010045  -0.019187  -0.035502  0.00548  3.981314  0.008
C  C106  1  0.75258416  0.49479719  0.79957531  1  0.044507  0.01004  -0.018867  -0.035722  0.005486  3.981466  0.008
C  C107  1  0.74736168  0.20014427  0.50501392  1  0.015963  0.01005  -0.019108  -0.035399  0.005484  3.980818  0.008
C  C108  1  0.14242766  0.41226896  0.16065880  1  -0.031826  -0.001408  -0.082495  -0.08182  -0.001895  3.970514  -0.001
C  C109  1  0.35764313  0.83954340  0.58797515  1  -0.000521  -0.001418  -0.082545  -0.082156  -0.001892  3.969754  -0.001
C  C110  1  0.85758114  0.58772828  0.83935521  1  -0.032476  -0.001407  -0.08258  -0.082314  -0.001894  3.970853  -0.001
C  C111  1  0.64236024  0.16046770  0.41203522  1  -0.000317  -0.001413  -0.082513  -0.082099  -0.001887  3.969882  -0.001
C  C112  1  0.14101457  0.32176166  0.16303056  1  -0.056447  0.001149  -0.088326  -0.130271  0.000432  3.968589  0.001
C  C113  1  0.35899987  0.83717597  0.67847086  1  -0.056066  0.00115  -0.088032  -0.130176  0.000432  3.969708  0.001
C  C114  1  0.85899362  0.67823584  0.83699240  1  -0.056258  0.001149  -0.08821  -0.129773  0.000432  3.968314  0.001
C  C115  1  0.64100281  0.16283914  0.32154402  1  -0.055967  0.001149  -0.088212  -0.130348  0.000432  3.96948  0.001
C  C116  1  0.24893867  0.60347857  0.20351051  1  1.528277  -0.008638  0.213965  0.559625  -0.012564  4.179282  -0.009
C  C117  1  0.25107300  0.79674364  0.39667616  1  1.527711  -0.008638  0.214538  0.56104  -0.012558  4.177965  -0.009
C  C118  1  0.75105874  0.39649854  0.79648133  1  1.528221  -0.008643  0.21391  0.559757  -0.01257  4.178962  -0.009
C  C119  1  0.74892223  0.20325839  0.60334428  1  1.527673  -0.008635  0.21458  0.561257  -0.012559  4.177646  -0.009
C  C120  1  0.59516879  0.89878596  0.30537650  1  0.48452  -3.8e-05  0.046423  0.090367  -0.000741  3.937884  0.0
C  C121  1  0.90479750  0.69484948  0.10106423  1  0.48472  -3.1e-05  0.046675  0.090686  -0.00074  3.937307  0.0
C  C122  1  0.40482135  0.10119658  0.69461576  1  0.48383  -3.4e-05  0.046438  0.090203  -0.000737  3.937528  0.0
C  C123  1  0.09523830  0.30515882  0.89895165  1  0.485627  -2.8e-05  0.046685  0.090579  -0.000735  3.937843  0.0
C  C124  1  0.71228907  0.93263089  0.35725164  1  -0.024444  0.001964  -0.076047  -0.1547  0.000916  3.953292  0.002
C  C125  1  0.78767667  0.64293157  0.06719423  1  -0.026532  0.001963  -0.076884  -0.154975  0.000916  3.953037  0.002
C  C126  1  0.28770433  0.06734825  0.64273001  1  -0.023525  0.00196  -0.076026  -0.154497  0.000914  3.953373  0.002
C  C127  1  0.21233970  0.35707760  0.93280096  1  -0.026741  0.00196  -0.076924  -0.154994  0.000915  3.953782  0.002
C  C128  1  0.77520666  0.97041651  0.46746694  1  -0.020322  -0.000389  0.010799  0.059251  -0.00057  3.976074  0.0
C  C129  1  0.72486489  0.53277238  0.02944017  1  -0.021735  -0.000382  0.011328  0.059767  -0.000564  3.976341  0.0
C  C130  1  0.22476480  0.02956568  0.53251639  1  -0.020905  -0.000385  0.01082  0.059133  -0.000566  3.976096  0.0
C  C131  1  0.27512160  0.46723232  0.97053978  1  -0.02215  -0.000377  0.011349  0.059906  -0.000559  3.976544  0.0
C  C132  1  0.71451849  0.97127047  0.51909796  1  -0.035702  0.002103  -0.083636  -0.161654  0.000933  3.935608  0.002
C  C133  1  0.78566597  0.48122040  0.02875276  1  -0.038809  0.002099  -0.083726  -0.162059  0.000931  3.93712  0.002
C  C134  1  0.28547910  0.02873953  0.48090222  1  -0.035681  0.002102  -0.083649  -0.16158  0.000933  3.935492  0.002
C  C135  1  0.21433506  0.51878783  0.97123918  1  -0.038665  0.002096  -0.083914  -0.162235  0.00093  3.937496  0.002
C  C136  1  0.59670812  0.93481217  0.46099017  1  0.512076  0.001183  0.052913  0.103882  0.000393  3.913559  0.001
C  C137  1  0.90345247  0.53934872  0.06521030  1  0.516203  0.00118  0.053712  0.104231  0.000396  3.914765  0.001
C  C138  1  0.40328363  0.06518363  0.53900353  1  0.512911  0.001185  0.052851  0.103695  0.000394  3.914138  0.001
C  C139  1  0.09655711  0.46065893  0.93478728  1  0.516091  0.001179  0.053581  0.104111  0.000396  3.914908  0.001
C  C140  1  0.90057040  0.00931990  0.52745283  1  0.620903  -0.000495  0.152719  0.274998  -0.000535  3.891547  0.0
C  C141  1  0.59952971  0.47271198  0.99062924  1  0.618708  -0.000495  0.152894  0.274594  -0.000534  3.890868  0.0
C  C142  1  0.09941159  0.99065344  0.47251816  1  0.621469  -0.000497  0.152638  0.275121  -0.000537  3.892061  0.0
C  C143  1  0.40046199  0.52729281  0.00935266  1  0.619221  -0.000497  0.152854  0.274344  -0.000537  3.890811  0.0
C  C144  1  0.96848813  0.07494160  0.64471375  1  -0.097421  0.000181  -0.240081  -0.463977  8.3e-05  3.937127  0.0
C  C145  1  0.53176820  0.35547430  0.92508751  1  -0.097307  0.000181  -0.240294  -0.463862  8.3e-05  3.936985  0.0
C  C146  1  0.03151661  0.92505881  0.35527594  1  -0.097497  0.000181  -0.24014  -0.464005  8.3e-05  3.937848  0.0
C  C147  1  0.46823353  0.64453510  0.07489124  1  -0.097044  0.000181  -0.240143  -0.463699  8.3e-05  3.937013  0.0
N  N148  1  0.53744611  0.89938124  0.35580491  1  -1.237453  0.04287  -0.315523  -0.204422  0.024845  3.466111  0.032
N  N149  1  0.96261135  0.64447604  0.10056955  1  -1.239403  0.042886  -0.316007  -0.204966  0.024857  3.468351  0.032
N  N150  1  0.46255629  0.10061504  0.64417652  1  -1.237532  0.042875  -0.315537  -0.204363  0.024846  3.466164  0.032
N  N151  1  0.03742328  0.35553541  0.89944786  1  -1.240137  0.042849  -0.315731  -0.204612  0.024832  3.467617  0.032
N  N152  1  0.94170938  0.98206175  0.47133107  1  -0.74086  0.000376  -0.211348  -0.219548  0.000117  3.30308  0.0
N  N153  1  0.55829050  0.52873521  0.01790077  1  -0.74035  0.000379  -0.211477  -0.219451  0.000119  3.301971  0.0
N  N154  1  0.05829520  0.01791363  0.52865326  1  -0.758651  0.000378  -0.211262  -0.21948  0.000119  3.302965  0.0
N  N155  1  0.44172750  0.47127943  0.98209553  1  -0.758106  0.000381  -0.211472  -0.219372  0.000121  3.301674  0.0
O  O156  1  0.15112051  0.86366639  0.17966317  1  -1.128161  0.082842  -0.302461  -0.52265  0.042986  2.398694  0.075
O  O157  1  0.34892001  0.82024700  0.13646290  1  -1.129722  0.08304  -0.302242  -0.522658  0.043107  2.398191  0.075
O  O158  1  0.84887548  0.13633430  0.82033771  1  -1.127511  0.082876  -0.302398  -0.522565  0.043007  2.398643  0.075
O  O159  1  0.65105854  0.17975422  0.86353231  1  -1.130419  0.083028  -0.30206  -0.522354  0.043104  2.398595  0.075
O  O160  1  0.34640070  0.96169802  0.28597266  1  -1.132555  0.088062  -0.299945  -0.512454  0.045875  2.351763  0.078
O  O161  1  0.15362000  0.71400854  0.03840110  1  -1.132248  0.08807  -0.299626  -0.512091  0.045865  2.351593  0.078
O  O162  1  0.65357188  0.03829138  0.71401783  1  -1.132407  0.088027  -0.299885  -0.512367  0.045861  2.351466  0.078
O  O163  1  0.84637659  0.28598668  0.96159884  1  -1.132542  0.088091  -0.299585  -0.511848  0.045879  2.351516  0.078
O  O164  1  0.34609656  0.68791662  0.24345410  1  -1.135702  0.089308  -0.299659  -0.518998  0.045803  2.357838  0.081
O  O165  1  0.15394959  0.75677867  0.31216917  1  -1.136213  0.089216  -0.29991  -0.519902  0.045759  2.358453  0.081
O  O166  1  0.65390307  0.31207613  0.75654057  1  -1.136003  0.089285  -0.299622  -0.519004  0.045793  2.358297  0.081
O  O167  1  0.84605481  0.24325117  0.68784425  1  -1.136231  0.089206  -0.299871  -0.519797  0.045759  2.358536  0.081
O  O168  1  0.15168083  0.59887419  0.16665538  1  -1.130451  0.09258  -0.302931  -0.518473  0.048306  2.410641  0.081
O  O169  1  0.34835299  0.83352980  0.40134661  1  -1.129427  0.092596  -0.303161  -0.519226  0.048294  2.409409  0.081
O  O170  1  0.84833201  0.40112222  0.83332928  1  -1.130297  0.092605  -0.302832  -0.518411  0.048318  2.410317  0.081
O  O171  1  0.65162577  0.16644312  0.59863745  1  -1.129329  0.092559  -0.303172  -0.519403  0.048278  2.409261  0.081
