# generated using pymatgen
data_AgH8C6S(NO)3
_symmetry_space_group_name_H-M   'P 1'
_cell_length_a   6.90178722
_cell_length_b   10.53244066
_cell_length_c   13.39887165
_cell_angle_alpha   89.99984817
_cell_angle_beta   100.37907759
_cell_angle_gamma   90.00002824
_symmetry_Int_Tables_number   1
_chemical_formula_structural   AgH8C6S(NO)3
_chemical_formula_sum   'Ag4 H32 C24 S4 N12 O12'
_cell_volume   958.06243831
_cell_formula_units_Z   4
loop_
 _symmetry_equiv_pos_site_id
 _symmetry_equiv_pos_as_xyz
  1  'x, y, z'
loop_
 _atom_site_type_symbol
 _atom_site_label
 _atom_site_symmetry_multiplicity
 _atom_site_fract_x
 _atom_site_fract_y
 _atom_site_fract_z
 _atom_site_occupancy
 _atom_site_hle17_bader_spin_density
 _atom_site_hle17_ddec_charge
 _atom_site_hle17_ddec_spin_density
 _atom_site_hle17_ddec_sum_bond_order
 _atom_site_hle17_magmom
 _atom_site_hse06_10hf_bader_spin_density
 _atom_site_hse06_10hf_ddec_charge
 _atom_site_hse06_10hf_ddec_spin_density
 _atom_site_hse06_10hf_ddec_sum_bond_order
 _atom_site_hse06_10hf_magmom
 _atom_site_hse06_bader_spin_density
 _atom_site_hse06_ddec_charge
 _atom_site_hse06_ddec_spin_density
 _atom_site_hse06_ddec_sum_bond_order
 _atom_site_hse06_magmom
 _atom_site_pbe_bader_spin_density
 _atom_site_pbe_cm5_charge
 _atom_site_pbe_ddec_charge
 _atom_site_pbe_ddec_spin_density
 _atom_site_pbe_ddec_sum_bond_order
 _atom_site_pbe_magmom
Ag  Ag0  1  0.17240480  0.45084928  0.38665257  1  0  0.520843  0  1.67154  0  0  0.400858  0  2.164819  0  0  0.420777  0  2.118928  0  0  0.467029  0.387404  0  2.196782  0
Ag  Ag1  1  0.67239725  0.04915149  0.88665795  1  0  0.520868  0  1.671471  0  0  0.400886  0  2.164736  0  0  0.420805  0  2.118847  0  0  0.46705  0.387432  0  2.1967  0
Ag  Ag2  1  0.82759765  0.54915290  0.61334890  1  0  0.520852  0  1.671515  0  0  0.400873  0  2.164798  0  0  0.420793  0  2.118904  0  0  0.467031  0.387418  0  2.19676  0
Ag  Ag3  1  0.32760667  0.95084879  0.11334365  1  0  0.520852  0  1.671567  0  0  0.400863  0  2.16486  0  0  0.420783  0  2.118969  0  0  0.467038  0.387408  0  2.196827  0
H  H4  1  0.36011396  0.14036856  0.39382251  1  0  0.109242  0  0.960575  0  0  0.119316  0  1.027249  0  0  0.120899  0  1.02721  0  0  0.103886  0.118134  0  1.02735  0
H  H5  1  0.86011075  0.35962940  0.89382315  1  0  0.109242  0  0.96064  0  0  0.119294  0  1.027286  0  0  0.120877  0  1.027246  0  0  0.10388  0.118112  0  1.027391  0
H  H6  1  0.63988550  0.85962983  0.60617646  1  0  0.109277  0  0.960572  0  0  0.119341  0  1.027235  0  0  0.120922  0  1.027196  0  0  0.103893  0.118162  0  1.027337  0
H  H7  1  0.13989165  0.64036993  0.10617608  1  0  0.109218  0  0.960634  0  0  0.119265  0  1.027279  0  0  0.120843  0  1.027239  0  0  0.103872  0.118086  0  1.027384  0
H  H8  1  0.42014075  0.24401707  0.29974322  1  0  0.108247  0  0.937098  0  0  0.122018  0  0.99888  0  0  0.123114  0  0.9994  0  0  0.102968  0.121114  0  0.99871  0
H  H9  1  0.92013461  0.25598123  0.79974456  1  0  0.108207  0  0.937094  0  0  0.12194  0  0.998881  0  0  0.12304  0  0.999395  0  0  0.10295  0.121037  0  0.99871  0
H  H10  1  0.57986312  0.75598321  0.70025614  1  0  0.108192  0  0.93711  0  0  0.121944  0  0.998909  0  0  0.123044  0  0.999422  0  0  0.102942  0.121042  0  0.998738  0
H  H11  1  0.07986926  0.74401715  0.20025480  1  0  0.108172  0  0.937108  0  0  0.121898  0  0.9989  0  0  0.122991  0  0.999418  0  0  0.102935  0.120998  0  0.998732  0
H  H12  1  0.72017561  0.09758070  0.46011622  1  0  0.133632  0  0.936427  0  0  0.14563  0  0.995494  0  0  0.148705  0  0.993013  0  0  0.11534  0.143282  0  0.99737  0
H  H13  1  0.22016928  0.40242174  0.96011541  1  0  0.133638  0  0.936442  0  0  0.145634  0  0.995524  0  0  0.148704  0  0.993042  0  0  0.11534  0.143284  0  0.997405  0
H  H14  1  0.27982830  0.90241959  0.53988463  1  0  0.133594  0  0.936507  0  0  0.145613  0  0.995556  0  0  0.148686  0  0.993076  0  0  0.115334  0.143265  0  0.99743  0
H  H15  1  0.77983319  0.59757949  0.03988680  1  0  0.13362  0  0.936503  0  0  0.145646  0  0.995553  0  0  0.148716  0  0.993075  0  0  0.115344  0.143293  0  0.997432  0
H  H16  1  0.65271222  0.05909030  0.32968758  1  0  0.132117  0  0.914199  0  0  0.145689  0  0.975131  0  0  0.147691  0  0.973554  0  0  0.119701  0.144032  0  0.976628  0
H  H17  1  0.15270737  0.44090876  0.82968682  1  0  0.132064  0  0.914256  0  0  0.14566  0  0.975167  0  0  0.147661  0  0.973586  0  0  0.119695  0.144  0  0.976665  0
H  H18  1  0.34729023  0.94090903  0.67031389  1  0  0.132109  0  0.914137  0  0  0.145653  0  0.975103  0  0  0.147655  0  0.973527  0  0  0.119683  0.143996  0  0.976597  0
H  H19  1  0.84729507  0.55909152  0.17031390  1  0  0.132074  0  0.914253  0  0  0.145663  0  0.975179  0  0  0.147664  0  0.973603  0  0  0.119705  0.144002  0  0.976677  0
H  H20  1  0.58113491  0.19998880  0.59691005  1  0  0.119664  0  0.950311  0  0  0.132775  0  1.00815  0  0  0.134521  0  1.008231  0  0  0.10322  0.131334  0  1.008347  0
H  H21  1  0.08114256  0.30001388  0.09691022  1  0  0.119697  0  0.950295  0  0  0.13282  0  1.008114  0  0  0.134596  0  1.008163  0  0  0.103251  0.131379  0  1.008314  0
H  H22  1  0.41886455  0.80000958  0.40308892  1  0  0.119677  0  0.950299  0  0  0.132787  0  1.008139  0  0  0.134552  0  1.008196  0  0  0.103227  0.131346  0  1.008338  0
H  H23  1  0.91885393  0.69998640  0.90308775  1  0  0.119687  0  0.950227  0  0  0.132782  0  1.008072  0  0  0.134566  0  1.008108  0  0  0.103223  0.13134  0  1.008271  0
H  H24  1  0.50110242  0.34935581  0.63558077  1  0  0.111225  0  0.942785  0  0  0.122639  0  1.009814  0  0  0.124672  0  1.008673  0  0  0.10116  0.121064  0  1.010802  0
H  H25  1  0.00110713  0.15064766  0.13558174  1  0  0.111225  0  0.942784  0  0  0.122654  0  1.009804  0  0  0.124689  0  1.008665  0  0  0.101146  0.121079  0  1.010795  0
H  H26  1  0.49889558  0.65064162  0.36441882  1  0  0.111253  0  0.942803  0  0  0.122643  0  1.009856  0  0  0.124674  0  1.008722  0  0  0.101167  0.121066  0  1.010845  0
H  H27  1  0.99889088  0.84935452  0.86441860  1  0  0.111288  0  0.942767  0  0  0.122654  0  1.00984  0  0  0.124684  0  1.008713  0  0  0.101172  0.121078  0  1.010831  0
H  H28  1  0.21223876  0.14706572  0.52437586  1  0  0.134731  0  0.932496  0  0  0.144555  0  0.997233  0  0  0.146647  0  0.996275  0  0  0.118417  0.143025  0  0.997814  0
H  H29  1  0.71224951  0.35294010  0.02437577  1  0  0.134707  0  0.932571  0  0  0.144511  0  0.997319  0  0  0.146604  0  0.996359  0  0  0.118413  0.142977  0  0.997904  0
H  H30  1  0.78775628  0.85293362  0.47562273  1  0  0.13476  0  0.932479  0  0  0.144587  0  0.997219  0  0  0.14668  0  0.996261  0  0  0.118433  0.143055  0  0.997804  0
H  H31  1  0.28774697  0.64706208  0.97562144  1  0  0.134805  0  0.932536  0  0  0.144575  0  0.99731  0  0  0.146669  0  0.996349  0  0  0.118443  0.143041  0  0.997897  0
H  H32  1  0.28631472  0.15278022  0.65764119  1  0  0.13729  0  0.919956  0  0  0.148099  0  0.984187  0  0  0.149988  0  0.983216  0  0  0.120976  0.146556  0  0.985186  0
H  H33  1  0.78632254  0.34722611  0.15764161  1  0  0.137216  0  0.919993  0  0  0.148028  0  0.984203  0  0  0.149917  0  0.983231  0  0  0.120952  0.146494  0  0.985182  0
H  H34  1  0.71368177  0.84722196  0.34235677  1  0  0.137247  0  0.919999  0  0  0.148078  0  0.984219  0  0  0.149969  0  0.983246  0  0  0.120956  0.146539  0  0.985209  0
H  H35  1  0.21367837  0.65277607  0.84235674  1  0  0.137276  0  0.919963  0  0  0.14807  0  0.984167  0  0  0.149954  0  0.983208  0  0  0.120975  0.146537  0  0.985145  0
C  C36  1  0.47094278  0.20730181  0.37651218  1  0  -0.131416  0  3.606831  0  0  -0.171776  0  3.870027  0  0  -0.171719  0  3.881455  0  0  -0.147831  -0.171685  0  3.862098  0
C  C37  1  0.97093667  0.29269814  0.87651495  1  0  -0.131433  0  3.606896  0  0  -0.171676  0  3.869993  0  0  -0.171621  0  3.88141  0  0  -0.147819  -0.171563  0  3.862  0
C  C38  1  0.52905815  0.79269753  0.62348691  1  0  -0.131403  0  3.606803  0  0  -0.171719  0  3.869968  0  0  -0.171656  0  3.881383  0  0  -0.147803  -0.17162  0  3.862013  0
C  C39  1  0.02906578  0.70730309  0.12348652  1  0  -0.131285  0  3.606819  0  0  -0.17153  0  3.869946  0  0  -0.171457  0  3.881355  0  0  -0.147737  -0.171407  0  3.861922  0
C  C40  1  0.66857204  0.13836529  0.38407522  1  0  -0.178199  0  3.742458  0  0  -0.208329  0  3.975821  0  0  -0.211205  0  3.985071  0  0  -0.135203  -0.206079  0  3.969557  0
C  C41  1  0.16856569  0.36163454  0.88407376  1  0  -0.178045  0  3.742354  0  0  -0.208263  0  3.97575  0  0  -0.211148  0  3.985043  0  0  -0.135158  -0.206018  0  3.969494  0
C  C42  1  0.33143040  0.86163405  0.61592550  1  0  -0.178112  0  3.74242  0  0  -0.208235  0  3.975732  0  0  -0.211105  0  3.984976  0  0  -0.135186  -0.205993  0  3.969493  0
C  C43  1  0.83143822  0.63836574  0.11592709  1  0  -0.178051  0  3.742612  0  0  -0.208288  0  3.975963  0  0  -0.211154  0  3.985184  0  0  -0.13518  -0.206046  0  3.969736  0
C  C44  1  0.82282468  0.22042135  0.36106734  1  0  0.390585  0  3.652907  0  0  0.36803  0  3.934404  0  0  0.381111  0  3.95165  0  0  0.21238  0.358903  0  3.922879  0
C  C45  1  0.32282132  0.27957955  0.86106854  1  0  0.390442  0  3.652963  0  0  0.36789  0  3.93447  0  0  0.38097  0  3.951707  0  0  0.212272  0.358762  0  3.92295  0
C  C46  1  0.17717334  0.77957798  0.63893300  1  0  0.3905  0  3.652984  0  0  0.367943  0  3.934483  0  0  0.381024  0  3.951732  0  0  0.212371  0.358817  0  3.922957  0
C  C47  1  0.67718408  0.72041693  0.13893319  1  0  0.390417  0  3.652792  0  0  0.367865  0  3.934321  0  0  0.380945  0  3.951569  0  0  0.21223  0.358734  0  3.922799  0
C  C48  1  0.46566376  0.27258263  0.57971493  1  0  -0.145089  0  3.610543  0  0  -0.176148  0  3.861999  0  0  -0.177478  0  3.874581  0  0  -0.147976  -0.175062  0  3.853409  0
C  C49  1  0.96566864  0.22741834  0.07971609  1  0  -0.145136  0  3.610605  0  0  -0.176204  0  3.861988  0  0  -0.177561  0  3.87458  0  0  -0.147997  -0.175121  0  3.853406  0
C  C50  1  0.53433421  0.72741576  0.42028316  1  0  -0.145107  0  3.610576  0  0  -0.176126  0  3.862009  0  0  -0.177468  0  3.874593  0  0  -0.147975  -0.175041  0  3.853423  0
C  C51  1  0.03432933  0.77258480  0.92028200  1  0  -0.145045  0  3.610537  0  0  -0.17607  0  3.86199  0  0  -0.177433  0  3.87459  0  0  -0.14791  -0.174988  0  3.853408  0
C  C52  1  0.26757539  0.21103844  0.58820986  1  0  -0.183009  0  3.740978  0  0  -0.214852  0  3.978756  0  0  -0.217821  0  3.988624  0  0  -0.133884  -0.212538  0  3.972051  0
C  C53  1  0.76758169  0.28896718  0.08820802  1  0  -0.182954  0  3.741123  0  0  -0.214698  0  3.978745  0  0  -0.217668  0  3.988626  0  0  -0.133844  -0.212384  0  3.972049  0
C  C54  1  0.73242259  0.78896184  0.41178898  1  0  -0.182995  0  3.741174  0  0  -0.214857  0  3.978964  0  0  -0.217834  0  3.988848  0  0  -0.133861  -0.212538  0  3.972262  0
C  C55  1  0.23241482  0.71103405  0.91179069  1  0  -0.183224  0  3.741397  0  0  -0.214896  0  3.978924  0  0  -0.217864  0  3.988798  0  0  -0.133957  -0.212582  0  3.972231  0
C  C56  1  0.11653669  0.30341490  0.59704349  1  0  0.389634  0  3.647865  0  0  0.368342  0  3.929057  0  0  0.382438  0  3.94427  0  0  0.218805  0.358371  0  3.919199  0
C  C57  1  0.61654452  0.19659349  0.09704496  1  0  0.389607  0  3.648085  0  0  0.368275  0  3.929309  0  0  0.382373  0  3.944519  0  0  0.218802  0.358303  0  3.919456  0
C  C58  1  0.88345245  0.69658918  0.40295458  1  0  0.389554  0  3.647892  0  0  0.368244  0  3.929137  0  0  0.382344  0  3.944354  0  0  0.218702  0.358269  0  3.919281  0
C  C59  1  0.38345209  0.80340679  0.90295823  1  0  0.38954  0  3.648055  0  0  0.36821  0  3.92926  0  0  0.382309  0  3.944472  0  0  0.218746  0.358236  0  3.919407  0
S  S60  1  0.48228623  0.34518329  0.45885856  1  0  -0.00308  0  2.754032  0  0  0.02373  0  3.194635  0  0  0.017956  0  3.185351  0  0  -0.015479  0.027817  0  3.201204  0
S  S61  1  0.98228445  0.15481448  0.95885825  1  0  -0.003048  0  2.754011  0  0  0.023712  0  3.194585  0  0  0.017937  0  3.185319  0  0  -0.015456  0.027798  0  3.20116  0
S  S62  1  0.51771471  0.65481509  0.54114129  1  0  -0.003135  0  2.754009  0  0  0.023657  0  3.194583  0  0  0.017879  0  3.185302  0  0  -0.0155  0.027746  0  3.201154  0
S  S63  1  0.01771798  0.84518485  0.04114247  1  0  -0.003101  0  2.754015  0  0  0.023651  0  3.194549  0  0  0.017868  0  3.185277  0  0  -0.015498  0.027737  0  3.201124  0
N  N64  1  0.94393348  0.28855946  0.34211054  1  0  -0.447829  0  2.818233  0  0  -0.401274  0  3.103144  0  0  -0.416342  0  3.109435  0  0  -0.341675  -0.391288  0  3.099277  0
N  N65  1  0.44392573  0.21143965  0.84211299  1  0  -0.447755  0  2.818313  0  0  -0.401196  0  3.103215  0  0  -0.416262  0  3.109503  0  0  -0.341625  -0.391211  0  3.099351  0
N  N66  1  0.05606890  0.71144082  0.65788794  1  0  -0.44777  0  2.818345  0  0  -0.401222  0  3.103267  0  0  -0.416289  0  3.109558  0  0  -0.341671  -0.391235  0  3.099398  0
N  N67  1  0.55607230  0.78856253  0.15788809  1  0  -0.447743  0  2.818018  0  0  -0.401196  0  3.102939  0  0  -0.416265  0  3.109232  0  0  -0.341595  -0.391211  0  3.099076  0
N  N68  1  0.99851023  0.37858658  0.60772846  1  0  -0.436741  0  2.949923  0  0  -0.388599  0  3.266339  0  0  -0.40329  0  3.268176  0  0  -0.352581  -0.37905  0  3.265831  0
N  N69  1  0.49851634  0.12142189  0.10772663  1  0  -0.436677  0  2.950068  0  0  -0.388553  0  3.266553  0  0  -0.403247  0  3.268388  0  0  -0.352579  -0.379003  0  3.26605  0
N  N70  1  0.00149077  0.62141180  0.39227363  1  0  -0.436662  0  2.949732  0  0  -0.388509  0  3.266164  0  0  -0.403202  0  3.268005  0  0  -0.352495  -0.378959  0  3.265659  0
N  N71  1  0.50148472  0.87858314  0.89227845  1  0  -0.436622  0  2.949907  0  0  -0.388489  0  3.266365  0  0  -0.403184  0  3.268207  0  0  -0.35255  -0.37894  0  3.265859  0
N  N72  1  0.39235318  0.46873441  0.18405339  1  0  0.680261  0  4.163195  0  0  0.711465  0  4.460492  0  0  0.739591  0  4.466695  0  0  0.089739  0.704809  0  4.438584  0
N  N73  1  0.89234705  0.03126807  0.68405668  1  0  0.680302  0  4.162893  0  0  0.711633  0  4.460084  0  0  0.739762  0  4.466292  0  0  0.089785  0.704825  0  4.4384  0
N  N74  1  0.60764484  0.53126588  0.81594695  1  0  0.680289  0  4.163226  0  0  0.711484  0  4.460542  0  0  0.739614  0  4.46674  0  0  0.089736  0.704834  0  4.438631  0
N  N75  1  0.10765690  0.96873031  0.31594641  1  0  0.680662  0  4.162585  0  0  0.711874  0  4.459844  0  0  0.74  0  4.466048  0  0  0.089859  0.705095  0  4.438109  0
O  O76  1  0.22116933  0.44794809  0.20531085  1  0  -0.497195  0  1.819882  0  0  -0.470191  0  2.060381  0  0  -0.487069  0  2.050391  0  0  -0.212188  -0.462334  0  2.062441  0
O  O77  1  0.72116021  0.05205712  0.70531160  1  0  -0.497231  0  1.819723  0  0  -0.47021  0  2.060089  0  0  -0.487085  0  2.050095  0  0  -0.21218  -0.4623  0  2.062213  0
O  O78  1  0.77883017  0.55205219  0.79469036  1  0  -0.497203  0  1.819885  0  0  -0.470193  0  2.060384  0  0  -0.487072  0  2.050391  0  0  -0.212195  -0.462339  0  2.062443  0
O  O79  1  0.27883924  0.94794222  0.29468737  1  0  -0.497356  0  1.819695  0  0  -0.470275  0  2.060099  0  0  -0.487152  0  2.050105  0  0  -0.212192  -0.462375  0  2.062211  0
O  O80  1  0.40793263  0.48601356  0.09227901  1  0  -0.47148  0  1.771313  0  0  -0.458774  0  1.989918  0  0  -0.474496  0  1.985317  0  0  -0.192273  -0.451566  0  1.987775  0
O  O81  1  0.90792791  0.01398639  0.59227948  1  0  -0.471441  0  1.77091  0  0  -0.458834  0  1.989516  0  0  -0.474563  0  1.984921  0  0  -0.192323  -0.451581  0  1.98746  0
O  O82  1  0.59206686  0.51398672  0.90772146  1  0  -0.471504  0  1.771284  0  0  -0.45882  0  1.989928  0  0  -0.474541  0  1.985322  0  0  -0.192293  -0.451604  0  1.987759  0
O  O83  1  0.09207448  0.98600915  0.40771900  1  0  -0.471548  0  1.770942  0  0  -0.45893  0  1.989635  0  0  -0.474657  0  1.985037  0  0  -0.192324  -0.451683  0  1.987555  0
O  O84  1  0.54225531  0.47133580  0.25370658  1  0  -0.473439  0  1.752723  0  0  -0.463191  0  1.969992  0  0  -0.478682  0  1.966363  0  0  -0.194532  -0.456238  0  1.967411  0
O  O85  1  0.04224455  0.02866539  0.75370691  1  0  -0.473503  0  1.753045  0  0  -0.463297  0  1.970254  0  0  -0.478774  0  1.96661  0  0  -0.194548  -0.456296  0  1.967744  0
O  O86  1  0.45774567  0.52866449  0.74629476  1  0  -0.473401  0  1.752763  0  0  -0.463148  0  1.970022  0  0  -0.478646  0  1.966399  0  0  -0.194498  -0.456202  0  1.96744  0
O  O87  1  0.95775343  0.97133299  0.24629193  1  0  -0.473636  0  1.752787  0  0  -0.463381  0  1.970022  0  0  -0.478865  0  1.96638  0  0  -0.194601  -0.45639  0  1.967492  0
