# generated using pymatgen
data_Ag2H10C12SN2O5
_symmetry_space_group_name_H-M   'P 1'
_cell_length_a   5.59012119
_cell_length_b   10.27430168
_cell_length_c   12.55610626
_cell_angle_alpha   83.40436789
_cell_angle_beta   90.18913086
_cell_angle_gamma   70.75646466
_symmetry_Int_Tables_number   1
_chemical_formula_structural   Ag2H10C12SN2O5
_chemical_formula_sum   'Ag4 H20 C24 S2 N4 O10'
_cell_volume   675.70335331
_cell_formula_units_Z   2
loop_
 _symmetry_equiv_pos_site_id
 _symmetry_equiv_pos_as_xyz
  1  'x, y, z'
loop_
 _atom_site_type_symbol
 _atom_site_label
 _atom_site_symmetry_multiplicity
 _atom_site_fract_x
 _atom_site_fract_y
 _atom_site_fract_z
 _atom_site_occupancy
 _atom_site_hle17_bader_spin_density
 _atom_site_hle17_ddec_charge
 _atom_site_hle17_ddec_spin_density
 _atom_site_hle17_ddec_sum_bond_order
 _atom_site_hle17_magmom
 _atom_site_hse06_10hf_bader_spin_density
 _atom_site_hse06_10hf_ddec_charge
 _atom_site_hse06_10hf_ddec_spin_density
 _atom_site_hse06_10hf_ddec_sum_bond_order
 _atom_site_hse06_10hf_magmom
 _atom_site_hse06_bader_spin_density
 _atom_site_hse06_ddec_charge
 _atom_site_hse06_ddec_spin_density
 _atom_site_hse06_ddec_sum_bond_order
 _atom_site_hse06_magmom
 _atom_site_pbe_bader_spin_density
 _atom_site_pbe_cm5_charge
 _atom_site_pbe_ddec_charge
 _atom_site_pbe_ddec_spin_density
 _atom_site_pbe_ddec_sum_bond_order
 _atom_site_pbe_magmom
Ag  Ag0  1  0.50000196  0.99999869  0.50000012  1  0  0.592042  0  1.24818  0  0  0.471696  0  1.644053  0  0  0.496258  0  1.602432  0  0  0.471684  0.454428  0  1.672867  0
Ag  Ag1  1  0.90786304  0.56891982  0.86964125  1  0  0.539515  0  1.480831  0  0  0.413051  0  1.94937  0  0  0.443062  0  1.891825  0  0  0.44161  0.392528  0  1.988982  0
Ag  Ag2  1  0.09213028  0.43107888  0.13035861  1  0  0.539511  0  1.480835  0  0  0.413083  0  1.94934  0  0  0.443077  0  1.891826  0  0  0.441602  0.392562  0  1.988948  0
Ag  Ag3  1  0.49999176  0.50000048  0.99999923  1  0  0.526002  0  1.355385  0  0  0.379159  0  1.843869  0  0  0.428529  0  1.768012  0  0  0.383249  0.345572  0  1.896233  0
H  H4  1  0.40920183  0.38419459  0.54033891  1  0  0.120868  0  0.939638  0  0  0.133952  0  0.993765  0  0  0.137442  0  0.993129  0  0  0.110169  0.131461  0  0.9944  0
H  H5  1  0.59080601  0.61580713  0.45966939  1  0  0.120873  0  0.93949  0  0  0.133983  0  0.993618  0  0  0.137452  0  0.993006  0  0  0.110212  0.131499  0  0.994231  0
H  H6  1  0.30876772  0.51092058  0.70092606  1  0  0.082538  0  0.965004  0  0  0.091832  0  1.0308  0  0  0.093927  0  1.028111  0  0  0.113384  0.090243  0  1.032578  0
H  H7  1  0.69123525  0.48908022  0.29908234  1  0  0.082595  0  0.964994  0  0  0.091919  0  1.030747  0  0  0.094009  0  1.028069  0  0  0.113415  0.090336  0  1.032509  0
H  H8  1  0.84384612  0.19563921  0.63422000  1  0  0.116999  0  0.944708  0  0  0.131624  0  1.000136  0  0  0.134403  0  1.000039  0  0  0.109994  0.129631  0  1.000433  0
H  H9  1  0.15614784  0.80435825  0.36577364  1  0  0.116978  0  0.944814  0  0  0.131614  0  1.000236  0  0  0.134393  0  1.000141  0  0  0.109976  0.129621  0  1.000531  0
H  H10  1  0.76165248  0.33299634  0.78983714  1  0  0.080503  0  0.977168  0  0  0.089921  0  1.045287  0  0  0.092436  0  1.042066  0  0  0.11259  0.087996  0  1.047648  0
H  H11  1  0.23833654  0.66700038  0.21016215  1  0  0.0805  0  0.977221  0  0  0.089923  0  1.045337  0  0  0.092445  0  1.042111  0  0  0.112569  0.087997  0  1.047697  0
H  H12  1  0.69581387  0.13660823  0.80361836  1  0  0.092502  0  0.981213  0  0  0.102507  0  1.046755  0  0  0.104907  0  1.045872  0  0  0.1033  0.100819  0  1.047439  0
H  H13  1  0.30418139  0.86339353  0.19638197  1  0  0.092537  0  0.981224  0  0  0.102497  0  1.046814  0  0  0.104899  0  1.045928  0  0  0.103291  0.100809  0  1.047496  0
H  H14  1  0.69479879  0.94163278  0.70336937  1  0  0.093445  0  0.971931  0  0  0.101716  0  1.041562  0  0  0.105792  0  1.037404  0  0  0.099302  0.09869  0  1.044734  0
H  H15  1  0.30520052  0.05836478  0.29663143  1  0  0.093456  0  0.971943  0  0  0.101708  0  1.041587  0  0  0.105785  0  1.037432  0  0  0.0993  0.098693  0  1.044747  0
H  H16  1  0.04649197  0.10705843  0.97156133  1  0  0.105534  0  0.969442  0  0  0.115866  0  1.031226  0  0  0.118874  0  1.02947  0  0  0.107086  0.113629  0  1.032619  0
H  H17  1  0.95350215  0.89294545  0.02844034  1  0  0.105557  0  0.969436  0  0  0.115923  0  1.031157  0  0  0.118931  0  1.0294  0  0  0.107116  0.113689  0  1.032571  0
H  H18  1  0.04380878  0.90883418  0.87138179  1  0  0.110751  0  0.968691  0  0  0.120309  0  1.029986  0  0  0.123192  0  1.028943  0  0  0.107782  0.118194  0  1.031012  0
H  H19  1  0.95618773  0.09116857  0.12861842  1  0  0.110728  0  0.968697  0  0  0.120309  0  1.029971  0  0  0.123192  0  1.028927  0  0  0.107767  0.118194  0  1.030996  0
H  H20  1  0.03082845  0.17804878  0.46002244  1  0  0.322016  0  0.936736  0  0  0.307435  0  0.994463  0  0  0.314719  0  0.989148  0  0  0.288588  0.302301  0  0.998121  0
H  H21  1  0.96918661  0.82194943  0.53997748  1  0  0.321877  0  0.936911  0  0  0.307293  0  0.994645  0  0  0.31458  0  0.98933  0  0  0.288524  0.302159  0  0.998301  0
H  H22  1  0.24794605  0.25624207  0.42052920  1  0  0.323014  0  0.928788  0  0  0.308125  0  0.986482  0  0  0.31527  0  0.981661  0  0  0.290899  0.303017  0  0.989935  0
H  H23  1  0.75206595  0.74375521  0.57947164  1  0  0.322918  0  0.928852  0  0  0.308008  0  0.986604  0  0  0.315159  0  0.981774  0  0  0.290825  0.3029  0  0.99006  0
C  C24  1  0.36055526  0.91853152  0.77913497  1  0  -0.100999  0  3.737891  0  0  -0.073045  0  3.976479  0  0  -0.078348  0  3.9987  0  0  -0.016557  -0.069839  0  3.961916  0
C  C25  1  0.63944766  0.08146601  0.22086743  1  0  -0.10092  0  3.737765  0  0  -0.073001  0  3.976419  0  0  -0.078303  0  3.998637  0  0  -0.016586  -0.069796  0  3.961857  0
C  C26  1  0.13320955  0.27911149  0.57350149  1  0  0.346187  0  3.807536  0  0  0.336112  0  4.051184  0  0  0.350811  0  4.070485  0  0  0.108722  0.32621  0  4.037965  0
C  C27  1  0.86679422  0.72089108  0.42649795  1  0  0.34605  0  3.807762  0  0  0.336001  0  4.05137  0  0  0.350747  0  4.070609  0  0  0.108721  0.326098  0  4.038152  0
C  C28  1  0.26525341  0.36929611  0.59414955  1  0  -0.235672  0  3.707866  0  0  -0.249798  0  3.957006  0  0  -0.261559  0  3.977941  0  0  -0.097561  -0.242206  0  3.943078  0
C  C29  1  0.73476218  0.63070114  0.40585288  1  0  -0.235538  0  3.707877  0  0  -0.249707  0  3.956999  0  0  -0.261461  0  3.977928  0  0  -0.097593  -0.242114  0  3.943075  0
C  C30  1  0.21017459  0.44000292  0.68334263  1  0  0.140907  0  3.706881  0  0  0.108261  0  3.951448  0  0  0.118309  0  3.970491  0  0  0.038759  0.101823  0  3.938255  0
C  C31  1  0.78981490  0.56000624  0.31666004  1  0  0.140772  0  3.707171  0  0  0.108098  0  3.951767  0  0  0.118146  0  3.970803  0  0  0.038763  0.101661  0  3.938579  0
C  C32  1  0.95018693  0.26506237  0.64608970  1  0  -0.231299  0  3.706152  0  0  -0.245617  0  3.952063  0  0  -0.257511  0  3.974876  0  0  -0.096872  -0.23794  0  3.93685  0
C  C33  1  0.04980600  0.73494037  0.35390733  1  0  -0.231294  0  3.70623  0  0  -0.245632  0  3.952151  0  0  -0.257539  0  3.97495  0  0  -0.096869  -0.237955  0  3.936939  0
C  C34  1  0.90410128  0.34109349  0.73265416  1  0  0.126887  0  3.727798  0  0  0.095262  0  3.97317  0  0  0.104209  0  3.993523  0  0  0.038767  0.089472  0  3.959399  0
C  C35  1  0.09588971  0.65890617  0.26734162  1  0  0.126918  0  3.727714  0  0  0.095295  0  3.973067  0  0  0.104237  0  3.993423  0  0  0.038784  0.089505  0  3.959297  0
C  C36  1  0.37010744  0.13398424  0.89354448  1  0  -0.049561  0  3.734652  0  0  -0.024181  0  3.96298  0  0  -0.031498  0  3.985337  0  0  -0.012499  -0.019323  0  3.947739  0
C  C37  1  0.62989086  0.86601852  0.10645732  1  0  -0.049633  0  3.734732  0  0  -0.024243  0  3.963036  0  0  -0.031659  0  3.985521  0  0  -0.012487  -0.019385  0  3.947798  0
C  C38  1  0.55046184  0.08841066  0.81690452  1  0  -0.056424  0  3.702433  0  0  -0.081877  0  3.952108  0  0  -0.08183  0  3.972729  0  0  -0.08047  -0.082112  0  3.938264  0
C  C39  1  0.44953397  0.91159009  0.18309671  1  0  -0.056448  0  3.702336  0  0  -0.081865  0  3.951981  0  0  -0.08179  0  3.972626  0  0  -0.080476  -0.0821  0  3.938137  0
C  C40  1  0.54750869  0.98029459  0.75982313  1  0  -0.080433  0  3.749984  0  0  -0.10366  0  4.006324  0  0  -0.104395  0  4.024355  0  0  -0.089445  -0.103101  0  3.994372  0
C  C41  1  0.45248362  0.01970931  0.24017775  1  0  -0.080424  0  3.749942  0  0  -0.103629  0  4.006298  0  0  -0.104367  0  4.024327  0  0  -0.089424  -0.103078  0  3.994336  0
C  C42  1  0.18759602  0.06906714  0.91313537  1  0  -0.056488  0  3.705862  0  0  -0.08154  0  3.954176  0  0  -0.081633  0  3.973925  0  0  -0.079443  -0.081125  0  3.940589  0
C  C43  1  0.81239508  0.93093566  0.08686245  1  0  -0.056477  0  3.705973  0  0  -0.081542  0  3.954265  0  0  -0.081607  0  3.97404  0  0  -0.079487  -0.081147  0  3.940668  0
C  C44  1  0.18333730  0.96107124  0.85682882  1  0  -0.077873  0  3.744871  0  0  -0.099647  0  3.989594  0  0  -0.1017  0  4.011019  0  0  -0.087099  -0.098325  0  3.975347  0
C  C45  1  0.81665967  0.03892733  0.14316947  1  0  -0.077931  0  3.744811  0  0  -0.099708  0  3.989532  0  0  -0.101759  0  4.010949  0  0  -0.087071  -0.098386  0  3.975288  0
C  C46  1  0.36400598  0.25155682  0.95508817  1  0  0.629952  0  3.920157  0  0  0.571802  0  4.206204  0  0  0.608211  0  4.203518  0  0  0.206129  0.54717  0  4.206897  0
C  C47  1  0.63599168  0.74844376  0.04490909  1  0  0.630003  0  3.92022  0  0  0.571881  0  4.206216  0  0  0.60832  0  4.203531  0  0  0.206136  0.54725  0  4.206907  0
S  S48  1  0.32548667  0.79160241  0.70067446  1  0  1.274692  0  5.666083  0  0  1.178933  0  6.177644  0  0  1.225896  0  6.155797  0  0  0.500978  1.146831  0  6.191134  0
S  S49  1  0.67452182  0.20839807  0.29932760  1  0  1.274536  0  5.666225  0  0  1.178815  0  6.177775  0  0  1.225778  0  6.155923  0  0  0.500934  1.146712  0  6.191266  0
N  N50  1  0.03057751  0.42818146  0.75199793  1  0  -0.308793  0  3.342857  0  0  -0.21452  0  3.609837  0  0  -0.23909  0  3.630575  0  0  -0.358157  -0.198202  0  3.595492  0
N  N51  1  0.96941967  0.57181012  0.24800752  1  0  -0.30881  0  3.342953  0  0  -0.214556  0  3.609961  0  0  -0.239123  0  3.630696  0  0  -0.35821  -0.198241  0  3.595618  0
N  N52  1  0.18242137  0.20606561  0.48445192  1  0  -0.664162  0  3.205991  0  0  -0.595173  0  3.442203  0  0  -0.618957  0  3.439472  0  0  -0.6133  -0.578491  0  3.443726  0
N  N53  1  0.81760023  0.79393045  0.51554985  1  0  -0.663849  0  3.206036  0  0  -0.594853  0  3.442196  0  0  -0.618665  0  3.439474  0  0  -0.613128  -0.578172  0  3.443714  0
O  O54  1  0.21254013  0.87313610  0.59600173  1  0  -0.689794  0  1.99574  0  0  -0.632559  0  2.262423  0  0  -0.654072  0  2.245243  0  0  -0.35396  -0.617172  0  2.273347  0
O  O55  1  0.78746113  0.12686448  0.40399793  1  0  -0.68978  0  1.995781  0  0  -0.63254  0  2.26245  0  0  -0.654051  0  2.24527  0  0  -0.35397  -0.617159  0  2.273385  0
O  O56  1  0.58045201  0.69231076  0.68877172  1  0  -0.667089  0  2.01797  0  0  -0.611707  0  2.277455  0  0  -0.63343  0  2.263143  0  0  -0.340715  -0.596366  0  2.286517  0
O  O57  1  0.41956164  0.30769673  0.31122796  1  0  -0.667037  0  2.017967  0  0  -0.611682  0  2.277444  0  0  -0.633402  0  2.263134  0  0  -0.340647  -0.59634  0  2.286503  0
O  O58  1  0.15359362  0.72970403  0.75685456  1  0  -0.650758  0  2.002777  0  0  -0.595793  0  2.274112  0  0  -0.618346  0  2.258959  0  0  -0.338413  -0.580158  0  2.283978  0
O  O59  1  0.84642011  0.27028998  0.24314186  1  0  -0.650702  0  2.002765  0  0  -0.595793  0  2.274154  0  0  -0.618341  0  2.259  0  0  -0.338449  -0.580159  0  2.284022  0
O  O60  1  0.19632198  0.27841718  0.02497703  1  0  -0.602671  0  2.201295  0  0  -0.517264  0  2.481976  0  0  -0.549951  0  2.471436  0  0  -0.322139  -0.494825  0  2.488627  0
O  O61  1  0.80365217  0.72159711  0.97501391  1  0  -0.602663  0  2.201359  0  0  -0.517288  0  2.482054  0  0  -0.549969  0  2.471495  0  0  -0.322131  -0.49485  0  2.488712  0
O  O62  1  0.52204648  0.31542156  0.93197690  1  0  -0.593301  0  2.130726  0  0  -0.505721  0  2.407637  0  0  -0.541499  0  2.396824  0  0  -0.318879  -0.480794  0  2.414086  0
O  O63  1  0.47794877  0.68458019  0.06802342  1  0  -0.593339  0  2.130689  0  0  -0.505766  0  2.407576  0  0  -0.541543  0  2.396755  0  0  -0.318893  -0.480837  0  2.414025  0
