# generated using pymatgen
data_Cu2H10C15N4Cl3O2
_symmetry_space_group_name_H-M   'P 1'
_cell_length_a   8.81150000
_cell_length_b   10.35852113
_cell_length_c   10.56449945
_cell_angle_alpha   60.31548406
_cell_angle_beta   78.45305339
_cell_angle_gamma   83.41463037
_symmetry_Int_Tables_number   1
_chemical_formula_structural   Cu2H10C15N4Cl3O2
_chemical_formula_sum   'Cu4 H20 C30 N8 Cl6 O4'
_cell_volume   820.62863367
_cell_formula_units_Z   2
loop_
 _symmetry_equiv_pos_site_id
 _symmetry_equiv_pos_as_xyz
  1  'x, y, z'
loop_
 _atom_site_type_symbol
 _atom_site_label
 _atom_site_symmetry_multiplicity
 _atom_site_fract_x
 _atom_site_fract_y
 _atom_site_fract_z
 _atom_site_occupancy
 _atom_site_hle17_ddec_charge
 _atom_site_hle17_ddec_spin_density
 _atom_site_hle17_ddec_sum_bond_order
 _atom_site_hle17_magmom
 _atom_site_hse06_10hf_ddec_charge
 _atom_site_hse06_10hf_ddec_spin_density
 _atom_site_hse06_10hf_ddec_sum_bond_order
 _atom_site_hse06_10hf_magmom
 _atom_site_hse06_ddec_charge
 _atom_site_hse06_ddec_spin_density
 _atom_site_hse06_ddec_sum_bond_order
 _atom_site_hse06_magmom
 _atom_site_pbe_cm5_charge
 _atom_site_pbe_ddec_charge
 _atom_site_pbe_ddec_spin_density
 _atom_site_pbe_ddec_sum_bond_order
 _atom_site_pbe_magmom
Cu  Cu0  1  0.26645656  0.67951833  0.01151238  1  0.790127  0.664482  2.003739  0.47  0.780088  0.803972  2.407048  0.62  0.86855  0.903334  2.33643  0.725  0.70189  0.724767  0.661432  2.456091  0.499
Cu  Cu1  1  0.73350311  0.32048136  0.98848164  1  0.789993  -0.664475  2.003675  -0.47  0.780026  -0.803969  2.406916  -0.62  0.868604  -0.903317  2.336125  -0.725  0.701838  0.724632  -0.661416  2.456084  -0.499
Cu  Cu2  1  0.56727579  0.66453190  0.39920983  1  0.674922  0.604774  2.088081  0.425  0.667832  0.70821  2.501562  0.544  0.751883  0.796017  2.429113  0.634  0.583979  0.626459  0.649713  2.544145  0.489
Cu  Cu3  1  0.43271645  0.33546544  0.60079682  1  0.675  -0.604785  2.08805  -0.425  0.66793  -0.708215  2.5015  -0.544  0.752058  -0.796047  2.429022  -0.634  0.58403  0.626561  -0.649725  2.54408  -0.489
H  H4  1  0.43549437  0.96408475  0.87437485  1  0.098479  0.002059  0.940948  0.003  0.102896  0.001732  1.009319  0.003  0.105542  0.00125  1.00674  0.002  0.118065  0.10035  0.001871  1.011779  0.003
H  H5  1  0.56446283  0.03590968  0.12557479  1  0.098536  -0.002058  0.940905  -0.003  0.102737  -0.001731  1.009481  -0.003  0.105368  -0.00125  1.006927  -0.002  0.118037  0.100206  -0.001871  1.011945  -0.003
H  H6  1  0.39620417  0.19403496  0.90040962  1  0.110565  0.001101  0.972455  0.001  0.112132  0.00094  1.047788  0.001  0.11576  0.000783  1.04512  0.0  0.100182  0.108633  0.000946  1.050734  0.001
H  H7  1  0.60381788  0.80596271  0.09953498  1  0.110623  -0.001088  0.972716  -0.001  0.112198  -0.00094  1.048  -0.001  0.11583  -0.000783  1.045309  0.0  0.100245  0.108709  -0.000945  1.050925  -0.001
H  H8  1  0.15859812  0.21308944  0.06934332  1  0.107772  0.000233  0.92608  0.0  0.117386  -3e-06  0.986383  0.0  0.120402  -4.1e-05  0.9841  0.0  0.109777  0.114999  8.3e-05  0.988093  0.0
H  H9  1  0.84148197  0.78692001  0.93065104  1  0.10764  -0.000233  0.926047  0.0  0.117199  3e-06  0.986474  0.0  0.120268  4.1e-05  0.984118  0.0  0.109678  0.114815  -8.3e-05  0.988182  0.0
H  H10  1  0.98154416  0.00288290  0.21198545  1  0.112911  0.000935  0.998538  0.002  0.11873  0.000738  1.064832  0.001  0.121491  0.000503  1.064649  0.001  0.096331  0.116482  0.000817  1.06526  0.001
H  H11  1  0.01848353  0.99714757  0.78802761  1  0.112866  -0.000944  0.998768  -0.002  0.118709  -0.000737  1.065051  -0.001  0.121466  -0.000502  1.064878  -0.001  0.096344  0.116462  -0.000817  1.06548  -0.001
H  H12  1  0.07425682  0.78743531  0.44941657  1  0.116951  0.001414  0.980235  0.001  0.126802  0.001508  1.042924  0.001  0.130694  0.001148  1.041603  0.001  0.096933  0.124195  0.00182  1.043914  0.001
H  H13  1  0.92573285  0.21257209  0.55057430  1  0.116937  -0.001409  0.980248  -0.001  0.126791  -0.001508  1.042929  -0.001  0.130684  -0.001148  1.041608  -0.001  0.096955  0.124184  -0.001819  1.043919  -0.001
H  H14  1  0.96833528  0.86664567  0.63673384  1  0.101201  0.000453  0.973191  0.0  0.112662  6.8e-05  1.032267  0.0  0.115292  1.5e-05  1.030827  0.0  0.097059  0.110735  0.000128  1.033162  0.0
H  H15  1  0.03168626  0.13333602  0.36328574  1  0.101244  -0.000456  0.97317  0.0  0.112698  -6.7e-05  1.032264  0.0  0.115327  -1.5e-05  1.030819  0.0  0.097061  0.110762  -0.000128  1.033161  0.0
H  H16  1  0.67694386  0.89392537  0.69819248  1  0.113237  -0.000395  0.95885  0.0  0.123814  -0.000186  1.017558  0.0  0.127877  -0.000132  1.015048  0.0  0.102395  0.120462  -0.000277  1.020706  0.0
H  H17  1  0.32306993  0.10603959  0.30184594  1  0.11332  0.000397  0.958835  0.0  0.123808  0.000185  1.01763  0.0  0.127868  0.000132  1.015124  0.0  0.102426  0.120471  0.000277  1.02076  0.0
H  H18  1  0.50628535  0.82537181  0.57780303  1  0.095528  0.000961  0.947624  0.002  0.100166  0.000976  1.016114  0.002  0.103127  0.000747  1.012914  0.001  0.110555  0.097551  0.001178  1.019476  0.002
H  H19  1  0.49372439  0.17462426  0.42222301  1  0.095583  -0.000959  0.947618  -0.002  0.100269  -0.000976  1.016032  -0.002  0.103249  -0.000747  1.012797  -0.001  0.11055  0.097648  -0.001177  1.019414  -0.002
H  H20  1  0.74162237  0.43827319  0.29014189  1  0.113581  0.000917  0.965252  0.002  0.117129  0.001038  1.032767  0.002  0.12151  0.00074  1.028471  0.001  0.111897  0.113479  0.00129  1.036527  0.002
H  H21  1  0.25837739  0.56170497  0.70991434  1  0.113506  -0.000914  0.964936  -0.002  0.117011  -0.001038  1.032521  -0.002  0.121427  -0.00074  1.028188  -0.001  0.11184  0.113362  -0.001291  1.036277  -0.002
H  H22  1  0.01651157  0.43984991  0.15705247  1  0.11261  0.00128  0.933176  0.002  0.117529  0.001186  0.999305  0.002  0.121103  0.000869  0.99602  0.001  0.125919  0.114447  0.001324  1.002419  0.002
H  H23  1  0.98349354  0.56014400  0.84296688  1  0.11271  -0.001283  0.933015  -0.002  0.117596  -0.001186  0.999195  -0.002  0.121168  -0.00087  0.995912  -0.001  0.125934  0.114507  -0.001326  1.002315  -0.002
C  C24  1  0.34031900  0.97412417  0.95283344  1  0.14229  -0.006918  3.659797  -0.008  0.112387  -0.000877  3.920674  -0.002  0.122226  -0.002048  3.938649  -0.004  0.05578  0.105603  -8e-06  3.910702  -0.001
C  C25  1  0.65966832  0.02587675  0.04713256  1  0.142423  0.006895  3.659899  0.008  0.112646  0.000878  3.920743  0.002  0.12247  0.002049  3.938757  0.004  0.055921  0.105856  1e-05  3.910804  0.001
C  C26  1  0.31519583  0.10297160  0.96527916  1  -0.107184  0.009801  3.698054  0.01  -0.123741  0.004998  3.95905  0.006  -0.130864  0.004287  3.97807  0.005  -0.079136  -0.11979  0.005039  3.94858  0.006
C  C27  1  0.68482076  0.89701699  0.03470293  1  -0.107439  -0.009793  3.698678  -0.01  -0.123966  -0.004997  3.959604  -0.006  -0.131083  -0.004287  3.978653  -0.005  -0.079261  -0.120013  -0.005039  3.949135  -0.006
C  C28  1  0.18509941  0.11226123  0.06027811  1  0.013058  -0.00654  3.67127  -0.006  -0.00655  -0.001973  3.922609  -0.002  -0.000979  -0.002266  3.93774  -0.002  -0.065067  -0.010713  -0.001615  3.9136  -0.002
C  C29  1  0.81493203  0.88774172  0.93970495  1  0.0135  0.006515  3.670815  0.006  -0.006094  0.001972  3.922248  0.002  -0.000544  0.002265  3.937316  0.002  -0.064875  -0.010268  0.001614  3.91325  0.002
C  C30  1  0.08704475  0.99164131  0.14380562  1  -0.124654  0.007468  3.677719  0.007  -0.143229  0.003617  3.922371  0.003  -0.149147  0.003044  3.94112  0.003  -0.077549  -0.139598  0.003721  3.910237  0.003
C  C31  1  0.91297846  0.00837375  0.85619195  1  -0.124827  -0.007426  3.677858  -0.007  -0.143374  -0.003616  3.922668  -0.003  -0.149293  -0.003044  3.941437  -0.003  -0.077619  -0.13974  -0.00372  3.910531  -0.003
C  C32  1  0.12453994  0.86163548  0.13427765  1  0.177942  -0.000917  3.75028  -0.001  0.174269  0.002365  3.995376  0.002  0.182456  0.000827  4.015067  0.0  0.11611  0.169298  0.003539  3.982743  0.003
C  C33  1  0.87544047  0.13837084  0.86571249  1  0.177875  0.000902  3.750343  0.001  0.173919  -0.002368  3.995832  -0.002  0.182111  -0.000828  4.015524  0.0  0.115997  0.168964  -0.003541  3.983201  -0.003
C  C34  1  0.02962791  0.72764819  0.21057166  1  0.117986  -0.001832  3.672752  -0.002  0.113823  0.001054  3.916165  0.0  0.120405  -2.9e-05  3.930492  -0.001  0.131774  0.108372  0.001952  3.908153  0.001
C  C35  1  0.97036188  0.27235800  0.78943587  1  0.118203  0.001844  3.672328  0.002  0.113985  -0.001054  3.916058  0.0  0.120554  2.8e-05  3.930402  0.001  0.132  0.108545  -0.001954  3.908027  -0.001
C  C36  1  0.89342090  0.70076533  0.31620663  1  0.131772  0.007054  3.668284  0.007  0.124947  0.006777  3.91103  0.007  0.131947  0.004752  3.927159  0.005  0.134159  0.11915  0.008821  3.902735  0.008
C  C37  1  0.10656390  0.29925650  0.68378192  1  0.132083  -0.007071  3.667965  -0.007  0.125179  -0.006782  3.910949  -0.007  0.132186  -0.004754  3.927062  -0.005  0.134106  0.11938  -0.008824  3.902644  -0.008
C  C38  1  0.84643706  0.76615170  0.41422949  1  0.169555  -0.002592  3.76275  -0.003  0.165099  0.001326  4.009284  0.001  0.169981  -0.000201  4.033032  -0.001  0.111779  0.162134  0.002522  3.993713  0.002
C  C39  1  0.15355586  0.23387230  0.58576610  1  0.169375  0.00259  3.762768  0.003  0.164952  -0.001322  4.009341  -0.001  0.169834  0.000203  4.033094  0.001  0.111722  0.161993  -0.00252  3.993761  -0.002
C  C40  1  0.94930128  0.79956128  0.47824431  1  -0.131266  0.00902  3.682925  0.009  -0.149315  0.00486  3.925016  0.005  -0.156075  0.004298  3.945575  0.004  -0.076724  -0.14547  0.004771  3.912083  0.005
C  C41  1  0.05069299  0.20045160  0.52175641  1  -0.131184  -0.009012  3.68272  -0.009  -0.149208  -0.004863  3.924788  -0.005  -0.155968  -0.004299  3.945346  -0.004  -0.076725  -0.145367  -0.004773  3.911852  -0.005
C  C42  1  0.88879610  0.84498908  0.58263750  1  0.003726  -0.007218  3.677145  -0.007  -0.012707  -0.002631  3.922024  -0.002  -0.009358  -0.003079  3.938515  -0.003  -0.06257  -0.014894  -0.002205  3.912711  -0.002
C  C43  1  0.11122067  0.15500037  0.41738105  1  0.003662  0.007204  3.6772  0.007  -0.012763  0.002634  3.922016  0.002  -0.009409  0.00308  3.938501  0.003  -0.062558  -0.014948  0.002207  3.912719  0.002
C  C44  1  0.72878998  0.85748011  0.61850731  1  -0.066381  0.007679  3.647871  0.008  -0.079402  0.003521  3.890104  0.004  -0.082833  0.003531  3.904976  0.004  -0.068372  -0.079417  0.003997  3.88436  0.005
C  C45  1  0.27122347  0.14250156  0.38151745  1  -0.066405  -0.007672  3.647782  -0.008  -0.079317  -0.003525  3.889998  -0.004  -0.082751  -0.003534  3.904878  -0.004  -0.068358  -0.079341  -0.004  3.884244  -0.005
C  C46  1  0.63247227  0.82079236  0.55163637  1  0.156438  -0.008247  3.630936  -0.009  0.129233  -0.00189  3.876428  -0.003  0.139359  -0.002872  3.891626  -0.004  0.059504  0.12172  -0.000682  3.869241  -0.001
C  C47  1  0.36753524  0.17919709  0.44838565  1  0.156353  0.008223  3.630788  0.008  0.129111  0.001891  3.876342  0.003  0.139231  0.002873  3.891549  0.004  0.059467  0.121591  0.000683  3.869161  0.001
C  C48  1  0.82794428  0.51457519  0.27439160  1  0.110925  0.004414  3.623151  0.004  0.084714  0.003584  3.87134  0.003  0.092665  0.002301  3.881018  0.002  0.063963  0.07877  0.004141  3.867881  0.004
C  C49  1  0.17205408  0.48540761  0.72563330  1  0.111127  -0.004431  3.623119  -0.004  0.084917  -0.003589  3.871372  -0.003  0.092844  -0.002303  3.881022  -0.002  0.064067  0.078971  -0.004145  3.867907  -0.004
C  C50  1  0.97643899  0.52009553  0.19519169  1  0.106472  -0.003369  3.615911  -0.004  0.078194  0.001015  3.872335  0.0  0.086741  -0.000305  3.881906  -0.001  0.065879  0.070887  0.002804  3.869432  0.002
C  C51  1  0.02355948  0.47988063  0.80483260  1  0.106296  0.003376  3.616288  0.004  0.078083  -0.001016  3.872613  0.0  0.086629  0.000304  3.882198  0.001  0.065888  0.070782  -0.002805  3.86971  -0.002
C  C52  1  0.44240071  0.43816473  0.02641497  1  0.522411  -0.001087  3.90512  -0.002  0.486994  0.000223  4.197941  0.0  0.522443  0.000184  4.194688  0.0  0.200884  0.460614  0.000183  4.20074  0.0
C  C53  1  0.55758774  0.56184058  0.97355819  1  0.522407  0.001094  3.905629  0.002  0.486918  -0.000222  4.198545  0.0  0.52236  -0.000183  4.195296  0.0  0.200899  0.460535  -0.000178  4.201344  0.0
N  N54  1  0.24836303  0.85683136  0.03660270  1  -0.301457  0.090578  3.338121  0.111  -0.261805  0.064311  3.631115  0.083  -0.294391  0.052654  3.653647  0.072  -0.34355  -0.243642  0.063504  3.619548  0.08
N  N55  1  0.75161152  0.14317722  0.96338167  1  -0.301545  -0.090532  3.338295  -0.111  -0.261597  -0.064294  3.631126  -0.083  -0.294205  -0.052643  3.653645  -0.072  -0.343531  -0.243474  -0.063485  3.619634  -0.08
N  N56  1  0.07071213  0.63000314  0.15848603  1  -0.271164  0.052524  3.322392  0.066  -0.234081  0.046207  3.620695  0.061  -0.254492  0.038978  3.632175  0.054  -0.326507  -0.22311  0.044775  3.616619  0.057
N  N57  1  0.92929190  0.36998632  0.84153564  1  -0.271253  -0.052515  3.322732  -0.066  -0.234098  -0.046199  3.620984  -0.061  -0.254535  -0.038968  3.632477  -0.054  -0.326565  -0.223114  -0.044769  3.616907  -0.057
N  N58  1  0.78934297  0.60409193  0.33366950  1  -0.274838  0.03678  3.291697  0.045  -0.22845  0.036629  3.570259  0.047  -0.248943  0.031894  3.585129  0.043  -0.318922  -0.21839  0.040326  3.564283  0.05
N  N59  1  0.21064532  0.39593097  0.66632457  1  -0.275084  -0.036788  3.291801  -0.045  -0.228651  -0.036632  3.570417  -0.047  -0.249154  -0.031895  3.585298  -0.043  -0.318954  -0.218584  -0.040332  3.564434  -0.05
N  N60  1  0.69106986  0.77425194  0.45369978  1  -0.31231  0.074577  3.35361  0.092  -0.259178  0.061348  3.630502  0.08  -0.28969  0.053438  3.654823  0.073  -0.345612  -0.241377  0.065896  3.615885  0.083
N  N61  1  0.30893023  0.22576091  0.54630469  1  -0.312366  -0.074583  3.353537  -0.092  -0.259268  -0.061363  3.630501  -0.08  -0.289808  -0.053449  3.654856  -0.073  -0.345615  -0.241468  -0.065909  3.615882  -0.083
Cl  Cl62  1  0.20183499  0.79320524  0.77075095  1  -0.628573  0.024187  0.811408  0.029  -0.610002  0.004353  1.059028  0.007  -0.632618  0.001952  1.038375  0.004  -0.369625  -0.590327  0.005515  1.073428  0.008
Cl  Cl63  1  0.79817295  0.20681661  0.22922892  1  -0.628622  -0.024164  0.811333  -0.029  -0.610058  -0.004345  1.058951  -0.007  -0.632693  -0.001947  1.038258  -0.004  -0.369649  -0.590361  -0.005502  1.073373  -0.008
Cl  Cl64  1  0.36231763  0.81935086  0.37444517  1  -0.473936  0.162765  0.983848  0.189  -0.485781  0.09978  1.268413  0.123  -0.524116  0.077856  1.252695  0.1  -0.2937  -0.462393  0.109671  1.280324  0.131
Cl  Cl65  1  0.63765545  0.18061758  0.62558053  1  -0.473912  -0.16276  0.983838  -0.189  -0.485801  -0.099786  1.268487  -0.123  -0.524161  -0.077858  1.252773  -0.1  -0.293684  -0.462413  -0.109674  1.280393  -0.131
Cl  Cl66  1  0.45592724  0.53811249  0.32018246  1  -0.48083  0.127578  1.109985  0.145  -0.49505  0.079837  1.43035  0.095  -0.530604  0.062739  1.40531  0.077  -0.284891  -0.473942  0.087424  1.448376  0.101
Cl  Cl67  1  0.54407485  0.46191160  0.67979544  1  -0.480859  -0.127546  1.11009  -0.145  -0.495008  -0.079819  1.430382  -0.095  -0.530586  -0.062719  1.405366  -0.077  -0.284855  -0.473902  -0.087402  1.448412  -0.101
O  O68  1  0.29917478  0.47005649  0.04764366  1  -0.517281  0.066544  2.075266  0.086  -0.497674  0.047977  2.344716  0.068  -0.544276  0.038479  2.342376  0.057  -0.29763  -0.460906  0.045739  2.344401  0.062
O  O69  1  0.70081267  0.52994755  0.95235395  1  -0.51718  -0.066557  2.075421  -0.086  -0.497622  -0.047975  2.344925  -0.068  -0.544246  -0.038476  2.342593  -0.057  -0.29764  -0.460846  -0.045746  2.344619  -0.062
O  O70  1  0.49659690  0.31256836  0.04595732  1  -0.510528  -0.03572  2.088279  -0.047  -0.479894  -0.036461  2.347669  -0.052  -0.523109  -0.029969  2.344569  -0.045  -0.285065  -0.445149  -0.034264  2.347717  -0.047
O  O71  1  0.50336712  0.68743601  0.95399585  1  -0.510644  0.035674  2.088606  0.047  -0.479825  0.036441  2.347871  0.052  -0.523061  0.029953  2.344877  0.045  -0.285017  -0.445087  0.034234  2.347905  0.047
