# generated using pymatgen
data_SmH4C8N2Cl3
_symmetry_space_group_name_H-M   'P 1'
_cell_length_a   6.30208587
_cell_length_b   7.15750877
_cell_length_c   22.15617431
_cell_angle_alpha   89.99949800
_cell_angle_beta   90.00029413
_cell_angle_gamma   89.99994499
_symmetry_Int_Tables_number   1
_chemical_formula_structural   SmH4C8N2Cl3
_chemical_formula_sum   'Sm4 H16 C32 N8 Cl12'
_cell_volume   999.40375883
_cell_formula_units_Z   4
loop_
 _symmetry_equiv_pos_site_id
 _symmetry_equiv_pos_as_xyz
  1  'x, y, z'
loop_
 _atom_site_type_symbol
 _atom_site_label
 _atom_site_symmetry_multiplicity
 _atom_site_fract_x
 _atom_site_fract_y
 _atom_site_fract_z
 _atom_site_occupancy
 _atom_site_hle17_bader_spin_density
 _atom_site_hle17_ddec_charge
 _atom_site_hle17_ddec_spin_density
 _atom_site_hle17_ddec_sum_bond_order
 _atom_site_hle17_magmom
 _atom_site_hse06_10hf_bader_spin_density
 _atom_site_hse06_10hf_ddec_charge
 _atom_site_hse06_10hf_ddec_spin_density
 _atom_site_hse06_10hf_ddec_sum_bond_order
 _atom_site_hse06_10hf_magmom
 _atom_site_hse06_bader_spin_density
 _atom_site_hse06_ddec_charge
 _atom_site_hse06_ddec_spin_density
 _atom_site_hse06_ddec_sum_bond_order
 _atom_site_hse06_magmom
 _atom_site_pbe_bader_spin_density
 _atom_site_pbe_cm5_charge
 _atom_site_pbe_ddec_charge
 _atom_site_pbe_ddec_spin_density
 _atom_site_pbe_ddec_sum_bond_order
 _atom_site_pbe_magmom
Sm  Sm0  1  0.45106250  0.48959011  0.24999759  1  0  2.117504  0  1.666099  0  0  1.9642  0  2.164261  0  0  2.013842  0  2.109665  0  0  1.039639  1.925896  0  2.208021  0
Sm  Sm1  1  0.95106107  0.01041813  0.74999965  1  0  2.117568  0  1.666068  0  0  1.96431  0  2.164174  0  0  2.013956  0  2.10957  0  0  1.039668  1.926002  0  2.20793  0
Sm  Sm2  1  0.04893665  0.98958688  0.24999750  1  0  2.117464  0  1.666178  0  0  1.964138  0  2.164385  0  0  2.013805  0  2.109739  0  0  1.03968  1.925855  0  2.208105  0
Sm  Sm3  1  0.54894474  0.51040931  0.75000091  1  0  2.117518  0  1.66603  0  0  1.964241  0  2.164158  0  0  2.013887  0  2.109555  0  0  1.039646  1.925944  0  2.207901  0
H  H4  1  0.12276167  0.60958504  0.10131540  1  0  0.135574  0  0.967929  0  0  0.143476  0  1.027065  0  0  0.147245  0  1.024989  0  0  0.102765  0.140604  0  1.028872  0
H  H5  1  0.62280733  0.89041248  0.89868129  1  0  0.13551  0  0.968069  0  0  0.143446  0  1.027245  0  0  0.147207  0  1.025183  0  0  0.102843  0.140643  0  1.02897  0
H  H6  1  0.37723311  0.10958171  0.39868623  1  0  0.135587  0  0.96825  0  0  0.143531  0  1.02736  0  0  0.14729  0  1.025299  0  0  0.102839  0.140725  0  1.029097  0
H  H7  1  0.87721713  0.39041681  0.60131407  1  0  0.135458  0  0.968114  0  0  0.143409  0  1.027249  0  0  0.147167  0  1.02519  0  0  0.10278  0.140601  0  1.028972  0
H  H8  1  0.87720590  0.39041717  0.89868265  1  0  0.135478  0  0.968202  0  0  0.143392  0  1.027375  0  0  0.147153  0  1.025313  0  0  0.1028  0.140585  0  1.029104  0
H  H9  1  0.37721260  0.10957436  0.10130998  1  0  0.135517  0  0.967995  0  0  0.143388  0  1.027179  0  0  0.147166  0  1.02509  0  0  0.102759  0.140517  0  1.028988  0
H  H10  1  0.62278841  0.89041212  0.60131678  1  0  0.135617  0  0.968027  0  0  0.143553  0  1.027184  0  0  0.147312  0  1.025123  0  0  0.102857  0.140747  0  1.028915  0
H  H11  1  0.12278694  0.60960496  0.39868668  1  0  0.135501  0  0.96806  0  0  0.143424  0  1.027218  0  0  0.147183  0  1.025156  0  0  0.102761  0.140614  0  1.028957  0
H  H12  1  0.64302723  0.35437286  0.98783107  1  0  0.103234  0  0.960041  0  0  0.112823  0  1.022097  0  0  0.11486  0  1.023133  0  0  0.105856  0.111303  0  1.021544  0
H  H13  1  0.14301460  0.14560212  0.01216307  1  0  0.103217  0  0.96002  0  0  0.112783  0  1.022135  0  0  0.114817  0  1.023173  0  0  0.105839  0.111284  0  1.021528  0
H  H14  1  0.85697505  0.85437828  0.51216531  1  0  0.103153  0  0.959789  0  0  0.112761  0  1.021857  0  0  0.114795  0  1.022898  0  0  0.105773  0.111215  0  1.021308  0
H  H15  1  0.35699283  0.64563300  0.48783619  1  0  0.103166  0  0.95971  0  0  0.112702  0  1.021894  0  0  0.114733  0  1.022938  0  0  0.105776  0.111218  0  1.021252  0
H  H16  1  0.35696573  0.64560839  0.01216833  1  0  0.103258  0  0.960097  0  0  0.112817  0  1.022176  0  0  0.114853  0  1.023212  0  0  0.105851  0.111321  0  1.021592  0
H  H17  1  0.85696249  0.85438612  0.98783678  1  0  0.103229  0  0.960087  0  0  0.112857  0  1.022107  0  0  0.114895  0  1.023144  0  0  0.105834  0.111312  0  1.021589  0
H  H18  1  0.14303060  0.14561555  0.48783138  1  0  0.103253  0  0.959943  0  0  0.112825  0  1.022009  0  0  0.114861  0  1.023044  0  0  0.105852  0.111291  0  1.021475  0
H  H19  1  0.64305566  0.35438598  0.51216501  1  0  0.103185  0  0.960196  0  0  0.112818  0  1.022207  0  0  0.114854  0  1.02324  0  0  0.105877  0.111324  0  1.021628  0
C  C20  1  0.73407998  0.46249029  0.10137287  1  0  0.343017  0  3.660423  0  0  0.322396  0  3.925605  0  0  0.334932  0  3.941655  0  0  0.222632  0.313784  0  3.91507  0
C  C21  1  0.23412376  0.03749997  0.89863086  1  0  0.342809  0  3.6602  0  0  0.322258  0  3.925347  0  0  0.334799  0  3.94139  0  0  0.222506  0.313629  0  3.914818  0
C  C22  1  0.76590716  0.96250260  0.39862608  1  0  0.342727  0  3.660371  0  0  0.322107  0  3.92557  0  0  0.334647  0  3.941623  0  0  0.222457  0.313487  0  3.91504  0
C  C23  1  0.26588930  0.53751715  0.60137666  1  0  0.342867  0  3.659851  0  0  0.322236  0  3.925084  0  0  0.334775  0  3.941137  0  0  0.2225  0.313607  0  3.91454  0
C  C24  1  0.26589394  0.53749795  0.89863014  1  0  0.342936  0  3.660052  0  0  0.322354  0  3.925229  0  0  0.334893  0  3.941272  0  0  0.222585  0.313725  0  3.914702  0
C  C25  1  0.76590727  0.96249945  0.10137621  1  0  0.34269  0  3.659713  0  0  0.322083  0  3.924936  0  0  0.334623  0  3.940989  0  0  0.222479  0.313459  0  3.914408  0
C  C26  1  0.23411754  0.03750101  0.60136700  1  0  0.342766  0  3.659831  0  0  0.322241  0  3.92497  0  0  0.334786  0  3.941011  0  0  0.222446  0.313611  0  3.914436  0
C  C27  1  0.73410366  0.46248367  0.39863087  1  0  0.343053  0  3.660548  0  0  0.32249  0  3.925692  0  0  0.33503  0  3.941739  0  0  0.222672  0.313872  0  3.915167  0
C  C28  1  0.86843337  0.47938784  0.04999764  1  0  0.024054  0  3.851079  0  0  0.042974  0  4.086649  0  0  0.042118  0  4.105631  0  0  0.011646  0.043476  0  4.073944  0
C  C29  1  0.36844967  0.02060091  0.95000446  1  0  0.024331  0  3.850989  0  0  0.043176  0  4.086643  0  0  0.042321  0  4.105616  0  0  0.011649  0.043687  0  4.07396  0
C  C30  1  0.63156327  0.97938637  0.45000217  1  0  0.024264  0  3.850496  0  0  0.043189  0  4.086127  0  0  0.042335  0  4.105102  0  0  0.011705  0.043689  0  4.073443  0
C  C31  1  0.13153168  0.52058460  0.54999995  1  0  0.024315  0  3.850602  0  0  0.043233  0  4.086196  0  0  0.042378  0  4.105175  0  0  0.011668  0.043746  0  4.073499  0
C  C32  1  0.13154531  0.52061019  0.95000628  1  0  0.024372  0  3.850916  0  0  0.043224  0  4.086541  0  0  0.04237  0  4.105514  0  0  0.011656  0.043736  0  4.073855  0
C  C33  1  0.63155122  0.97939990  0.04999900  1  0  0.024286  0  3.850748  0  0  0.043137  0  4.08636  0  0  0.042279  0  4.105343  0  0  0.011607  0.043647  0  4.073654  0
C  C34  1  0.36842969  0.02061724  0.54999271  1  0  0.024418  0  3.850512  0  0  0.043249  0  4.0862  0  0  0.04239  0  4.105177  0  0  0.011698  0.043759  0  4.073509  0
C  C35  1  0.86840574  0.47940923  0.45000803  1  0  0.024387  0  3.850681  0  0  0.043229  0  4.086329  0  0  0.042365  0  4.105319  0  0  0.011681  0.043726  0  4.073649  0
C  C36  1  0.06988033  0.56172820  0.05708081  1  0  -0.059924  0  3.657212  0  0  -0.083116  0  3.903463  0  0  -0.084202  0  3.9212  0  0  -0.067288  -0.082349  0  3.891669  0
C  C37  1  0.56989829  0.93823723  0.94291626  1  0  -0.05987  0  3.657222  0  0  -0.083143  0  3.903568  0  0  -0.084224  0  3.921313  0  0  -0.067418  -0.082425  0  3.891725  0
C  C38  1  0.43009387  0.06176560  0.44291735  1  0  -0.059967  0  3.656855  0  0  -0.083279  0  3.903218  0  0  -0.084353  0  3.920952  0  0  -0.067457  -0.082568  0  3.891406  0
C  C39  1  0.93011183  0.43823707  0.55707941  1  0  -0.059906  0  3.657563  0  0  -0.083219  0  3.903944  0  0  -0.084295  0  3.921685  0  0  -0.06732  -0.082504  0  3.892106  0
C  C40  1  0.93011897  0.43822931  0.94291497  1  0  -0.059983  0  3.657267  0  0  -0.083202  0  3.903573  0  0  -0.084284  0  3.921317  0  0  -0.067381  -0.082481  0  3.891735  0
C  C41  1  0.43010894  0.06173843  0.05707772  1  0  -0.059918  0  3.657583  0  0  -0.083054  0  3.903774  0  0  -0.084143  0  3.921505  0  0  -0.067232  -0.08229  0  3.891984  0
C  C42  1  0.56991496  0.93824360  0.55708521  1  0  -0.060042  0  3.656559  0  0  -0.083312  0  3.902946  0  0  -0.084388  0  3.920686  0  0  -0.067478  -0.082597  0  3.891103  0
C  C43  1  0.06989064  0.56175955  0.44292089  1  0  -0.060105  0  3.657257  0  0  -0.083313  0  3.903524  0  0  -0.084389  0  3.921275  0  0  -0.067408  -0.082598  0  3.891698  0
C  C44  1  0.79919459  0.41784034  0.99291949  1  0  -0.092286  0  3.712906  0  0  -0.113831  0  3.963078  0  0  -0.115949  0  3.983356  0  0  -0.073268  -0.112294  0  3.949389  0
C  C45  1  0.29920255  0.08215825  0.00707214  1  0  -0.092494  0  3.713217  0  0  -0.114006  0  3.963342  0  0  -0.116123  0  3.983622  0  0  -0.073376  -0.112472  0  3.949655  0
C  C46  1  0.70076478  0.91783625  0.50707714  1  0  -0.09246  0  3.713344  0  0  -0.113977  0  3.963525  0  0  -0.116101  0  3.983809  0  0  -0.073275  -0.1124  0  3.94985  0
C  C47  1  0.20077797  0.58216819  0.49291739  1  0  -0.0925  0  3.712945  0  0  -0.113976  0  3.963114  0  0  -0.116099  0  3.9834  0  0  -0.073278  -0.112438  0  3.949428  0
C  C48  1  0.20078091  0.58217584  0.00707449  1  0  -0.092621  0  3.713234  0  0  -0.114124  0  3.963431  0  0  -0.116242  0  3.983707  0  0  -0.073457  -0.112606  0  3.949728  0
C  C49  1  0.70078564  0.91783977  0.99292095  1  0  -0.092511  0  3.713146  0  0  -0.114048  0  3.963323  0  0  -0.116168  0  3.983603  0  0  -0.073291  -0.112495  0  3.949646  0
C  C50  1  0.29921707  0.08215758  0.49292858  1  0  -0.09251  0  3.713404  0  0  -0.113965  0  3.963603  0  0  -0.116082  0  3.98388  0  0  -0.073323  -0.112422  0  3.949927  0
C  C51  1  0.79921023  0.41784241  0.50707027  1  0  -0.092347  0  3.713457  0  0  -0.113897  0  3.963691  0  0  -0.116006  0  3.983962  0  0  -0.073348  -0.112382  0  3.949988  0
N  N52  1  0.62584165  0.45532249  0.14387338  1  0  -0.439182  0  2.799544  0  0  -0.39863  0  3.055136  0  0  -0.411806  0  3.066568  0  0  -0.341459  -0.389853  0  3.048011  0
N  N53  1  0.12585758  0.04468323  0.85613022  1  0  -0.43911  0  2.798943  0  0  -0.39857  0  3.054492  0  0  -0.411748  0  3.065925  0  0  -0.341358  -0.389785  0  3.04736  0
N  N54  1  0.87416612  0.95531065  0.35612650  1  0  -0.438951  0  2.799393  0  0  -0.398388  0  3.054976  0  0  -0.411568  0  3.066414  0  0  -0.341282  -0.389609  0  3.047843  0
N  N55  1  0.37416658  0.54467547  0.64387232  1  0  -0.439129  0  2.79913  0  0  -0.398563  0  3.054722  0  0  -0.411742  0  3.066159  0  0  -0.341381  -0.389776  0  3.047589  0
N  N56  1  0.37416083  0.54468670  0.85613234  1  0  -0.439189  0  2.799214  0  0  -0.398659  0  3.054833  0  0  -0.411836  0  3.066267  0  0  -0.341401  -0.389872  0  3.047705  0
N  N57  1  0.87417187  0.95532736  0.14387505  1  0  -0.438925  0  2.79896  0  0  -0.398364  0  3.054553  0  0  -0.411544  0  3.065989  0  0  -0.341344  -0.389585  0  3.047425  0
N  N58  1  0.12585540  0.04468737  0.64387065  1  0  -0.439109  0  2.798572  0  0  -0.398602  0  3.054159  0  0  -0.41178  0  3.065591  0  0  -0.341308  -0.389815  0  3.047024  0
N  N59  1  0.62585177  0.45534072  0.35613340  1  0  -0.439235  0  2.799425  0  0  -0.398696  0  3.054977  0  0  -0.411871  0  3.066405  0  0  -0.341462  -0.389918  0  3.04785  0
Cl  Cl60  1  0.32603790  0.78506963  0.17583355  1  0  -0.709627  0  0.994413  0  0  -0.665152  0  1.268765  0  0  -0.681714  0  1.252046  0  0  -0.319846  -0.652131  0  1.281181  0
Cl  Cl61  1  0.82604413  0.71492771  0.82416927  1  0  -0.709565  0  0.99428  0  0  -0.665128  0  1.26866  0  0  -0.681682  0  1.251937  0  0  -0.319833  -0.652127  0  1.281089  0
Cl  Cl62  1  0.17395670  0.28506700  0.32417072  1  0  -0.709594  0  0.99422  0  0  -0.665157  0  1.268592  0  0  -0.681715  0  1.251869  0  0  -0.319824  -0.652154  0  1.281019  0
Cl  Cl63  1  0.67396147  0.21492611  0.67583429  1  0  -0.70956  0  0.994328  0  0  -0.665102  0  1.268653  0  0  -0.681656  0  1.25193  0  0  -0.319833  -0.652097  0  1.281071  0
Cl  Cl64  1  0.67395665  0.21492001  0.82416946  1  0  -0.709557  0  0.994288  0  0  -0.665114  0  1.26865  0  0  -0.681669  0  1.251929  0  0  -0.319854  -0.652113  0  1.281085  0
Cl  Cl65  1  0.17395676  0.28507590  0.17583374  1  0  -0.709596  0  0.994287  0  0  -0.665135  0  1.268664  0  0  -0.681697  0  1.251947  0  0  -0.319855  -0.652112  0  1.281069  0
Cl  Cl66  1  0.82603784  0.71492823  0.67583139  1  0  -0.709573  0  0.994262  0  0  -0.665137  0  1.268622  0  0  -0.68169  0  1.2519  0  0  -0.319827  -0.652136  0  1.281046  0
Cl  Cl67  1  0.32604259  0.78507889  0.32416962  1  0  -0.709573  0  0.994283  0  0  -0.665118  0  1.268639  0  0  -0.681676  0  1.251916  0  0  -0.319825  -0.652107  0  1.281069  0
Cl  Cl68  1  0.84686787  0.65176089  0.24999940  1  0  -0.727056  0  1.04033  0  0  -0.685845  0  1.32834  0  0  -0.704583  0  1.311783  0  0  -0.321497  -0.670754  0  1.340271  0
Cl  Cl69  1  0.34687496  0.84824622  0.74999983  1  0  -0.727088  0  1.040284  0  0  -0.685874  0  1.328259  0  0  -0.704632  0  1.311739  0  0  -0.321512  -0.670784  0  1.340183  0
Cl  Cl70  1  0.65313069  0.15175181  0.25000138  1  0  -0.727084  0  1.040322  0  0  -0.685853  0  1.3283  0  0  -0.704607  0  1.311771  0  0  -0.321484  -0.670765  0  1.340226  0
Cl  Cl71  1  0.15312984  0.34825530  0.75000271  1  0  -0.727137  0  1.040353  0  0  -0.685918  0  1.32832  0  0  -0.704656  0  1.311768  0  0  -0.321497  -0.670827  0  1.340246  0
