# generated using pymatgen
data_AgH6C9ClO2
_symmetry_space_group_name_H-M   'P 1'
_cell_length_a   5.73621248
_cell_length_b   8.34376999
_cell_length_c   18.19231895
_cell_angle_alpha   89.99985532
_cell_angle_beta   89.22877346
_cell_angle_gamma   89.99933615
_symmetry_Int_Tables_number   1
_chemical_formula_structural   AgH6C9ClO2
_chemical_formula_sum   'Ag4 H24 C36 Cl4 O8'
_cell_volume   870.63529674
_cell_formula_units_Z   4
loop_
 _symmetry_equiv_pos_site_id
 _symmetry_equiv_pos_as_xyz
  1  'x, y, z'
loop_
 _atom_site_type_symbol
 _atom_site_label
 _atom_site_symmetry_multiplicity
 _atom_site_fract_x
 _atom_site_fract_y
 _atom_site_fract_z
 _atom_site_occupancy
 _atom_site_hle17_bader_spin_density
 _atom_site_hle17_ddec_charge
 _atom_site_hle17_ddec_spin_density
 _atom_site_hle17_ddec_sum_bond_order
 _atom_site_hle17_magmom
 _atom_site_hse06_10hf_bader_spin_density
 _atom_site_hse06_10hf_ddec_charge
 _atom_site_hse06_10hf_ddec_spin_density
 _atom_site_hse06_10hf_ddec_sum_bond_order
 _atom_site_hse06_10hf_magmom
 _atom_site_hse06_bader_spin_density
 _atom_site_hse06_ddec_charge
 _atom_site_hse06_ddec_spin_density
 _atom_site_hse06_ddec_sum_bond_order
 _atom_site_hse06_magmom
 _atom_site_pbe_bader_spin_density
 _atom_site_pbe_cm5_charge
 _atom_site_pbe_ddec_charge
 _atom_site_pbe_ddec_spin_density
 _atom_site_pbe_ddec_sum_bond_order
 _atom_site_pbe_magmom
Ag  Ag0  1  0.93220968  0.86664457  0.53919689  1  0  0.592455  0  1.473584  0  0  0.486992  0  1.937231  0  0  0.516923  0  1.87893  0  0  0.424292  0.466852  0  1.977146  0
Ag  Ag1  1  0.56778280  0.36663815  0.46080608  1  0  0.592465  0  1.473632  0  0  0.486949  0  1.937286  0  0  0.516878  0  1.878986  0  0  0.424266  0.466801  0  1.977193  0
Ag  Ag2  1  0.06778679  0.13336307  0.46080489  1  0  0.592505  0  1.473575  0  0  0.487039  0  1.937233  0  0  0.516965  0  1.878934  0  0  0.424297  0.466897  0  1.977141  0
Ag  Ag3  1  0.43220851  0.63336949  0.53919350  1  0  0.592465  0  1.473614  0  0  0.486968  0  1.937281  0  0  0.516896  0  1.878984  0  0  0.4243  0.46683  0  1.977184  0
H  H4  1  0.27635198  0.86109797  0.38631173  1  0  0.124524  0  0.979712  0  0  0.129693  0  1.049337  0  0  0.133999  0  1.046685  0  0  0.100311  0.126589  0  1.051498  0
H  H5  1  0.22366390  0.36112412  0.61368497  1  0  0.124493  0  0.979686  0  0  0.129647  0  1.049333  0  0  0.133952  0  1.046681  0  0  0.100286  0.126545  0  1.051493  0
H  H6  1  0.72365863  0.13890367  0.61368455  1  0  0.124666  0  0.979643  0  0  0.129726  0  1.049377  0  0  0.134032  0  1.046726  0  0  0.100297  0.126622  0  1.051537  0
H  H7  1  0.77631690  0.63887632  0.38631628  1  0  0.124511  0  0.979558  0  0  0.129647  0  1.049236  0  0  0.133952  0  1.046584  0  0  0.100301  0.126543  0  1.051399  0
H  H8  1  0.47447399  0.14966692  0.29921824  1  0  0.099596  0  0.939855  0  0  0.110406  0  1.00236  0  0  0.112892  0  1.000872  0  0  0.104674  0.108592  0  1.003438  0
H  H9  1  0.02554007  0.64968637  0.70078395  1  0  0.099512  0  0.939955  0  0  0.110354  0  1.002439  0  0  0.112833  0  1.000969  0  0  0.10465  0.108546  0  1.003511  0
H  H10  1  0.52553490  0.85034431  0.70077749  1  0  0.099565  0  0.939994  0  0  0.110414  0  1.002447  0  0  0.11289  0  1.000994  0  0  0.104631  0.108594  0  1.003514  0
H  H11  1  0.97445648  0.35031527  0.29921563  1  0  0.09954  0  0.939758  0  0  0.110386  0  1.002249  0  0  0.112856  0  1.000802  0  0  0.104635  0.10857  0  1.003319  0
H  H12  1  0.93848563  0.87914592  0.32099798  1  0  0.102578  0  0.950221  0  0  0.114882  0  1.008319  0  0  0.117226  0  1.007684  0  0  0.105303  0.113166  0  1.008831  0
H  H13  1  0.56153275  0.37916265  0.67900604  1  0  0.102516  0  0.950258  0  0  0.114839  0  1.008329  0  0  0.117183  0  1.007696  0  0  0.105255  0.113112  0  1.008866  0
H  H14  1  0.06152640  0.12086531  0.67900709  1  0  0.102516  0  0.950203  0  0  0.114825  0  1.008294  0  0  0.117168  0  1.00766  0  0  0.105263  0.113097  0  1.008832  0
H  H15  1  0.43845857  0.62084019  0.32099354  1  0  0.102571  0  0.950254  0  0  0.114878  0  1.008333  0  0  0.117222  0  1.007701  0  0  0.105272  0.113149  0  1.008872  0
H  H16  1  0.66567315  0.82726269  0.21916126  1  0  0.103803  0  0.977752  0  0  0.113859  0  1.040362  0  0  0.115705  0  1.042045  0  0  0.098441  0.112531  0  1.039299  0
H  H17  1  0.83434616  0.32727265  0.78084125  1  0  0.103891  0  0.977789  0  0  0.113967  0  1.040359  0  0  0.115807  0  1.042056  0  0  0.098477  0.11264  0  1.039293  0
H  H18  1  0.33434058  0.17273296  0.78084490  1  0  0.103875  0  0.977682  0  0  0.113977  0  1.040238  0  0  0.11582  0  1.041932  0  0  0.098483  0.112642  0  1.039185  0
H  H19  1  0.16566259  0.67273379  0.21915833  1  0  0.103892  0  0.977804  0  0  0.114004  0  1.040333  0  0  0.115848  0  1.042013  0  0  0.098466  0.112648  0  1.039304  0
H  H20  1  0.08963657  0.11656452  0.07355808  1  0  0.104597  0  0.96184  0  0  0.109599  0  1.030437  0  0  0.113423  0  1.027894  0  0  0.094445  0.106867  0  1.032324  0
H  H21  1  0.41036240  0.61656332  0.92644310  1  0  0.104555  0  0.961866  0  0  0.109588  0  1.030436  0  0  0.113412  0  1.027893  0  0  0.094445  0.10686  0  1.03232  0
H  H22  1  0.91036537  0.88340716  0.92643710  1  0  0.104622  0  0.961939  0  0  0.109651  0  1.030496  0  0  0.113475  0  1.027952  0  0  0.094419  0.106918  0  1.032384  0
H  H23  1  0.58963584  0.38343473  0.07355758  1  0  0.104571  0  0.96179  0  0  0.10958  0  1.030391  0  0  0.113403  0  1.027848  0  0  0.09441  0.106848  0  1.032279  0
H  H24  1  0.35911767  0.17289779  0.17629281  1  0  0.090071  0  0.979881  0  0  0.09999  0  1.043908  0  0  0.101684  0  1.045078  0  0  0.095731  0.09878  0  1.043145  0
H  H25  1  0.14088382  0.67289495  0.82370878  1  0  0.090033  0  0.979963  0  0  0.09996  0  1.043976  0  0  0.101655  0  1.045144  0  0  0.095717  0.098749  0  1.043214  0
H  H26  1  0.64088261  0.82709666  0.82370018  1  0  0.090094  0  0.979851  0  0  0.099973  0  1.04391  0  0  0.101669  0  1.045077  0  0  0.095722  0.098762  0  1.043152  0
H  H27  1  0.85910736  0.32710310  0.17629465  1  0  0.090119  0  0.979894  0  0  0.100015  0  1.043936  0  0  0.10171  0  1.045104  0  0  0.095749  0.098807  0  1.043176  0
C  C28  1  0.59854941  0.98353539  0.41556441  1  0  0.679047  0  3.916932  0  0  0.629064  0  4.19688  0  0  0.664977  0  4.193426  0  0  0.192948  0.604743  0  4.198306  0
C  C29  1  0.90145858  0.48355171  0.58443660  1  0  0.678616  0  3.917724  0  0  0.628673  0  4.197579  0  0  0.664585  0  4.194133  0  0  0.192848  0.604348  0  4.198997  0
C  C30  1  0.40146459  0.01646865  0.58443461  1  0  0.679039  0  3.916727  0  0  0.629134  0  4.196582  0  0  0.665049  0  4.193118  0  0  0.192997  0.604812  0  4.198011  0
C  C31  1  0.09852913  0.51645592  0.41556628  1  0  0.678686  0  3.917214  0  0  0.628782  0  4.197074  0  0  0.664693  0  4.193631  0  0  0.192891  0.604463  0  4.198489  0
C  C32  1  0.38321083  0.96526269  0.37212716  1  0  -0.283277  0  3.717263  0  0  -0.291247  0  3.985238  0  0  -0.303207  0  3.997683  0  0  -0.120248  -0.283809  0  3.977335  0
C  C33  1  0.11680326  0.46527771  0.62786982  1  0  -0.282927  0  3.717162  0  0  -0.290911  0  3.985093  0  0  -0.302868  0  3.997543  0  0  -0.120182  -0.283466  0  3.977177  0
C  C34  1  0.61680158  0.03474375  0.62786746  1  0  -0.283232  0  3.71711  0  0  -0.291111  0  3.985048  0  0  -0.303069  0  3.997491  0  0  -0.120179  -0.283665  0  3.977135  0
C  C35  1  0.88318986  0.53471794  0.37212812  1  0  -0.28302  0  3.717443  0  0  -0.290955  0  3.98536  0  0  -0.30291  0  3.99781  0  0  -0.120229  -0.283515  0  3.977447  0
C  C36  1  0.34838890  0.05442870  0.31091240  1  0  -0.014721  0  3.705078  0  0  -0.042669  0  3.957316  0  0  -0.034911  0  3.971022  0  0  -0.070709  -0.047874  0  3.94827  0
C  C37  1  0.15162856  0.55444475  0.68908893  1  0  -0.014814  0  3.705261  0  0  -0.042801  0  3.957518  0  0  -0.035045  0  3.971223  0  0  -0.070704  -0.048011  0  3.948475  0
C  C38  1  0.65162865  0.94557533  0.68908497  1  0  -0.014814  0  3.705113  0  0  -0.042745  0  3.95733  0  0  -0.034995  0  3.971038  0  0  -0.070635  -0.047938  0  3.948271  0
C  C39  1  0.84835553  0.44555569  0.31091725  1  0  -0.014839  0  3.705446  0  0  -0.042834  0  3.957705  0  0  -0.035083  0  3.971412  0  0  -0.070665  -0.048034  0  3.948649  0
C  C40  1  0.17124732  0.02866762  0.25572869  1  0  0.063128  0  3.806743  0  0  0.083268  0  4.038443  0  0  0.080972  0  4.061757  0  0  -0.015294  0.08469  0  4.022727  0
C  C41  1  0.32876191  0.52867757  0.74427162  1  0  0.063191  0  3.807193  0  0  0.083309  0  4.038908  0  0  0.081018  0  4.062218  0  0  -0.01522  0.084731  0  4.023194  0
C  C42  1  0.82876676  0.97133762  0.74426814  1  0  0.063225  0  3.806941  0  0  0.083237  0  4.038766  0  0  0.080943  0  4.062077  0  0  -0.015338  0.084658  0  4.023047  0
C  C43  1  0.67122939  0.47132647  0.25572852  1  0  0.063318  0  3.807039  0  0  0.083432  0  4.038739  0  0  0.08114  0  4.062053  0  0  -0.015179  0.084858  0  4.023018  0
C  C44  1  0.97252824  0.93191206  0.26709977  1  0  -0.071179  0  3.68263  0  0  -0.086892  0  3.921458  0  0  -0.087418  0  3.941806  0  0  -0.07901  -0.086476  0  3.907762  0
C  C45  1  0.52748058  0.43192555  0.73290248  1  0  -0.071028  0  3.682822  0  0  -0.086738  0  3.921644  0  0  -0.087265  0  3.941988  0  0  -0.079022  -0.086327  0  3.907945  0
C  C46  1  0.02747167  0.06809438  0.73290311  1  0  -0.071183  0  3.682613  0  0  -0.086858  0  3.921483  0  0  -0.087381  0  3.941825  0  0  -0.079022  -0.086439  0  3.907778  0
C  C47  1  0.47252452  0.56808208  0.26710150  1  0  -0.071139  0  3.682503  0  0  -0.086834  0  3.921347  0  0  -0.087367  0  3.941699  0  0  -0.079031  -0.086419  0  3.907639  0
C  C48  1  0.81877606  0.90206880  0.21027340  1  0  -0.13215  0  3.748732  0  0  -0.153098  0  3.996794  0  0  -0.157222  0  4.018538  0  0  -0.096741  -0.150297  0  3.982176  0
C  C49  1  0.68123507  0.40207637  0.78972727  1  0  -0.13235  0  3.748944  0  0  -0.15334  0  3.996998  0  0  -0.157471  0  4.018757  0  0  -0.096769  -0.150534  0  3.982374  0
C  C50  1  0.18123246  0.09792685  0.78973222  1  0  -0.132212  0  3.74858  0  0  -0.153209  0  3.996606  0  0  -0.157332  0  4.018342  0  0  -0.096698  -0.150408  0  3.982  0
C  C51  1  0.31875456  0.59792647  0.21027066  1  0  -0.13236  0  3.748454  0  0  -0.153361  0  3.996465  0  0  -0.157485  0  4.018219  0  0  -0.096742  -0.150539  0  3.981876  0
C  C52  1  0.86359663  0.96761687  0.14069079  1  0  0.140294  0  3.801382  0  0  0.151532  0  4.066328  0  0  0.155455  0  4.087448  0  0  0.013311  0.148699  0  4.052107  0
C  C53  1  0.63640463  0.46761772  0.85931082  1  0  0.140221  0  3.801408  0  0  0.151503  0  4.066305  0  0  0.155424  0  4.087425  0  0  0.013238  0.148671  0  4.052086  0
C  C54  1  0.13639980  0.03236559  0.85931209  1  0  0.140373  0  3.801323  0  0  0.151646  0  4.066223  0  0  0.155569  0  4.087344  0  0  0.013291  0.148813  0  4.052001  0
C  C55  1  0.36359542  0.53238392  0.14068821  1  0  0.140412  0  3.801574  0  0  0.151675  0  4.066485  0  0  0.155595  0  4.087604  0  0  0.013282  0.148838  0  4.052267  0
C  C56  1  0.05690186  0.06590773  0.12791893  1  0  -0.139986  0  3.782506  0  0  -0.161598  0  4.034408  0  0  -0.164839  0  4.053746  0  0  -0.101171  -0.159441  0  4.021462  0
C  C57  1  0.44309106  0.56590499  0.87208074  1  0  -0.139941  0  3.782518  0  0  -0.161589  0  4.034401  0  0  -0.164831  0  4.053743  0  0  -0.101154  -0.159436  0  4.021454  0
C  C58  1  0.94309302  0.93407473  0.87207845  1  0  -0.140154  0  3.78256  0  0  -0.161793  0  4.034407  0  0  -0.165034  0  4.053745  0  0  -0.101177  -0.159633  0  4.021455  0
C  C59  1  0.55689148  0.43408946  0.12792050  1  0  -0.140123  0  3.782581  0  0  -0.161718  0  4.034416  0  0  -0.164961  0  4.053755  0  0  -0.101181  -0.159559  0  4.02147  0
C  C60  1  0.20721710  0.09678532  0.18567031  1  0  -0.088221  0  3.721041  0  0  -0.107351  0  3.966772  0  0  -0.108705  0  3.987976  0  0  -0.085061  -0.106341  0  3.952418  0
C  C61  1  0.29278401  0.59678846  0.81432927  1  0  -0.088187  0  3.721338  0  0  -0.107321  0  3.967077  0  0  -0.108674  0  3.988276  0  0  -0.085076  -0.106311  0  3.952724  0
C  C62  1  0.79277794  0.90320674  0.81432268  1  0  -0.088222  0  3.721031  0  0  -0.107283  0  3.966813  0  0  -0.108637  0  3.988016  0  0  -0.085023  -0.106274  0  3.952456  0
C  C63  1  0.70720897  0.40321078  0.18567251  1  0  -0.088262  0  3.721233  0  0  -0.107376  0  3.966988  0  0  -0.108732  0  3.988195  0  0  -0.085116  -0.106367  0  3.952633  0
Cl  Cl64  1  0.67492429  0.92595773  0.06962648  1  0  -0.102094  0  1.349391  0  0  -0.084675  0  1.574294  0  0  -0.088811  0  1.569756  0  0  -0.002161  -0.081505  0  1.577399  0
Cl  Cl65  1  0.82508293  0.42596320  0.93037468  1  0  -0.102006  0  1.349377  0  0  -0.084597  0  1.574243  0  0  -0.08873  0  1.569708  0  0  -0.002103  -0.081426  0  1.577347  0
Cl  Cl66  1  0.32507738  0.07400795  0.93037584  1  0  -0.10204  0  1.349406  0  0  -0.084628  0  1.574276  0  0  -0.088762  0  1.569739  0  0  -0.002144  -0.081456  0  1.577381  0
Cl  Cl67  1  0.17491871  0.57403365  0.06962875  1  0  -0.102065  0  1.349546  0  0  -0.084666  0  1.574441  0  0  -0.0888  0  1.569906  0  0  -0.002136  -0.081489  0  1.577542  0
O  O68  1  0.65387824  0.86339886  0.45522926  1  0  -0.626705  0  2.124926  0  0  -0.545541  0  2.403804  0  0  -0.577581  0  2.390318  0  0  -0.323751  -0.523339  0  2.412253  0
O  O69  1  0.84612984  0.36341915  0.54477756  1  0  -0.626647  0  2.125118  0  0  -0.545391  0  2.403817  0  0  -0.577426  0  2.390341  0  0  -0.323671  -0.523191  0  2.412257  0
O  O70  1  0.34613063  0.13660757  0.54476702  1  0  -0.626796  0  2.12484  0  0  -0.545672  0  2.403719  0  0  -0.577715  0  2.390231  0  0  -0.3238  -0.523466  0  2.412166  0
O  O71  1  0.15385602  0.63658968  0.45522807  1  0  -0.626511  0  2.125083  0  0  -0.545363  0  2.40389  0  0  -0.5774  0  2.390413  0  0  -0.323647  -0.523168  0  2.412334  0
O  O72  1  0.72023155  0.11172516  0.40853792  1  0  -0.6418  0  2.161857  0  0  -0.556255  0  2.444508  0  0  -0.590593  0  2.434447  0  0  -0.335302  -0.532464  0  2.45056  0
O  O73  1  0.77976720  0.61174724  0.59146021  1  0  -0.641672  0  2.162237  0  0  -0.556091  0  2.444801  0  0  -0.590431  0  2.434744  0  0  -0.335306  -0.532297  0  2.450852  0
O  O74  1  0.27979127  0.88828367  0.59145835  1  0  -0.641728  0  2.161637  0  0  -0.556296  0  2.444399  0  0  -0.590628  0  2.434332  0  0  -0.335365  -0.53251  0  2.450457  0
O  O75  1  0.22022754  0.38826519  0.40854102  1  0  -0.641749  0  2.161836  0  0  -0.556254  0  2.444473  0  0  -0.59058  0  2.434388  0  0  -0.335381  -0.532457  0  2.450516  0
