# generated using pymatgen
data_ZnH18C22(NO)4
_symmetry_space_group_name_H-M   'P 1'
_cell_length_a   9.65082572
_cell_length_b   9.66064135
_cell_length_c   11.85803807
_cell_angle_alpha   108.47158576
_cell_angle_beta   103.39241913
_cell_angle_gamma   92.35690167
_symmetry_Int_Tables_number   1
_chemical_formula_structural   ZnH18C22(NO)4
_chemical_formula_sum   'Zn2 H36 C44 N8 O8'
_cell_volume   1012.20359660
_cell_formula_units_Z   2
loop_
 _symmetry_equiv_pos_site_id
 _symmetry_equiv_pos_as_xyz
  1  'x, y, z'
loop_
 _atom_site_type_symbol
 _atom_site_label
 _atom_site_symmetry_multiplicity
 _atom_site_fract_x
 _atom_site_fract_y
 _atom_site_fract_z
 _atom_site_occupancy
 _atom_site_hle17_bader_spin_density
 _atom_site_hle17_ddec_charge
 _atom_site_hle17_ddec_spin_density
 _atom_site_hle17_ddec_sum_bond_order
 _atom_site_hle17_magmom
 _atom_site_hse06_10hf_bader_spin_density
 _atom_site_hse06_10hf_ddec_charge
 _atom_site_hse06_10hf_ddec_spin_density
 _atom_site_hse06_10hf_ddec_sum_bond_order
 _atom_site_hse06_10hf_magmom
 _atom_site_hse06_bader_spin_density
 _atom_site_hse06_ddec_charge
 _atom_site_hse06_ddec_spin_density
 _atom_site_hse06_ddec_sum_bond_order
 _atom_site_hse06_magmom
 _atom_site_pbe_bader_spin_density
 _atom_site_pbe_cm5_charge
 _atom_site_pbe_ddec_charge
 _atom_site_pbe_ddec_spin_density
 _atom_site_pbe_ddec_sum_bond_order
 _atom_site_pbe_magmom
Zn  Zn0  1  0.47588294  0.09950970  0.24640886  1  0  1.006384  0  1.884165  0  0  0.816282  0  2.365457  0  0  0.863014  0  2.309605  0  0  0.69486  0.783437  0  2.404248  0
Zn  Zn1  1  0.52411884  0.90049071  0.75359075  1  0  1.00633  0  1.884251  0  0  0.816245  0  2.365563  0  0  0.862977  0  2.309709  0  0  0.694861  0.783398  0  2.404351  0
H  H2  1  0.02433859  0.98934437  0.29360308  1  0  0.085172  0  0.986975  0  0  0.090932  0  1.059048  0  0  0.094198  0  1.057591  0  0  0.095475  0.088492  0  1.060315  0
H  H3  1  0.97566345  0.01065823  0.70639715  1  0  0.085182  0  0.987  0  0  0.090949  0  1.059057  0  0  0.094215  0  1.0576  0  0  0.095489  0.08851  0  1.060322  0
H  H4  1  0.75807279  0.00292022  0.53930866  1  0  0.08994  0  0.970462  0  0  0.096078  0  1.041797  0  0  0.09928  0  1.040003  0  0  0.09639  0.093562  0  1.043642  0
H  H5  1  0.24192898  0.99708019  0.46069095  1  0  0.089902  0  0.970514  0  0  0.096074  0  1.041818  0  0  0.099275  0  1.040025  0  0  0.096386  0.093556  0  1.043664  0
H  H6  1  0.69112951  0.37386448  0.09221105  1  0  0.094929  0  0.983136  0  0  0.099547  0  1.054659  0  0  0.102137  0  1.054741  0  0  0.095991  0.097881  0  1.054258  0
H  H7  1  0.30887239  0.62613702  0.90779056  1  0  0.094936  0  0.983146  0  0  0.099554  0  1.054667  0  0  0.102143  0  1.054749  0  0  0.095999  0.097887  0  1.054267  0
H  H8  1  0.24970775  0.44870027  0.00994859  1  0  0.086576  0  0.967346  0  0  0.094848  0  1.034388  0  0  0.098399  0  1.031929  0  0  0.095151  0.092171  0  1.036446  0
H  H9  1  0.75029414  0.55130123  0.99005554  1  0  0.086556  0  0.967384  0  0  0.094836  0  1.034416  0  0  0.098387  0  1.031952  0  0  0.095148  0.09216  0  1.036473  0
H  H10  1  0.27107427  0.35398249  0.32169088  1  0  0.104175  0  0.982249  0  0  0.110056  0  1.05182  0  0  0.112567  0  1.04923  0  0  0.132926  0.108253  0  1.053424  0
H  H11  1  0.72892537  0.64601791  0.67830917  1  0  0.104142  0  0.982283  0  0  0.110031  0  1.051848  0  0  0.112542  0  1.049256  0  0  0.132915  0.108228  0  1.053454  0
H  H12  1  0.54831983  0.16140931  0.54239946  1  0  0.105456  0  0.956426  0  0  0.115821  0  1.016597  0  0  0.118555  0  1.014643  0  0  0.117622  0.113729  0  1.018286  0
H  H13  1  0.45167875  0.83859109  0.45760123  1  0  0.105473  0  0.956427  0  0  0.115843  0  1.016596  0  0  0.118576  0  1.01464  0  0  0.117624  0.113751  0  1.018284  0
H  H14  1  0.43305457  0.38497516  0.69472616  1  0  0.12632  0  0.947407  0  0  0.138358  0  1.001827  0  0  0.140462  0  1.002144  0  0  0.128364  0.136813  0  1.001786  0
H  H15  1  0.56694574  0.61502194  0.30527316  1  0  0.126297  0  0.947426  0  0  0.138329  0  1.001855  0  0  0.140435  0  1.002173  0  0  0.128345  0.136785  0  1.001814  0
H  H16  1  0.18977988  0.54480520  0.46959376  1  0  0.085104  0  0.945966  0  0  0.1008  0  1.008793  0  0  0.100667  0  1.01072  0  0  0.114122  0.100821  0  1.007493  0
H  H17  1  0.81022415  0.45519631  0.53040657  1  0  0.085096  0  0.945994  0  0  0.100796  0  1.008821  0  0  0.100662  0  1.010749  0  0  0.114123  0.100818  0  1.00752  0
H  H18  1  0.33089012  0.62941322  0.60366840  1  0  0.087264  0  0.942223  0  0  0.098923  0  1.011385  0  0  0.099707  0  1.010831  0  0  0.1123  0.098131  0  1.01206  0
H  H19  1  0.66911138  0.37058499  0.39633481  1  0  0.087272  0  0.942184  0  0  0.098925  0  1.011361  0  0  0.099708  0  1.010806  0  0  0.112304  0.098133  0  1.012036  0
H  H20  1  0.18018547  0.75889050  0.71784814  1  0  0.104913  0  0.977089  0  0  0.115803  0  1.039772  0  0  0.117851  0  1.039699  0  0  0.104252  0.114427  0  1.040013  0
H  H21  1  0.81981285  0.24110771  0.28215024  1  0  0.10491  0  0.977069  0  0  0.1158  0  1.039763  0  0  0.117848  0  1.039691  0  0  0.104248  0.114424  0  1.040003  0
H  H22  1  0.89004634  0.52716695  0.84129435  1  0  0.094824  0  0.966432  0  0  0.103919  0  1.033664  0  0  0.107161  0  1.031815  0  0  0.098667  0.101709  0  1.034668  0
H  H23  1  0.10995011  0.47283345  0.15870256  1  0  0.094833  0  0.966411  0  0  0.103922  0  1.033655  0  0  0.107166  0  1.031805  0  0  0.09866  0.101721  0  1.034652  0
H  H24  1  0.94176989  0.28870754  0.70540466  1  0  0.079366  0  0.985673  0  0  0.091995  0  1.045752  0  0  0.093284  0  1.046875  0  0  0.095352  0.090937  0  1.045414  0
H  H25  1  0.05822763  0.71129286  0.29459413  1  0  0.079373  0  0.985593  0  0  0.091992  0  1.04569  0  0  0.093271  0  1.046824  0  0  0.095373  0.090935  0  1.045351  0
H  H26  1  0.10611497  0.28543985  0.57426439  1  0  0.091062  0  0.986167  0  0  0.098233  0  1.055136  0  0  0.099828  0  1.056836  0  0  0.09623  0.097232  0  1.053778  0
H  H27  1  0.89388547  0.71455835  0.42573777  1  0  0.091052  0  0.986207  0  0  0.098184  0  1.055209  0  0  0.099778  0  1.056911  0  0  0.096229  0.097185  0  1.053848  0
H  H28  1  0.02769601  0.89275278  0.83699684  1  0  0.096145  0  0.937186  0  0  0.109208  0  1.002273  0  0  0.11071  0  1.001028  0  0  0.115827  0.108079  0  1.003315  0
H  H29  1  0.97230470  0.10724762  0.16300173  1  0  0.096127  0  0.937264  0  0  0.109214  0  1.002304  0  0  0.110717  0  1.001058  0  0  0.115805  0.108083  0  1.003352  0
H  H30  1  0.90458153  0.80119585  0.89060343  1  0  0.113465  0  0.961396  0  0  0.124612  0  1.026748  0  0  0.126898  0  1.024519  0  0  0.115576  0.122855  0  1.028452  0
H  H31  1  0.09541917  0.19880455  0.10939766  1  0  0.113481  0  0.961337  0  0  0.124606  0  1.026705  0  0  0.12689  0  1.024479  0  0  0.115572  0.122847  0  1.028413  0
H  H32  1  0.27265427  0.99255300  0.97009725  1  0  0.127158  0  0.957181  0  0  0.134441  0  1.021179  0  0  0.137981  0  1.016578  0  0  0.142553  0.13186  0  1.024407  0
H  H33  1  0.72734724  0.00744521  0.02990258  1  0  0.12715  0  0.95719  0  0  0.134436  0  1.021175  0  0  0.137976  0  1.016573  0  0  0.14254  0.131855  0  1.024402  0
H  H34  1  0.02386606  0.71211990  0.07958365  1  0  0.120243  0  0.948247  0  0  0.132405  0  1.00593  0  0  0.135106  0  1.004667  0  0  0.128036  0.130426  0  1.006936  0
H  H35  1  0.97613451  0.28787940  0.92041630  1  0  0.12026  0  0.948227  0  0  0.132425  0  1.005904  0  0  0.135126  0  1.004641  0  0  0.128066  0.130446  0  1.00691  0
H  H36  1  0.27522785  0.83444781  0.26535903  1  0  0.098047  0  0.956873  0  0  0.112769  0  1.010088  0  0  0.114913  0  1.009313  0  0  0.119082  0.111163  0  1.010943  0
H  H37  1  0.72477299  0.16555369  0.73464153  1  0  0.098044  0  0.956862  0  0  0.112746  0  1.010096  0  0  0.11489  0  1.009323  0  0  0.119091  0.11114  0  1.010952  0
C  C38  1  0.75022557  0.99885362  0.30697738  1  0  0.633649  0  3.947316  0  0  0.587664  0  4.237325  0  0  0.621709  0  4.228571  0  0  0.197963  0.564611  0  4.24279  0
C  C39  1  0.24977607  0.00114568  0.69302361  1  0  0.633668  0  3.947286  0  0  0.587649  0  4.237346  0  0  0.621693  0  4.228592  0  0  0.197942  0.564595  0  4.24281  0
C  C40  1  0.87839818  0.99722335  0.40677896  1  0  -0.054043  0  3.74342  0  0  -0.029986  0  3.968645  0  0  -0.035977  0  3.990146  0  0  -0.0166  -0.026343  0  3.954498  0
C  C41  1  0.12160160  0.00277815  0.59322055  1  0  -0.05401  0  3.743406  0  0  -0.029939  0  3.968644  0  0  -0.035929  0  3.990144  0  0  -0.016591  -0.026295  0  3.954495  0
C  C42  1  0.01489608  0.99494311  0.38469824  1  0  -0.088738  0  3.761245  0  0  -0.109515  0  4.008645  0  0  -0.110806  0  4.028576  0  0  -0.090175  -0.108449  0  3.995327  0
C  C43  1  0.98510569  0.00505730  0.61530221  1  0  -0.088759  0  3.761251  0  0  -0.109538  0  4.008624  0  0  -0.110828  0  4.028554  0  0  -0.090176  -0.108472  0  3.995308  0
C  C44  1  0.86467239  0.00231452  0.52313055  1  0  -0.081837  0  3.749926  0  0  -0.104293  0  3.999923  0  0  -0.104592  0  4.018961  0  0  -0.089613  -0.10442  0  3.987902  0
C  C45  1  0.13532939  0.99768589  0.47686906  1  0  -0.081832  0  3.750002  0  0  -0.104325  0  4.000009  0  0  -0.104623  0  4.019046  0  0  -0.089618  -0.104451  0  3.987986  0
C  C46  1  0.42934898  0.29808583  0.12065842  1  0  0.635915  0  3.920786  0  0  0.588425  0  4.209993  0  0  0.622652  0  4.201997  0  0  0.20091  0.565285  0  4.214463  0
C  C47  1  0.57065412  0.70191677  0.87934370  1  0  0.635937  0  3.920633  0  0  0.588493  0  4.209782  0  0  0.622716  0  4.201785  0  0  0.200982  0.565355  0  4.214251  0
C  C48  1  0.46680824  0.40079779  0.05726785  1  0  -0.058231  0  3.75517  0  0  -0.034006  0  3.981149  0  0  -0.040699  0  4.003045  0  0  -0.01877  -0.029455  0  3.966148  0
C  C49  1  0.53319247  0.59920261  0.94273240  1  0  -0.058232  0  3.755188  0  0  -0.034016  0  3.98116  0  0  -0.040707  0  4.003053  0  0  -0.018778  -0.029465  0  3.966159  0
C  C50  1  0.60812533  0.42934138  0.05137914  1  0  -0.076103  0  3.742733  0  0  -0.098418  0  3.991894  0  0  -0.099337  0  4.013557  0  0  -0.089799  -0.097767  0  3.977114  0
C  C51  1  0.39187538  0.57065903  0.94862111  1  0  -0.076118  0  3.742757  0  0  -0.098436  0  3.991916  0  0  -0.099353  0  4.013578  0  0  -0.089805  -0.097783  0  3.977135  0
C  C52  1  0.35919487  0.47222969  0.00530515  1  0  -0.077978  0  3.757333  0  0  -0.099596  0  4.001904  0  0  -0.10089  0  4.02268  0  0  -0.088999  -0.098789  0  3.988294  0
C  C53  1  0.64080478  0.52777071  0.99469406  1  0  -0.078  0  3.757434  0  0  -0.099633  0  4.002027  0  0  -0.100923  0  4.022801  0  0  -0.089028  -0.098826  0  3.988418  0
C  C54  1  0.32925057  0.32970787  0.40171935  1  0  0.161046  0  3.643822  0  0  0.099052  0  3.904866  0  0  0.113164  0  3.917489  0  0  0.142023  0.090503  0  3.895244  0
C  C55  1  0.67074654  0.67028923  0.59828104  1  0  0.161085  0  3.643791  0  0  0.099085  0  3.904843  0  0  0.113198  0  3.917468  0  0  0.142028  0.090536  0  3.895222  0
C  C56  1  0.47341499  0.23507481  0.52009993  1  0  0.004361  0  3.748037  0  0  -0.029076  0  4.013667  0  0  -0.027301  0  4.033483  0  0  -0.001651  -0.030014  0  4.000279  0
C  C57  1  0.52658546  0.76492339  0.47989970  1  0  0.004305  0  3.748144  0  0  -0.029143  0  4.013798  0  0  -0.027364  0  4.033613  0  0  -0.001667  -0.03008  0  4.000411  0
C  C58  1  0.41805157  0.34512433  0.59585300  1  0  -0.061411  0  3.649895  0  0  -0.100676  0  3.902977  0  0  -0.099612  0  3.922606  0  0  0.004446  -0.101632  0  3.890031  0
C  C59  1  0.58194607  0.65487717  0.40414779  1  0  -0.061375  0  3.649891  0  0  -0.100626  0  3.902947  0  0  -0.099565  0  3.922581  0  0  0.004454  -0.101583  0  3.890003  0
C  C60  1  0.25115709  0.53164695  0.55530667  1  0  -0.039273  0  3.644434  0  0  -0.104704  0  3.886209  0  0  -0.100317  0  3.896897  0  0  -0.043449  -0.107561  0  3.879031  0
C  C61  1  0.74884229  0.46835125  0.44469276  1  0  -0.039259  0  3.644362  0  0  -0.104702  0  3.886138  0  0  -0.100314  0  3.896828  0  0  -0.043469  -0.107554  0  3.878954  0
C  C62  1  0.15247987  0.52270405  0.63511861  1  0  0.079089  0  3.754915  0  0  0.101827  0  3.993295  0  0  0.101704  0  4.016297  0  0  -0.008816  0.101827  0  3.977195  0
C  C63  1  0.84751645  0.47729525  0.36487883  1  0  0.079012  0  3.754789  0  0  0.101775  0  3.993162  0  0  0.101653  0  4.016162  0  0  -0.008829  0.101774  0  3.977063  0
C  C64  1  0.12483134  0.65549603  0.71246626  1  0  -0.154746  0  3.69766  0  0  -0.182997  0  3.940919  0  0  -0.185873  0  3.962009  0  0  -0.088364  -0.180891  0  3.926205  0
C  C65  1  0.87517017  0.34450218  0.28753273  1  0  -0.15469  0  3.697631  0  0  -0.182984  0  3.940885  0  0  -0.185863  0  3.961979  0  0  -0.088355  -0.18088  0  3.926172  0
C  C66  1  0.03163945  0.65863140  0.78716433  1  0  0.075147  0  3.762589  0  0  0.096648  0  4.004694  0  0  0.095821  0  4.029239  0  0  -0.013778  0.097086  0  3.988165  0
C  C67  1  0.96835687  0.34136789  0.21283396  1  0  0.075152  0  3.762773  0  0  0.096731  0  4.004755  0  0  0.095904  0  4.029304  0  0  -0.013688  0.09717  0  3.988224  0
C  C68  1  0.96477201  0.52566690  0.78458104  1  0  -0.137919  0  3.755868  0  0  -0.160916  0  4.004974  0  0  -0.164097  0  4.026088  0  0  -0.098107  -0.15831  0  3.990429  0
C  C69  1  0.03522644  0.47433240  0.21541765  1  0  -0.137986  0  3.755955  0  0  -0.161011  0  4.005046  0  0  -0.164193  0  4.026161  0  0  -0.098161  -0.158413  0  3.990496  0
C  C70  1  0.99274099  0.39275623  0.70810803  1  0  -0.068088  0  3.798458  0  0  -0.075687  0  4.040802  0  0  -0.077314  0  4.063348  0  0  -0.095197  -0.075088  0  4.025868  0
C  C71  1  0.00725520  0.60724197  0.29188911  1  0  -0.068013  0  3.79836  0  0  -0.075593  0  4.040694  0  0  -0.077212  0  4.063249  0  0  -0.09518  -0.074996  0  4.025764  0
C  C72  1  0.08581886  0.39051932  0.63320937  1  0  -0.11649  0  3.730136  0  0  -0.140342  0  3.976903  0  0  -0.142841  0  3.998597  0  0  -0.092765  -0.137981  0  3.961523  0
C  C73  1  0.91417745  0.60947997  0.36679060  1  0  -0.116514  0  3.730168  0  0  -0.140358  0  3.976974  0  0  -0.142857  0  3.998665  0  0  -0.092804  -0.137998  0  3.961596  0
C  C74  1  0.01166169  0.80451555  0.87406832  1  0  -0.064494  0  3.622482  0  0  -0.131631  0  3.866623  0  0  -0.127677  0  3.876254  0  0  -0.052043  -0.134221  0  3.860247  0
C  C75  1  0.98833889  0.19548375  0.12593162  1  0  -0.064401  0  3.62254  0  0  -0.131532  0  3.866605  0  0  -0.127581  0  3.876238  0  0  -0.052011  -0.134124  0  3.86023  0
C  C76  1  0.24222507  0.93520260  0.02784727  1  0  0.189639  0  3.592085  0  0  0.124482  0  3.857253  0  0  0.139733  0  3.867695  0  0  0.156866  0.114726  0  3.849647  0
C  C77  1  0.75777658  0.06479671  0.97215287  1  0  0.18967  0  3.592067  0  0  0.124523  0  3.857231  0  0  0.139772  0  3.867669  0  0  0.156883  0.114767  0  3.849624  0
C  C78  1  0.11396057  0.78739027  0.08608202  1  0  -0.066411  0  3.673981  0  0  -0.10808  0  3.933014  0  0  -0.106994  0  3.952312  0  0  0.003186  -0.108456  0  3.919875  0
C  C79  1  0.88603975  0.21260684  0.91391646  1  0  -0.066384  0  3.673921  0  0  -0.108055  0  3.932955  0  0  -0.106971  0  3.952252  0  0  0.00318  -0.108434  0  3.919817  0
C  C80  1  0.23782497  0.84921424  0.17695521  1  0  -0.000991  0  3.767648  0  0  -0.033339  0  4.02976  0  0  -0.031426  0  4.050441  0  0  -0.001108  -0.034593  0  4.015904  0
C  C81  1  0.76217655  0.15078397  0.82304294  1  0  -0.000928  0  3.767555  0  0  -0.033251  0  4.029656  0  0  -0.031338  0  4.050336  0  0  -0.001126  -0.034507  0  4.015806  0
N  N82  1  0.41734798  0.22664611  0.39914844  1  0  -0.390189  0  3.297882  0  0  -0.310071  0  3.59447  0  0  -0.330148  0  3.607082  0  0  -0.358354  -0.296398  0  3.585278  0
N  N83  1  0.58265032  0.77335209  0.60085331  1  0  -0.39012  0  3.297843  0  0  -0.310027  0  3.594451  0  0  -0.330101  0  3.607062  0  0  -0.358329  -0.29635  0  3.585255  0
N  N84  1  0.32689695  0.40369690  0.51910626  1  0  -0.048035  0  3.566406  0  0  0.046977  0  3.782656  0  0  0.032547  0  3.808219  0  0  -0.236727  0.056464  0  3.765116  0
N  N85  1  0.67310017  0.59630020  0.48089245  1  0  -0.048061  0  3.566302  0  0  0.046965  0  3.782543  0  0  0.032534  0  3.808107  0  0  -0.236709  0.05645  0  3.765005  0
N  N86  1  0.11860803  0.84357119  0.99318554  1  0  -0.047185  0  3.549006  0  0  0.048521  0  3.767615  0  0  0.033442  0  3.793983  0  0  -0.235409  0.058368  0  3.749446  0
N  N87  1  0.88139361  0.15642811  0.00681461  1  0  -0.047344  0  3.549045  0  0  0.04834  0  3.767671  0  0  0.033264  0  3.794036  0  0  -0.235443  0.058189  0  3.749502  0
N  N88  1  0.31627083  0.94170025  0.13991686  1  0  -0.390923  0  3.319038  0  0  -0.309043  0  3.624557  0  0  -0.329623  0  3.634846  0  0  -0.363148  -0.295069  0  3.617256  0
N  N89  1  0.68372975  0.05829905  0.86008224  1  0  -0.39094  0  3.318986  0  0  -0.309072  0  3.624497  0  0  -0.329647  0  3.634781  0  0  -0.363148  -0.295097  0  3.617194  0
O  O90  1  0.63664553  0.03514748  0.34507665  1  0  -0.668348  0  2.069289  0  0  -0.593311  0  2.346735  0  0  -0.622084  0  2.330498  0  0  -0.344084  -0.573104  0  2.357545  0
O  O91  1  0.36335599  0.96485072  0.65492318  1  0  -0.668319  0  2.069279  0  0  -0.593274  0  2.346747  0  0  -0.622043  0  2.330509  0  0  -0.344045  -0.573066  0  2.357559  0
O  O92  1  0.76077543  0.97212583  0.19935040  1  0  -0.601483  0  1.914768  0  0  -0.561582  0  2.135842  0  0  -0.582814  0  2.125347  0  0  -0.322278  -0.547119  0  2.143034  0
O  O93  1  0.23922540  0.02787567  0.80065101  1  0  -0.601521  0  1.914774  0  0  -0.561604  0  2.135856  0  0  -0.582838  0  2.125362  0  0  -0.322299  -0.547141  0  2.143046  0
O  O94  1  0.53183673  0.22790894  0.15949900  1  0  -0.647618  0  2.035879  0  0  -0.572591  0  2.310666  0  0  -0.601043  0  2.295458  0  0  -0.332181  -0.55279  0  2.320181  0
O  O95  1  0.46816624  0.77209256  0.84050197  1  0  -0.647595  0  2.035836  0  0  -0.572604  0  2.310634  0  0  -0.601061  0  2.295433  0  0  -0.332216  -0.552804  0  2.320147  0
O  O96  1  0.30526048  0.28652972  0.13526621  1  0  -0.634843  0  1.977389  0  0  -0.588744  0  2.212043  0  0  -0.612  0  2.20328  0  0  -0.322743  -0.572377  0  2.217367  0
O  O97  1  0.69474275  0.71347398  0.86473621  1  0  -0.634856  0  1.97735  0  0  -0.588765  0  2.211957  0  0  -0.61203  0  2.203223  0  0  -0.32278  -0.5724  0  2.217281  0
