# generated using pymatgen
data_UCuH15C18S2(NO7)2
_symmetry_space_group_name_H-M   'P 1'
_cell_length_a   9.08059410
_cell_length_b   11.24941235
_cell_length_c   13.35830000
_cell_angle_alpha   72.87300166
_cell_angle_beta   78.87184068
_cell_angle_gamma   67.32925530
_symmetry_Int_Tables_number   1
_chemical_formula_structural   UCuH15C18S2(NO7)2
_chemical_formula_sum   'U2 Cu2 H30 C36 S4 N4 O28'
_cell_volume   1198.39805607
_cell_formula_units_Z   2
loop_
 _symmetry_equiv_pos_site_id
 _symmetry_equiv_pos_as_xyz
  1  'x, y, z'
loop_
 _atom_site_type_symbol
 _atom_site_label
 _atom_site_symmetry_multiplicity
 _atom_site_fract_x
 _atom_site_fract_y
 _atom_site_fract_z
 _atom_site_occupancy
 _atom_site_hle17_bader_spin_density
 _atom_site_hle17_ddec_charge
 _atom_site_hle17_ddec_spin_density
 _atom_site_hle17_ddec_sum_bond_order
 _atom_site_hle17_magmom
 _atom_site_hse06_10hf_bader_spin_density
 _atom_site_hse06_10hf_ddec_charge
 _atom_site_hse06_10hf_ddec_spin_density
 _atom_site_hse06_10hf_ddec_sum_bond_order
 _atom_site_hse06_10hf_magmom
 _atom_site_hse06_bader_spin_density
 _atom_site_hse06_ddec_charge
 _atom_site_hse06_ddec_spin_density
 _atom_site_hse06_ddec_sum_bond_order
 _atom_site_hse06_magmom
 _atom_site_pbe_bader_charge
 _atom_site_pbe_bader_spin_density
 _atom_site_pbe_cm5_charge
 _atom_site_pbe_ddec_charge
 _atom_site_pbe_ddec_spin_density
 _atom_site_pbe_ddec_sum_bond_order
 _atom_site_pbe_magmom
U  U0  1  0.37643975  0.65211349  0.69004904  1  0  2.555625  0  4.104788  0  0  2.627149  0  4.751999  0  0  2.733556  0  4.713802  0  2.938845  0  2.177833  2.549745  0  4.781045  0
U  U1  1  0.62356813  0.34788450  0.30992946  1  0  2.556308  0  4.105388  0  0  2.627739  0  4.752774  0  0  2.734062  0  4.714663  0  2.939434  0  2.178476  2.550095  0  4.782165  0
Cu  Cu2  1  0.81267961  0.85880582  0.61201209  1  0  0.877347  0  1.765348  0  0  0.820537  0  2.166226  0  0  0.851644  0  2.115013  0  1.077801  0  0.745177  0.8025  0  2.201047  0
Cu  Cu3  1  0.18728859  0.14121700  0.38798193  1  0  0.876964  0  1.766304  0  0  0.820183  0  2.167097  0  0  0.851514  0  2.115808  0  1.077833  0  0.745333  0.802336  0  2.201822  0
H  H4  1  0.74068788  0.58497361  0.66151363  1  0  0.435786  0  0.860244  0  0  0.410673  0  0.915629  0  0  0.422634  0  0.898426  0  0.650043  0  0.302578  0.402159  0  0.927798  0
H  H5  1  0.25934272  0.41501842  0.33847759  1  0  0.435916  0  0.86001  0  0  0.41078  0  0.91544  0  0  0.42274  0  0.898235  0  0.65001  0  0.302608  0.402259  0  0.927621  0
H  H6  1  0.69722054  0.55949101  0.56311642  1  0  0.439223  0  0.853668  0  0  0.414478  0  0.908017  0  0  0.425942  0  0.891426  0  0.656167  0  0.305878  0.406309  0  0.919787  0
H  H7  1  0.30279788  0.44052982  0.43686702  1  0  0.439111  0  0.853793  0  0  0.414365  0  0.908148  0  0  0.425827  0  0.891558  0  0.656434  0  0.305828  0.406186  0  0.919928  0
H  H8  1  0.69793588  0.91374368  0.41644442  1  0  0.445734  0  0.847262  0  0  0.418813  0  0.904364  0  0  0.428008  0  0.89108  0  0.657504  0  0.298526  0.412423  0  0.913607  0
H  H9  1  0.30206491  0.08618082  0.58355774  1  0  0.445689  0  0.847247  0  0  0.418749  0  0.90439  0  0  0.427946  0  0.891103  0  0.657654  0  0.298643  0.412356  0  0.91364  0
H  H10  1  0.56570154  0.87994532  0.50515569  1  0  0.446048  0  0.813709  0  0  0.424773  0  0.875002  0  0  0.433179  0  0.862441  0  0.639728  0  0.320365  0.41893  0  0.883777  0
H  H11  1  0.43421377  0.12008843  0.49483508  1  0  0.44589  0  0.813931  0  0  0.424643  0  0.875157  0  0  0.433049  0  0.862597  0  0.639835  0  0.320577  0.418806  0  0.883916  0
H  H12  1  0.09435931  0.90468503  0.00375897  1  0  0.102342  0  0.988487  0  0  0.108276  0  1.058842  0  0  0.111381  0  1.057031  0  0.105559  0  0.106936  0.105995  0  1.060306  0
H  H13  1  0.90557438  0.09534772  0.99627455  1  0  0.102615  0  0.988576  0  0  0.108646  0  1.058758  0  0  0.111752  0  1.056942  0  0.105907  0  0.107109  0.106355  0  1.060246  0
H  H14  1  0.26092672  0.79154677  0.15175496  1  0  0.093991  0  0.963533  0  0  0.10357  0  1.025606  0  0  0.106026  0  1.02502  0  0.091277  0  0.105678  0.101892  0  1.025972  0
H  H15  1  0.73903531  0.20848003  0.84826209  1  0  0.093992  0  0.963542  0  0  0.103579  0  1.025559  0  0  0.106041  0  1.024979  0  0.091605  0  0.105732  0.101911  0  1.025923  0
H  H16  1  0.56039358  0.70508886  0.11810984  1  0  0.094313  0  0.975342  0  0  0.101662  0  1.039422  0  0  0.104203  0  1.03842  0  0.088652  0  0.105288  0.099904  0  1.040039  0
H  H17  1  0.43956044  0.29491708  0.88190221  1  0  0.094255  0  0.975199  0  0  0.101644  0  1.039284  0  0  0.104186  0  1.038284  0  0.089183  0  0.105236  0.099893  0  1.039895  0
H  H18  1  0.68546139  0.74684048  0.93429455  1  0  0.095217  0  0.957395  0  0  0.104265  0  1.020398  0  0  0.107026  0  1.019792  0  0.067181  0  0.104936  0.102301  0  1.02085  0
H  H19  1  0.31448603  0.25317042  0.06571638  1  0  0.095312  0  0.957441  0  0  0.104331  0  1.020439  0  0  0.107093  0  1.019829  0  0.066665  0  0.104977  0.102367  0  1.020897  0
H  H20  1  0.31164419  0.15094504  0.83723429  1  0  0.109333  0  0.952379  0  0  0.115568  0  1.01744  0  0  0.118603  0  1.01626  0  0.122768  0  0.109189  0.113313  0  1.018431  0
H  H21  1  0.68836801  0.84902415  0.16276876  1  0  0.109148  0  0.952882  0  0  0.115476  0  1.017835  0  0  0.118551  0  1.016624  0  0.122996  0  0.109143  0.113204  0  1.018849  0
H  H22  1  0.13267031  0.13841429  0.00474518  1  0  0.104289  0  0.94964  0  0  0.114665  0  1.008997  0  0  0.117799  0  1.007755  0  0.11593  0  0.106834  0.112429  0  1.009954  0
H  H23  1  0.86730320  0.86159065  0.99524509  1  0  0.10424  0  0.949578  0  0  0.114631  0  1.008893  0  0  0.117765  0  1.007649  0  0.116078  0  0.106792  0.112396  0  1.009856  0
H  H24  1  0.88767310  0.33394147  0.02678659  1  0  0.106331  0  0.939766  0  0  0.117277  0  0.995441  0  0  0.120217  0  0.993779  0  0.114377  0  0.113112  0.115267  0  0.996626  0
H  H25  1  0.11231684  0.66608035  0.97319809  1  0  0.106309  0  0.939683  0  0  0.117243  0  0.995374  0  0  0.120183  0  0.993709  0  0.11417  0  0.113105  0.115244  0  0.99655  0
H  H26  1  0.82603841  0.54046993  0.88378362  1  0  0.102554  0  0.943943  0  0  0.11345  0  1.002314  0  0  0.116356  0  1.001467  0  0.067589  0  0.109802  0.111378  0  1.002981  0
H  H27  1  0.17398618  0.45954693  0.11620224  1  0  0.102432  0  0.943951  0  0  0.113382  0  1.002288  0  0  0.116286  0  1.001442  0  0.067644  0  0.109698  0.11133  0  1.002935  0
H  H28  1  0.02817615  0.66528185  0.46418943  1  0  0.114339  0  0.897973  0  0  0.122196  0  0.955506  0  0  0.125219  0  0.952186  0  0.180436  0  0.139825  0.11979  0  0.958145  0
H  H29  1  0.97190397  0.33470720  0.53578705  1  0  0.114182  0  0.897633  0  0  0.122021  0  0.955268  0  0  0.125044  0  0.951955  0  0.180488  0  0.139823  0.119611  0  0.957908  0
H  H30  1  0.25236665  0.68417680  0.32248272  1  0  0.136546  0  0.944779  0  0  0.145673  0  0.998731  0  0  0.149708  0  0.997175  0  0.16317  0  0.126557  0.142691  0  1.000225  0
H  H31  1  0.74772865  0.31584801  0.67751060  1  0  0.136659  0  0.944686  0  0  0.145833  0  0.99858  0  0  0.14987  0  0.997015  0  0.163045  0  0.126676  0.142846  0  1.000073  0
H  H32  1  0.32313478  0.89432832  0.28039222  1  0  0.113029  0  0.914238  0  0  0.121179  0  0.971415  0  0  0.124073  0  0.96817  0  0.205582  0  0.140089  0.118889  0  0.973912  0
H  H33  1  0.67692084  0.10571337  0.71962159  1  0  0.113103  0  0.914249  0  0  0.121308  0  0.971383  0  0  0.124213  0  0.968125  0  0.206525  0  0.140094  0.119011  0  0.973892  0
C  C34  1  0.54633018  0.84137083  0.75720733  1  0  0.690577  0  3.824054  0  0  0.651555  0  4.122161  0  0  0.690773  0  4.109817  0  1.572203  0  0.239113  0.624619  0  4.130023  0
C  C35  1  0.45356870  0.15864604  0.24281822  1  0  0.690041  0  3.824679  0  0  0.651642  0  4.121774  0  0  0.690848  0  4.109432  0  1.572746  0  0.238776  0.6247  0  4.129648  0
C  C36  1  0.46112643  0.83636826  0.86493139  1  0  -0.058733  0  3.74485  0  0  -0.05092  0  3.982127  0  0  -0.056286  0  4.003611  0  0.019335  0  -0.002739  -0.047256  0  3.967464  0
C  C37  1  0.53882519  0.16362477  0.13506696  1  0  -0.058383  0  3.744262  0  0  -0.050848  0  3.98152  0  0  -0.056205  0  4.002993  0  0.019147  0  -0.002773  -0.047175  0  3.96685  0
C  C38  1  0.29293602  0.87933551  0.88514694  1  0  -0.143045  0  3.715028  0  0  -0.125458  0  3.962444  0  0  -0.132157  0  3.984944  0  -0.250914  0  -0.008216  -0.120986  0  3.947317  0
C  C39  1  0.70701589  0.12066744  0.11486837  1  0  -0.142712  0  3.715201  0  0  -0.125122  0  3.962716  0  0  -0.1318  0  3.985177  0  -0.25117  0  -0.008023  -0.120644  0  3.947588  0
C  C40  1  0.22370985  0.86641544  0.98846379  1  0  -0.056945  0  3.750994  0  0  -0.084227  0  4.00597  0  0  -0.084493  0  4.027119  0  0.021001  0  -0.077942  -0.084004  0  3.991724  0
C  C41  1  0.77625203  0.13359844  0.01156247  1  0  -0.057567  0  3.751949  0  0  -0.084979  0  4.006978  0  0  -0.085249  0  4.028124  0  0.020564  0  -0.078277  -0.084758  0  3.992735  0
C  C42  1  0.31935148  0.80325617  0.07224587  1  0  -0.031446  0  3.703396  0  0  -0.049996  0  3.955582  0  0  -0.052138  0  3.976104  0  -0.019864  0  -0.075363  -0.048399  0  3.941341  0
C  C43  1  0.68061362  0.19675275  0.92778120  1  0  -0.031485  0  3.703418  0  0  -0.049929  0  3.955572  0  0  -0.052091  0  3.976118  0  -0.01825  0  -0.075347  -0.048344  0  3.941346  0
C  C44  1  0.48535889  0.75715945  0.05316919  1  0  -0.03875  0  3.726471  0  0  -0.051346  0  3.972871  0  0  -0.051874  0  3.99296  0  0.005551  0  -0.074825  -0.050702  0  3.958877  0
C  C45  1  0.51460325  0.24284052  0.94684851  1  0  -0.03856  0  3.726255  0  0  -0.051236  0  3.972647  0  0  -0.051764  0  3.992746  0  0.00377  0  -0.074799  -0.050602  0  3.95866  0
C  C46  1  0.55555878  0.77800398  0.95002384  1  0  -0.064242  0  3.706865  0  0  -0.087776  0  3.953613  0  0  -0.089765  0  3.97481  0  -0.014311  0  -0.075799  -0.086383  0  3.939046  0
C  C47  1  0.44438849  0.22200196  0.04998535  1  0  -0.06444  0  3.707295  0  0  -0.087927  0  3.954097  0  0  -0.089918  0  3.97529  0  -0.014178  0  -0.075817  -0.086533  0  3.939534  0
C  C48  1  0.00823544  0.59827705  0.70914685  1  0  0.697663  0  3.840241  0  0  0.654879  0  4.138782  0  0  0.693204  0  4.125599  0  1.564054  0  0.239251  0.628489  0  4.147069  0
C  C49  1  0.99180441  0.40170108  0.29086084  1  0  0.697492  0  3.840252  0  0  0.654679  0  4.138836  0  0  0.692991  0  4.125676  0  1.565197  0  0.239295  0.628284  0  4.147124  0
C  C50  1  0.03918832  0.46515830  0.78396432  1  0  -0.061532  0  3.756381  0  0  -0.052206  0  3.991702  0  0  -0.057091  0  4.013695  0  -0.002667  0  -0.007212  -0.048834  0  3.976735  0
C  C51  1  0.96084750  0.53486650  0.21601959  1  0  -0.061533  0  3.756369  0  0  -0.052183  0  3.991587  0  0  -0.057061  0  4.01359  0  -0.003277  0  -0.007324  -0.048789  0  3.9766  0
C  C52  1  0.17667384  0.35476614  0.77149688  1  0  -0.138031  0  3.701739  0  0  -0.122463  0  3.949478  0  0  -0.129045  0  3.970886  0  -0.199583  0  -0.010265  -0.118435  0  3.935529  0
C  C53  1  0.82334863  0.64523980  0.22850170  1  0  -0.13797  0  3.702101  0  0  -0.122231  0  3.949535  0  0  -0.128808  0  3.970947  0  -0.199481  0  -0.010202  -0.118212  0  3.935599  0
C  C54  1  0.20777458  0.23671171  0.84991624  1  0  -0.048184  0  3.74237  0  0  -0.074751  0  3.998449  0  0  -0.073761  0  4.017838  0  -0.013522  0  -0.076846  -0.075177  0  3.985424  0
C  C55  1  0.79223273  0.76328231  0.15008429  1  0  -0.048056  0  3.743057  0  0  -0.074736  0  3.999014  0  0  -0.073789  0  4.018369  0  -0.013406  0  -0.07679  -0.075141  0  3.986009  0
C  C56  1  0.10600840  0.22992244  0.94265981  1  0  -0.055581  0  3.71323  0  0  -0.071187  0  3.967353  0  0  -0.073639  0  3.986912  0  -0.038757  0  -0.07945  -0.069563  0  3.954053  0
C  C57  1  0.89396749  0.77007952  0.05733613  1  0  -0.055567  0  3.713158  0  0  -0.071169  0  3.967298  0  0  -0.073625  0  3.986873  0  -0.03926  0  -0.079404  -0.069547  0  3.953999  0
C  C58  1  0.96888544  0.33903243  0.95526718  1  0  -0.047233  0  3.733604  0  0  -0.061421  0  3.984086  0  0  -0.061787  0  4.004485  0  -0.033468  0  -0.0746  -0.060994  0  3.969943  0
C  C59  1  0.03110773  0.66098443  0.04472130  1  0  -0.047234  0  3.733288  0  0  -0.06141  0  3.983783  0  0  -0.061773  0  4.004182  0  -0.033735  0  -0.074664  -0.06099  0  3.969649  0
C  C60  1  0.93387636  0.45528526  0.87512890  1  0  -0.070382  0  3.713927  0  0  -0.092828  0  3.96033  0  0  -0.095412  0  3.982018  0  -0.018853  0  -0.07834  -0.090859  0  3.945306  0
C  C61  1  0.06615342  0.54473259  0.12484854  1  0  -0.070218  0  3.714368  0  0  -0.092761  0  3.9608  0  0  -0.095347  0  3.982489  0  -0.018257  0  -0.078159  -0.090802  0  3.945765  0
C  C62  1  0.04019281  0.94937046  0.47059126  1  0  0.31513  0  3.792  0  0  0.28687  0  4.054799  0  0  0.301306  0  4.066742  0  1.124912  0  0.26802  0.277101  0  4.04751  0
C  C63  1  0.95984762  0.05062753  0.52941666  1  0  0.315114  0  3.79215  0  0  0.287024  0  4.05479  0  0  0.301349  0  4.066821  0  1.173822  0  0.268051  0.27737  0  4.047417  0
C  C64  1  0.06724498  0.75047745  0.44209293  1  0  0.226221  0  3.554445  0  0  0.185885  0  3.815458  0  0  0.199879  0  3.825378  0  0.472043  0  0.099606  0.176369  0  3.809644  0
C  C65  1  0.93282293  0.24950068  0.55790808  1  0  0.226913  0  3.553625  0  0  0.186476  0  3.814872  0  0  0.200466  0  3.824784  0  0.470116  0  0.099939  0.176976  0  3.809068  0
C  C66  1  0.18897117  0.76299727  0.36321143  1  0  -0.109537  0  3.567257  0  0  -0.120246  0  3.812783  0  0  -0.130615  0  3.828456  0  0.060925  0  -0.040184  -0.114196  0  3.803291  0
C  C67  1  0.81109817  0.23701462  0.63678925  1  0  -0.109867  0  3.567486  0  0  -0.120594  0  3.813194  0  0  -0.130954  0  3.828872  0  0.06142  0  -0.040526  -0.114541  0  3.803692  0
C  C68  1  0.22954991  0.87651691  0.34059693  1  0  0.246463  0  3.548508  0  0  0.209105  0  3.806324  0  0  0.2245  0  3.813422  0  0.52251  0  0.104901  0.198874  0  3.802157  0
C  C69  1  0.77049362  0.12350293  0.65941789  1  0  0.24639  0  3.549085  0  0  0.208983  0  3.806946  0  0  0.22435  0  3.81408  0  0.521841  0  0.104963  0.198757  0  3.802768  0
S  S70  1  0.15917946  0.95447632  0.78346191  1  0  1.324714  0  5.600817  0  0  1.236659  0  6.123234  0  0  1.287562  0  6.099212  0  3.188169  0  0.529157  1.201176  0  6.138165  0
S  S71  1  0.84078479  0.04552664  0.21654205  1  0  1.32491  0  5.600408  0  0  1.236838  0  6.122803  0  0  1.28774  0  6.098764  0  3.189464  0  0.529275  1.201355  0  6.137733  0
S  S72  1  0.31603643  0.36022854  0.65666625  1  0  1.336176  0  5.565531  0  0  1.248815  0  6.086382  0  0  1.300277  0  6.06062  0  3.173954  0  0.54122  1.212846  0  6.102823  0
S  S73  1  0.68398364  0.63975654  0.34331610  1  0  1.336111  0  5.565345  0  0  1.248728  0  6.086137  0  0  1.300184  0  6.060365  0  3.173026  0  0.541182  1.212756  0  6.102576  0
N  N74  1  0.99357364  0.84496310  0.49577613  1  0  -0.316162  0  3.274816  0  0  -0.264479  0  3.561294  0  0  -0.280512  0  3.569606  0  -1.200466  0  -0.310533  -0.255158  0  3.557026  0
N  N75  1  0.00647154  0.15501304  0.50422685  1  0  -0.316753  0  3.275751  0  0  -0.264982  0  3.562186  0  0  -0.280953  0  3.5705  0  -1.200103  0  -0.31096  -0.255702  0  3.557931  0
N  N76  1  0.15405630  0.96921785  0.39525026  1  0  -0.313466  0  3.224128  0  0  -0.266602  0  3.515563  0  0  -0.280882  0  3.518872  0  -1.207173  0  -0.307412  -0.258428  0  3.514591  0
N  N77  1  0.84596029  0.03079404  0.60477231  1  0  -0.313339  0  3.223811  0  0  -0.266598  0  3.515345  0  0  -0.280853  0  3.518688  0  -1.206663  0  -0.307278  -0.258477  0  3.514357  0
O  O78  1  0.39547890  0.57877130  0.82874809  1  0  -0.716232  0  1.498522  0  0  -0.722554  0  1.758347  0  0  -0.743384  0  1.747607  0  -0.853484  0  -0.765336  -0.710745  0  1.767081  0
O  O79  1  0.60452979  0.42120086  0.17124569  1  0  -0.716173  0  1.498795  0  0  -0.722496  0  1.758717  0  0  -0.743302  0  1.747983  0  -0.853675  0  -0.765573  -0.710648  0  1.767495  0
O  O80  1  0.36500954  0.72644983  0.55103342  1  0  -0.697645  0  1.566569  0  0  -0.711626  0  1.855437  0  0  -0.733009  0  1.844912  0  -0.85429  0  -0.76609  -0.699401  0  1.864157  0
O  O81  1  0.63500537  0.27356604  0.44893898  1  0  -0.698049  0  1.567073  0  0  -0.712018  0  1.855966  0  0  -0.733388  0  1.845437  0  -0.85478  0  -0.766404  -0.699767  0  1.864742  0
O  O82  1  0.50802120  0.79699427  0.69253689  1  0  -0.675954  0  2.119838  0  0  -0.664018  0  2.399022  0  0  -0.698386  0  2.391733  0  -1.166216  0  -0.36637  -0.638997  0  2.402724  0
O  O83  1  0.49193967  0.20300074  0.30747772  1  0  -0.675884  0  2.120139  0  0  -0.664136  0  2.398984  0  0  -0.698478  0  2.39168  0  -1.167015  0  -0.366217  -0.639087  0  2.402694  0
O  O84  1  0.66147960  0.88559940  0.73693585  1  0  -0.532787  0  2.024035  0  0  -0.501391  0  2.292275  0  0  -0.53023  0  2.277881  0  -1.090547  0  -0.29293  -0.482176  0  2.302095  0
O  O85  1  0.33842367  0.11445222  0.26306553  1  0  -0.533042  0  2.025551  0  0  -0.501452  0  2.293211  0  0  -0.530261  0  2.278831  0  -1.0903  0  -0.292777  -0.482219  0  2.303039  0
O  O86  1  0.18096552  0.84618271  0.73169021  1  0  -0.744373  0  2.081975  0  0  -0.729262  0  2.382418  0  0  -0.759245  0  2.370223  0  -1.304492  0  -0.41488  -0.70648  0  2.389375  0
O  O87  1  0.81902005  0.15381231  0.26830843  1  0  -0.74445  0  2.082151  0  0  -0.729352  0  2.382684  0  0  -0.759317  0  2.370485  0  -1.304988  0  -0.414995  -0.706542  0  2.389645  0
O  O88  1  0.99808306  0.99823810  0.83455129  1  0  -0.628021  0  1.948023  0  0  -0.583608  0  2.192293  0  0  -0.606664  0  2.181663  0  -1.330572  0  -0.323279  -0.566962  0  2.198863  0
O  O89  1  0.00187825  0.00176386  0.16544432  1  0  -0.628215  0  1.94787  0  0  -0.583746  0  2.192071  0  0  -0.606828  0  2.181493  0  -1.331246  0  -0.323287  -0.567092  0  2.198628  0
O  O90  1  0.20936431  0.05963950  0.70960774  1  0  -0.649379  0  2.012895  0  0  -0.599634  0  2.255404  0  0  -0.623424  0  2.244826  0  -1.333087  0  -0.320502  -0.582437  0  2.262309  0
O  O91  1  0.79062744  0.94035948  0.29041231  1  0  -0.649366  0  2.012444  0  0  -0.599675  0  2.255047  0  0  -0.623478  0  2.244478  0  -1.332886  0  -0.320607  -0.582461  0  2.261921  0
O  O92  1  0.11405738  0.65105180  0.68991405  1  0  -0.676527  0  2.142383  0  0  -0.667049  0  2.430395  0  0  -0.700417  0  2.422322  0  -1.168379  0  -0.359004  -0.642391  0  2.434601  0
O  O93  1  0.88596256  0.34894421  0.31006112  1  0  -0.676638  0  2.142158  0  0  -0.667173  0  2.430238  0  0  -0.700533  0  2.422177  0  -1.168372  0  -0.359044  -0.642474  0  2.43444  0
O  O94  1  0.87089330  0.65796322  0.67232560  1  0  -0.597825  0  2.08392  0  0  -0.545465  0  2.336321  0  0  -0.573847  0  2.321313  0  -1.12702  0  -0.292094  -0.526095  0  2.34627  0
O  O95  1  0.12912608  0.34202881  0.32768357  1  0  -0.597655  0  2.084876  0  0  -0.545243  0  2.337383  0  0  -0.573586  0  2.322345  0  -1.12769  0  -0.292069  -0.525869  0  2.347342  0
O  O96  1  0.40817991  0.43998060  0.67028202  1  0  -0.752893  0  2.035867  0  0  -0.734108  0  2.326483  0  0  -0.765646  0  2.315212  0  -1.306755  0  -0.405023  -0.710038  0  2.332619  0
O  O97  1  0.59185168  0.56001441  0.32968138  1  0  -0.752935  0  2.035875  0  0  -0.734163  0  2.326549  0  0  -0.765687  0  2.315274  0  -1.305953  0  -0.40505  -0.710055  0  2.332688  0
O  O98  1  0.42034970  0.22498343  0.65814081  1  0  -0.605482  0  1.953823  0  0  -0.560135  0  2.191318  0  0  -0.58181  0  2.178435  0  -1.314066  0  -0.312102  -0.544309  0  2.199742  0
O  O99  1  0.57966798  0.77499668  0.34184309  1  0  -0.605332  0  1.953858  0  0  -0.560056  0  2.191454  0  0  -0.581733  0  2.178582  0  -1.313519  0  -0.312025  -0.544239  0  2.199913  0
O  O100  1  0.21957277  0.43072829  0.56617245  1  0  -0.659008  0  1.932491  0  0  -0.611623  0  2.168578  0  0  -0.633516  0  2.152606  0  -1.327002  0  -0.324884  -0.595703  0  2.178881  0
O  O101  1  0.78043018  0.56924686  0.43381911  1  0  -0.659014  0  1.932308  0  0  -0.61162  0  2.168388  0  0  -0.633514  0  2.152417  0  -1.327247  0  -0.324895  -0.595692  0  2.178687  0
O  O102  1  0.66871349  0.55002119  0.64041018  1  0  -0.867982  0  1.855458  0  0  -0.840868  0  2.031598  0  0  -0.865616  0  2.001018  0  -1.266467  0  -0.606298  -0.822545  0  2.052651  0
O  O103  1  0.33131123  0.44998474  0.35957911  1  0  -0.867979  0  1.855305  0  0  -0.840846  0  2.031468  0  0  -0.86558  0  2.000896  0  -1.266631  0  -0.606265  -0.822508  0  2.05258  0
O  O104  1  0.65950781  0.90605361  0.49185407  1  0  -0.85128  0  1.902953  0  0  -0.810607  0  2.112281  0  0  -0.828401  0  2.077945  0  -1.24981  0  -0.591444  -0.797761  0  2.135703  0
O  O105  1  0.34056135  0.09376760  0.50816473  1  0  -0.851012  0  1.903086  0  0  -0.810365  0  2.112356  0  0  -0.8282  0  2.078073  0  -1.250041  0  -0.59169  -0.797474  0  2.13569  0
