# generated using pymatgen
data_Cu5H14C32(N2O13)2
_symmetry_space_group_name_H-M   'P 1'
_cell_length_a   10.13643649
_cell_length_b   11.07272402
_cell_length_c   10.28075615
_cell_angle_alpha   83.84892224
_cell_angle_beta   66.55903991
_cell_angle_gamma   60.83878742
_symmetry_Int_Tables_number   1
_chemical_formula_structural   Cu5H14C32(N2O13)2
_chemical_formula_sum   'Cu5 H14 C32 N4 O26'
_cell_volume   919.05069493
_cell_formula_units_Z   1
loop_
 _symmetry_equiv_pos_site_id
 _symmetry_equiv_pos_as_xyz
  1  'x, y, z'
loop_
 _atom_site_type_symbol
 _atom_site_label
 _atom_site_symmetry_multiplicity
 _atom_site_fract_x
 _atom_site_fract_y
 _atom_site_fract_z
 _atom_site_occupancy
 _atom_site_pbe_bader_charge
 _atom_site_pbe_bader_spin_density
 _atom_site_pbe_cm5_charge
 _atom_site_pbe_ddec_charge
 _atom_site_pbe_ddec_spin_density
 _atom_site_pbe_ddec_sum_bond_order
 _atom_site_pbe_magmom
Cu  Cu0  1  0.00000112  0.50000360  0.49999809  1  1.143975  0.614811  0.699024  1.001467  0.789552  2.127583  0.613
Cu  Cu1  1  0.10126717  0.73147575  0.33115394  1  1.097108  0.555263  0.704289  0.922331  0.703604  2.138095  0.551
Cu  Cu2  1  0.89873084  0.26852464  0.66884542  1  1.097081  0.555259  0.704287  0.922329  0.703601  2.138117  0.551
Cu  Cu3  1  0.10863697  0.49737386  0.15650821  1  1.137129  0.578828  0.723376  0.987118  0.723743  2.002438  0.571
Cu  Cu4  1  0.89136378  0.50262329  0.84348965  1  1.137268  0.578832  0.723403  0.987186  0.723744  2.002354  0.571
H  H5  1  0.45711740  0.24731520  0.52994542  1  0.181457  0.000369  0.127461  0.153624  0.000307  0.991285  0.0
H  H6  1  0.54288332  0.75268634  0.47005650  1  0.181341  0.000369  0.127433  0.153587  0.000307  0.991353  0.0
H  H7  1  0.93545132  0.21639591  0.40271332  1  0.111375  0.000105  0.120457  0.121747  -0.000141  1.015365  0.0
H  H8  1  0.06455213  0.78359620  0.59728633  1  0.111391  0.000105  0.120438  0.121793  -0.000141  1.015368  0.0
H  H9  1  0.58890462  0.52235804  0.24098010  1  0.130767  0.000443  0.120646  0.14063  0.00037  0.973859  0.0
H  H10  1  0.41110388  0.47763449  0.75901251  1  0.130823  0.000443  0.120666  0.14063  0.00037  0.973942  0.0
H  H11  1  0.42573480  0.67016059  0.01848347  1  0.15802  0.000319  0.118944  0.140348  0.000279  0.994635  0.0
H  H12  1  0.57425546  0.32984441  0.98152113  1  0.157879  0.000319  0.118935  0.140391  0.000279  0.994542  0.0
H  H13  1  0.05855428  0.92871273  0.85453902  1  0.14383  0.000363  0.114852  0.129513  0.000356  0.994504  0.0
H  H14  1  0.94144377  0.07129162  0.14545859  1  0.143815  0.000363  0.114854  0.129542  0.000356  0.994515  0.0
H  H15  1  0.46525309  0.00125404  0.77072779  1  0.187215  0.000108  0.121332  0.136108  0.000104  1.020015  0.0
H  H16  1  0.53473606  0.99875318  0.22927880  1  0.18709  0.000108  0.121332  0.136088  0.000104  1.020006  0.0
H  H17  1  0.87873265  0.69737865  0.35798558  1  0.642827  -0.000568  0.282856  0.378909  0.001158  0.974165  0.001
H  H18  1  0.12126635  0.30262433  0.64202165  1  0.64281  -0.000568  0.282883  0.378943  0.001158  0.974114  0.001
C  C19  1  0.50676473  0.39037015  0.38132812  1  0.037919  0.015216  -0.008744  -0.027075  0.010797  3.945522  0.012
C  C20  1  0.49323643  0.60963293  0.61868112  1  0.038118  0.015218  -0.008755  -0.027026  0.010798  3.945496  0.012
C  C21  1  0.54533205  0.28235583  0.46744442  1  -0.009608  0.001997  -0.05247  -0.110468  0.001302  3.852418  0.001
C  C22  1  0.45467146  0.71764018  0.53255252  1  -0.009725  0.001998  -0.052465  -0.110513  0.001302  3.852379  0.001
C  C23  1  0.69797022  0.22559910  0.47645822  1  0.198186  0.000444  0.083629  0.065296  -1.7e-05  3.948951  0.0
C  C24  1  0.30203108  0.77439701  0.52353961  1  0.197988  0.000444  0.083649  0.065363  -1.7e-05  3.948885  0.0
C  C25  1  0.81451585  0.26677199  0.39855042  1  0.018692  0.001614  -0.058077  -0.11354  0.001045  3.914427  0.001
C  C26  1  0.18548482  0.73322557  0.60145324  1  0.019089  0.001613  -0.058126  -0.113661  0.001045  3.914514  0.001
C  C27  1  0.77369873  0.37469952  0.31374455  1  0.001263  0.002561  -0.004617  -0.00357  0.001917  3.936744  0.002
C  C28  1  0.22631359  0.62528784  0.68624844  1  0.001094  0.002561  -0.004451  -0.003451  0.001917  3.936797  0.002
C  C29  1  0.61996403  0.43669758  0.30593627  1  0.056417  0.004249  -0.054952  -0.073501  0.003024  3.860541  0.003
C  C30  1  0.38004104  0.56330193  0.69406715  1  0.05624  0.004248  -0.055022  -0.073616  0.003024  3.860843  0.003
C  C31  1  0.33800255  0.46767855  0.38030140  1  1.54066  0.000575  0.224869  0.592041  0.000503  4.149962  -0.002
C  C32  1  0.66200421  0.53232391  0.61970077  1  1.5407  0.000574  0.224674  0.59175  0.000504  4.150275  -0.002
C  C33  1  0.88824709  0.43108904  0.23983234  1  1.565034  -0.003169  0.198446  0.568398  -0.003977  4.185129  -0.005
C  C34  1  0.11176362  0.56890129  0.76015880  1  1.56465  -0.003169  0.198387  0.568353  -0.003976  4.185246  -0.005
C  C35  1  0.45593743  0.83416492  0.89820460  1  0.219875  0.002717  0.080812  0.066428  0.001932  3.940966  0.002
C  C36  1  0.54405447  0.16583698  0.10179992  1  0.220513  0.002716  0.08079  0.066327  0.001932  3.941046  0.002
C  C37  1  0.37583769  0.75682195  0.96008207  1  -0.007462  0.001347  -0.066977  -0.122174  0.000978  3.899243  0.001
C  C38  1  0.62415362  0.24318328  0.03992596  1  -0.007209  0.001347  -0.066975  -0.122209  0.000978  3.899135  0.001
C  C39  1  0.23078299  0.79285779  0.94471245  1  -0.047509  0.005258  -0.013413  -0.022267  0.003673  3.973666  0.004
C  C40  1  0.76921392  0.20714474  0.05528793  1  -0.0477  0.00526  -0.013449  -0.02234  0.003673  3.973667  0.004
C  C41  1  0.17148077  0.90226013  0.86605807  1  0.039575  0.002928  -0.057832  -0.076481  0.002136  3.878384  0.002
C  C42  1  0.82851668  0.09774136  0.13394228  1  0.039277  0.002929  -0.057806  -0.076489  0.002136  3.87838  0.002
C  C43  1  0.25650216  0.97572221  0.80117271  1  0.015059  0.008371  -0.003907  -0.01179  0.005963  3.933907  0.006
C  C44  1  0.74349973  0.02427474  0.19882276  1  0.015196  0.008372  -0.003893  -0.011716  0.005964  3.933852  0.006
C  C45  1  0.39945967  0.94352180  0.81871172  1  -0.017419  0.002104  -0.050215  -0.092798  0.001318  3.85382  0.002
C  C46  1  0.60054334  0.05647294  0.18128177  1  -0.017444  0.002104  -0.050255  -0.092806  0.001319  3.853882  0.002
C  C47  1  0.13754591  0.71449615  0.00825203  1  1.567773  -0.001497  0.194107  0.536894  -0.001787  4.260092  -0.003
C  C48  1  0.86245658  0.28550374  0.99174167  1  1.568163  -0.001497  0.194119  0.536992  -0.001787  4.260052  -0.003
C  C49  1  0.19002806  0.09161817  0.71663226  1  1.55775  -0.000697  0.221434  0.585206  -0.001203  4.147437  -0.003
C  C50  1  0.80997547  0.90837777  0.28336370  1  1.557785  -0.000698  0.221479  0.58519  -0.001203  4.147549  -0.003
N  N51  1  0.73415444  0.12335652  0.57641936  1  0.347071  0.002964  0.068444  0.536099  0.001798  4.12112  0.002
N  N52  1  0.26584301  0.87664706  0.42358157  1  0.347124  0.002964  0.06846  0.536176  0.001798  4.120994  0.002
N  N53  1  0.60662165  0.79706889  0.91648981  1  0.35387  0.007847  0.061588  0.522181  0.004757  4.134545  0.006
N  N54  1  0.39336854  0.20293228  0.08351848  1  0.353273  0.007849  0.0617  0.522369  0.004757  4.13424  0.006
O  O55  1  0.24321981  0.41569017  0.43595699  1  -1.116275  0.087  -0.306073  -0.519266  0.056216  2.347084  0.079
O  O56  1  0.75679092  0.58431054  0.56403606  1  -1.116452  0.087001  -0.305888  -0.519073  0.056214  2.347338  0.079
O  O57  1  0.30465032  0.58349165  0.32664176  1  -1.122068  0.076042  -0.32257  -0.551142  0.048711  2.478441  0.067
O  O58  1  0.69535763  0.41651033  0.67335415  1  -1.122035  0.076035  -0.322545  -0.551032  0.048707  2.478581  0.067
O  O59  1  0.85480778  0.52899497  0.16416547  1  -1.109346  0.054571  -0.288384  -0.509609  0.034274  2.151899  0.047
O  O60  1  0.14520241  0.47099208  0.83582261  1  -1.109039  0.054575  -0.288393  -0.509632  0.034277  2.151942  0.047
O  O61  1  0.02153342  0.37886055  0.26416707  1  -1.079253  0.125164  -0.330582  -0.575083  0.079223  2.342355  0.109
O  O62  1  0.97846612  0.62113930  0.73583955  1  -1.07927  0.125163  -0.330574  -0.575048  0.079223  2.342389  0.109
O  O63  1  0.83179098  0.11415608  0.62926460  1  -0.496353  0.033319  -0.145309  -0.369894  0.022515  2.06823  0.029
O  O64  1  0.16820589  0.88584868  0.37073829  1  -0.496382  0.033315  -0.145266  -0.369866  0.022512  2.068196  0.029
O  O65  1  0.66890223  0.04952288  0.60645012  1  -0.411677  0.014356  -0.081944  -0.267253  0.008807  1.949747  0.012
O  O66  1  0.33109909  0.95047735  0.39354789  1  -0.411711  0.014355  -0.081965  -0.267301  0.008806  1.949711  0.012
O  O67  1  0.21258467  0.60495679  0.06724923  1  -1.101955  0.109003  -0.344397  -0.590407  0.069301  2.410518  0.095
O  O68  1  0.78741114  0.39504572  0.93275062  1  -1.101994  0.108992  -0.344386  -0.590449  0.069295  2.410556  0.095
O  O69  1  0.00330227  0.75314805  0.00257287  1  -1.129035  0.014244  -0.289738  -0.487634  0.008489  2.162204  0.012
O  O70  1  0.99670073  0.24684886  0.99742216  1  -1.128997  0.014236  -0.289717  -0.487657  0.008484  2.16222  0.012
O  O71  1  0.06023683  0.10554439  0.70440459  1  -1.095961  0.116579  -0.339012  -0.563374  0.074205  2.417419  0.103
O  O72  1  0.93976510  0.89445661  0.29559010  1  -1.095958  0.116581  -0.339002  -0.56335  0.074206  2.417444  0.103
O  O73  1  0.25624104  0.16588453  0.66505136  1  -1.139948  0.016873  -0.284637  -0.472489  0.010047  2.165177  0.014
O  O74  1  0.74375972  0.83411262  0.33494650  1  -1.139987  0.016871  -0.284679  -0.472506  0.010046  2.165266  0.014
O  O75  1  0.66848241  0.68215806  0.96590671  1  -0.515114  0.018468  -0.156935  -0.385282  0.012501  2.12905  0.016
O  O76  1  0.33151059  0.31784378  0.03409736  1  -0.515121  0.018471  -0.156977  -0.385312  0.012503  2.128898  0.016
O  O77  1  0.66481494  0.87608884  0.88476673  1  -0.405225  0.0242  -0.088827  -0.265196  0.01517  1.943235  0.02
O  O78  1  0.33518020  0.12390907  0.11524013  1  -0.40518  0.024201  -0.088872  -0.265294  0.015171  1.943145  0.02
O  O79  1  0.99490903  0.62051138  0.34921323  1  -1.076616  0.31272  -0.567474  -0.873322  0.201827  2.490852  0.28
O  O80  1  0.00509504  0.37948979  0.65078444  1  -1.076525  0.312729  -0.567504  -0.873385  0.201833  2.490718  0.28
