# generated using pymatgen
data_LiH14C12NO4
_symmetry_space_group_name_H-M   'P 1'
_cell_length_a   10.06309701
_cell_length_b   10.53630334
_cell_length_c   11.70234649
_cell_angle_alpha   90.00001241
_cell_angle_beta   89.99997688
_cell_angle_gamma   90.00001252
_symmetry_Int_Tables_number   1
_chemical_formula_structural   LiH14C12NO4
_chemical_formula_sum   'Li4 H56 C48 N4 O16'
_cell_volume   1240.77455179
_cell_formula_units_Z   4
loop_
 _symmetry_equiv_pos_site_id
 _symmetry_equiv_pos_as_xyz
  1  'x, y, z'
loop_
 _atom_site_type_symbol
 _atom_site_label
 _atom_site_symmetry_multiplicity
 _atom_site_fract_x
 _atom_site_fract_y
 _atom_site_fract_z
 _atom_site_occupancy
 _atom_site_hle17_bader_spin_density
 _atom_site_hle17_ddec_charge
 _atom_site_hle17_ddec_spin_density
 _atom_site_hle17_ddec_sum_bond_order
 _atom_site_hle17_magmom
 _atom_site_hse06_10hf_bader_spin_density
 _atom_site_hse06_10hf_ddec_charge
 _atom_site_hse06_10hf_ddec_spin_density
 _atom_site_hse06_10hf_ddec_sum_bond_order
 _atom_site_hse06_10hf_magmom
 _atom_site_hse06_bader_spin_density
 _atom_site_hse06_ddec_charge
 _atom_site_hse06_ddec_spin_density
 _atom_site_hse06_ddec_sum_bond_order
 _atom_site_hse06_magmom
 _atom_site_pbe_bader_spin_density
 _atom_site_pbe_cm5_charge
 _atom_site_pbe_ddec_charge
 _atom_site_pbe_ddec_spin_density
 _atom_site_pbe_ddec_sum_bond_order
 _atom_site_pbe_magmom
Li  Li0  1  0.50000006  0.49999997  0.61664125  1  0  0.865704  0  0.417618  0  0  0.834997  0  0.512469  0  0  0.843519  0  0.496433  0  0  0.524892  0.828824  0  0.524026  0
Li  Li1  1  0.00000021  0.00000015  0.38335799  1  0  0.865696  0  0.417631  0  0  0.834999  0  0.512462  0  0  0.843521  0  0.496427  0  0  0.524887  0.828826  0  0.52402  0
Li  Li2  1  0.49999900  0.00000013  0.67345117  1  0  0.858208  0  0.420568  0  0  0.822933  0  0.523095  0  0  0.83205  0  0.506156  0  0  0.521595  0.816424  0  0.535176  0
Li  Li3  1  0.00000028  0.49999998  0.32654806  1  0  0.858173  0  0.420606  0  0  0.82291  0  0.523113  0  0  0.832022  0  0.506181  0  0  0.521605  0.816403  0  0.53519  0
H  H4  1  0.19439236  0.24356937  0.44645148  1  0  0.089072  0  0.910476  0  0  0.098281  0  0.969145  0  0  0.100323  0  0.968483  0  0  0.129908  0.096806  0  0.969791  0
H  H5  1  0.80560684  0.75643052  0.44645142  1  0  0.089067  0  0.910471  0  0  0.098279  0  0.96914  0  0  0.10032  0  0.96848  0  0  0.129908  0.096804  0  0.969788  0
H  H6  1  0.69439249  0.25643068  0.55354872  1  0  0.089063  0  0.910482  0  0  0.098272  0  0.969153  0  0  0.100314  0  0.968492  0  0  0.129905  0.096797  0  0.9698  0
H  H7  1  0.30560667  0.74356924  0.55354883  1  0  0.089068  0  0.910457  0  0  0.098279  0  0.969124  0  0  0.10032  0  0.968464  0  0  0.129904  0.096804  0  0.969772  0
H  H8  1  0.35340997  0.29537885  0.63574682  1  0  0.296326  0  0.923207  0  0  0.273689  0  0.992007  0  0  0.28359  0  0.984113  0  0  0.307725  0.266612  0  0.997753  0
H  H9  1  0.64659014  0.70462109  0.63574681  1  0  0.296335  0  0.923195  0  0  0.273705  0  0.991991  0  0  0.283606  0  0.984095  0  0  0.307723  0.266628  0  0.997736  0
H  H10  1  0.85341017  0.20462123  0.36425332  1  0  0.296336  0  0.923194  0  0  0.273705  0  0.991991  0  0  0.283606  0  0.984095  0  0  0.307722  0.266628  0  0.997736  0
H  H11  1  0.14659007  0.79537864  0.36425350  1  0  0.296316  0  0.923219  0  0  0.273691  0  0.992018  0  0  0.283593  0  0.984121  0  0  0.307713  0.266614  0  0.997763  0
H  H12  1  0.29344135  0.15079113  0.59584799  1  0  0.295031  0  0.922287  0  0  0.27352  0  0.989919  0  0  0.28318  0  0.982305  0  0  0.307743  0.266319  0  0.995802  0
H  H13  1  0.70655779  0.84920975  0.59584798  1  0  0.295041  0  0.922333  0  0  0.273538  0  0.989965  0  0  0.283197  0  0.982352  0  0  0.307746  0.266336  0  0.995847  0
H  H14  1  0.79344157  0.34920895  0.40415218  1  0  0.295041  0  0.922336  0  0  0.273534  0  0.989972  0  0  0.283194  0  0.982358  0  0  0.307747  0.266333  0  0.995854  0
H  H15  1  0.20655766  0.65078999  0.40415231  1  0  0.295032  0  0.922329  0  0  0.273538  0  0.98996  0  0  0.283199  0  0.982344  0  0  0.30775  0.266337  0  0.995841  0
H  H16  1  0.24098927  0.27028467  0.79690683  1  0  0.079662  0  0.924116  0  0  0.094613  0  0.986345  0  0  0.094987  0  0.987213  0  0  0.113488  0.094161  0  0.985938  0
H  H17  1  0.75901076  0.72971626  0.79690678  1  0  0.079667  0  0.924109  0  0  0.094622  0  0.986343  0  0  0.094996  0  0.98721  0  0  0.113493  0.09417  0  0.985935  0
H  H18  1  0.74098956  0.22971539  0.20309335  1  0  0.079672  0  0.92411  0  0  0.094623  0  0.986337  0  0  0.094997  0  0.987205  0  0  0.11349  0.094171  0  0.98593  0
H  H19  1  0.25901076  0.77028444  0.20309349  1  0  0.079645  0  0.924099  0  0  0.094596  0  0.98636  0  0  0.094968  0  0.987227  0  0  0.113493  0.094145  0  0.985953  0
H  H20  1  0.15388189  0.13870720  0.73788790  1  0  0.074006  0  0.89993  0  0  0.0938  0  0.951838  0  0  0.094853  0  0.95141  0  0  0.116759  0.093014  0  0.952188  0
H  H21  1  0.84611817  0.86129372  0.73788785  1  0  0.074002  0  0.899928  0  0  0.093811  0  0.951831  0  0  0.094865  0  0.951402  0  0  0.116761  0.093025  0  0.952182  0
H  H22  1  0.65388119  0.36129380  0.26211231  1  0  0.073995  0  0.899925  0  0  0.093796  0  0.951827  0  0  0.09485  0  0.951398  0  0  0.116745  0.09301  0  0.952178  0
H  H23  1  0.34611811  0.63870605  0.26211325  1  0  0.07398  0  0.899927  0  0  0.093797  0  0.951842  0  0  0.09485  0  0.951413  0  0  0.116761  0.093012  0  0.952191  0
H  H24  1  0.97289419  0.29152369  0.74818656  1  0  0.082862  0  0.962315  0  0  0.099975  0  1.022376  0  0  0.099775  0  1.025325  0  0  0.094599  0.099938  0  1.020478  0
H  H25  1  0.02710587  0.70847723  0.74818676  1  0  0.082867  0  0.962322  0  0  0.099977  0  1.022383  0  0  0.099777  0  1.025333  0  0  0.094605  0.099939  0  1.020486  0
H  H26  1  0.47289414  0.20847642  0.25181354  1  0  0.082875  0  0.962307  0  0  0.099984  0  1.022365  0  0  0.099785  0  1.025313  0  0  0.094604  0.099947  0  1.020467  0
H  H27  1  0.52710615  0.79152342  0.25181359  1  0  0.08285  0  0.96234  0  0  0.099959  0  1.022405  0  0  0.099757  0  1.025354  0  0  0.094608  0.099922  0  1.020507  0
H  H28  1  0.08022469  0.42016738  0.71619485  1  0  0.071784  0  0.945479  0  0  0.090227  0  1.006052  0  0  0.090514  0  1.007516  0  0  0.092689  0.089961  0  1.005016  0
H  H29  1  0.91977539  0.57983353  0.71619472  1  0  0.071813  0  0.945488  0  0  0.090253  0  1.006056  0  0  0.09054  0  1.00752  0  0  0.092696  0.089987  0  1.005018  0
H  H30  1  0.58022490  0.07983360  0.28380453  1  0  0.071794  0  0.945496  0  0  0.090232  0  1.006066  0  0  0.09052  0  1.007529  0  0  0.092692  0.089967  0  1.005028  0
H  H31  1  0.41977538  0.92016626  0.28380549  1  0  0.071815  0  0.945493  0  0  0.090256  0  1.006061  0  0  0.090541  0  1.007525  0  0  0.092706  0.08999  0  1.005023  0
H  H32  1  0.97870657  0.37133249  0.52839389  1  0  0.0942  0  0.976062  0  0  0.107607  0  1.040334  0  0  0.1097  0  1.039936  0  0  0.105931  0.106036  0  1.040716  0
H  H33  1  0.02129359  0.62866837  0.52839409  1  0  0.094202  0  0.976016  0  0  0.107597  0  1.040291  0  0  0.109689  0  1.039893  0  0  0.105936  0.106026  0  1.040673  0
H  H34  1  0.47870641  0.12866857  0.47160620  1  0  0.094201  0  0.976024  0  0  0.107597  0  1.040299  0  0  0.109689  0  1.039903  0  0  0.105936  0.106025  0  1.040682  0
H  H35  1  0.52129378  0.87133133  0.47160712  1  0  0.094191  0  0.976009  0  0  0.107587  0  1.040283  0  0  0.109678  0  1.039885  0  0  0.105922  0.106016  0  1.040665  0
H  H36  1  0.99811210  0.20517744  0.55253775  1  0  0.086826  0  0.938993  0  0  0.10152  0  1.002133  0  0  0.103508  0  1.001384  0  0  0.10461  0.100009  0  1.002755  0
H  H37  1  0.00188805  0.79482342  0.55253713  1  0  0.086833  0  0.939007  0  0  0.101524  0  1.002139  0  0  0.103511  0  1.001387  0  0  0.104626  0.100013  0  1.00276  0
H  H38  1  0.49811199  0.29482267  0.44746234  1  0  0.086833  0  0.939002  0  0  0.101523  0  1.002134  0  0  0.10351  0  1.001385  0  0  0.104605  0.100012  0  1.002756  0
H  H39  1  0.50188821  0.70517627  0.44746323  1  0  0.086841  0  0.93899  0  0  0.101535  0  1.002112  0  0  0.103521  0  1.001361  0  0  0.104643  0.100024  0  1.002733  0
H  H40  1  0.29169738  0.90532145  0.86914197  1  0  0.099026  0  0.956169  0  0  0.108061  0  1.019341  0  0  0.111944  0  1.016389  0  0  0.109572  0.105229  0  1.021626  0
H  H41  1  0.70830362  0.09467855  0.86914096  1  0  0.099042  0  0.956153  0  0  0.108085  0  1.019313  0  0  0.111971  0  1.016357  0  0  0.109574  0.105253  0  1.021599  0
H  H42  1  0.79169667  0.59467831  0.13085915  1  0  0.099044  0  0.956152  0  0  0.108077  0  1.019322  0  0  0.111961  0  1.016369  0  0  0.109574  0.105247  0  1.021601  0
H  H43  1  0.20830269  0.40532151  0.13085837  1  0  0.099038  0  0.956181  0  0  0.108072  0  1.019351  0  0  0.111955  0  1.0164  0  0  0.109574  0.105243  0  1.021627  0
H  H44  1  0.09789617  0.85736535  0.99674974  1  0  0.088054  0  0.951173  0  0  0.100536  0  1.006557  0  0  0.103013  0  1.006571  0  0  0.099023  0.098593  0  1.00708  0
H  H45  1  0.90210378  0.14263468  0.99674867  1  0  0.088077  0  0.951141  0  0  0.100549  0  1.006542  0  0  0.103027  0  1.006555  0  0  0.099017  0.098602  0  1.007071  0
H  H46  1  0.59789553  0.64263437  0.00325059  1  0  0.088067  0  0.951158  0  0  0.100538  0  1.006559  0  0  0.103016  0  1.006573  0  0  0.099006  0.098592  0  1.007087  0
H  H47  1  0.40210389  0.35736542  0.00325060  1  0  0.088055  0  0.951157  0  0  0.100526  0  1.00656  0  0  0.103004  0  1.006573  0  0  0.099006  0.098579  0  1.007089  0
H  H48  1  0.03365471  0.63262796  0.03244483  1  0  0.097778  0  0.97059  0  0  0.107758  0  1.031997  0  0  0.110365  0  1.030958  0  0  0.103298  0.105754  0  1.033077  0
H  H49  1  0.96634568  0.36737184  0.03244464  1  0  0.09779  0  0.970561  0  0  0.107765  0  1.031978  0  0  0.110372  0  1.030939  0  0  0.103304  0.105762  0  1.033057  0
H  H50  1  0.53365467  0.86737174  0.96755552  1  0  0.097784  0  0.970572  0  0  0.107764  0  1.031982  0  0  0.110371  0  1.030944  0  0  0.103301  0.10576  0  1.03306  0
H  H51  1  0.46634529  0.13262828  0.96755460  1  0  0.097786  0  0.970578  0  0  0.107769  0  1.031983  0  0  0.110377  0  1.030944  0  0  0.103301  0.105765  0  1.033061  0
H  H52  1  0.15233365  0.45828610  0.93175589  1  0  0.080685  0  0.975892  0  0  0.090995  0  1.040848  0  0  0.093135  0  1.041149  0  0  0.097667  0.089302  0  1.041229  0
H  H53  1  0.84766732  0.54171486  0.93175406  1  0  0.080683  0  0.975924  0  0  0.090971  0  1.040907  0  0  0.09311  0  1.041211  0  0  0.097674  0.08928  0  1.041287  0
H  H54  1  0.65233296  0.04171395  0.06824603  1  0  0.080659  0  0.975908  0  0  0.090945  0  1.040898  0  0  0.093084  0  1.041202  0  0  0.097665  0.089254  0  1.041278  0
H  H55  1  0.34766543  0.95828586  0.06824447  1  0  0.080689  0  0.975887  0  0  0.090985  0  1.040859  0  0  0.093126  0  1.041159  0  0  0.097668  0.089293  0  1.041238  0
H  H56  1  0.34600468  0.50749786  0.80572387  1  0  0.096558  0  0.974873  0  0  0.101561  0  1.046936  0  0  0.105626  0  1.043967  0  0  0.108284  0.098406  0  1.0495  0
H  H57  1  0.65399535  0.49250117  0.80572381  1  0  0.096548  0  0.974874  0  0  0.101551  0  1.046933  0  0  0.105616  0  1.043963  0  0  0.108295  0.098396  0  1.0495  0
H  H58  1  0.84600503  0.99250191  0.19427637  1  0  0.096515  0  0.974874  0  0  0.101517  0  1.046938  0  0  0.105582  0  1.043968  0  0  0.108276  0.098362  0  1.049501  0
H  H59  1  0.15399529  0.00749793  0.19427554  1  0  0.096479  0  0.974859  0  0  0.10148  0  1.04694  0  0  0.105545  0  1.04397  0  0  0.108247  0.098323  0  1.04951  0
C  C60  1  0.23244130  0.43765073  0.49193895  1  0  0.68129  0  3.858324  0  0  0.637537  0  4.158243  0  0  0.668564  0  4.151678  0  0  0.230183  0.61659  0  4.162006  0
C  C61  1  0.76755888  0.56234917  0.49193887  1  0  0.681239  0  3.858378  0  0  0.637533  0  4.158227  0  0  0.66856  0  4.15166  0  0  0.23018  0.616585  0  4.161991  0
C  C62  1  0.73244140  0.06234933  0.50806123  1  0  0.681322  0  3.85831  0  0  0.637573  0  4.158223  0  0  0.6686  0  4.151655  0  0  0.230194  0.616625  0  4.161988  0
C  C63  1  0.26755877  0.93765058  0.50806054  1  0  0.681202  0  3.858427  0  0  0.637493  0  4.158279  0  0  0.668519  0  4.151713  0  0  0.230151  0.616545  0  4.162043  0
C  C64  1  0.18374653  0.30297257  0.52312158  1  0  0.018064  0  3.483835  0  0  -0.002413  0  3.727078  0  0  -0.002624  0  3.737473  0  0  0.018764  -0.002709  0  3.72061  0
C  C65  1  0.81625364  0.69702830  0.52312151  1  0  0.018094  0  3.483835  0  0  -0.002406  0  3.727081  0  0  -0.002616  0  3.737476  0  0  0.018755  -0.0027  0  3.72061  0
C  C66  1  0.68374667  0.19702749  0.47687862  1  0  0.018097  0  3.483819  0  0  -0.002383  0  3.72706  0  0  -0.002594  0  3.737456  0  0  0.018768  -0.002675  0  3.720587  0
C  C67  1  0.31625351  0.80297147  0.47687874  1  0  0.01807  0  3.483779  0  0  -0.002419  0  3.727021  0  0  -0.002629  0  3.737415  0  0  0.018746  -0.002715  0  3.720554  0
C  C68  1  0.18098986  0.23849362  0.72422654  1  0  0.050876  0  3.497989  0  0  -0.008969  0  3.761293  0  0  -0.004367  0  3.769952  0  0  -0.052657  -0.011975  0  3.755224  0
C  C69  1  0.81901021  0.76150729  0.72422648  1  0  0.05092  0  3.497963  0  0  -0.008957  0  3.76131  0  0  -0.004353  0  3.769969  0  0  -0.052663  -0.011962  0  3.755241  0
C  C70  1  0.68098913  0.26150643  0.27577366  1  0  0.050893  0  3.498011  0  0  -0.008954  0  3.761315  0  0  -0.004352  0  3.769977  0  0  -0.052652  -0.01196  0  3.755248  0
C  C71  1  0.31901016  0.73849247  0.27577377  1  0  0.051027  0  3.497911  0  0  -0.008887  0  3.761338  0  0  -0.004281  0  3.769992  0  0  -0.052623  -0.011893  0  3.75527  0
C  C72  1  0.05953721  0.31978113  0.69751312  1  0  -0.13624  0  3.670697  0  0  -0.175417  0  3.92897  0  0  -0.177127  0  3.942815  0  0  -0.16359  -0.173979  0  3.919339  0
C  C73  1  0.94046287  0.68021978  0.69751301  1  0  -0.136314  0  3.670753  0  0  -0.175477  0  3.929008  0  0  -0.177191  0  3.942855  0  0  -0.163611  -0.17404  0  3.919376  0
C  C74  1  0.55953744  0.18021890  0.30248712  1  0  -0.136263  0  3.670783  0  0  -0.175426  0  3.929023  0  0  -0.177139  0  3.942868  0  0  -0.163593  -0.17399  0  3.919391  0
C  C75  1  0.44046283  0.81978001  0.30248806  1  0  -0.136334  0  3.670778  0  0  -0.175485  0  3.929045  0  0  -0.177188  0  3.942882  0  0  -0.163661  -0.174048  0  3.919413  0
C  C76  1  0.04102703  0.29932802  0.56915511  1  0  -0.148  0  3.633468  0  0  -0.192541  0  3.891722  0  0  -0.19384  0  3.902651  0  0  -0.156298  -0.191403  0  3.884382  0
C  C77  1  0.95897311  0.70067381  0.56915499  1  0  -0.147968  0  3.633514  0  0  -0.192484  0  3.891739  0  0  -0.193777  0  3.902665  0  0  -0.156285  -0.191346  0  3.884398  0
C  C78  1  0.54102720  0.20067296  0.43084514  1  0  -0.148026  0  3.633475  0  0  -0.192543  0  3.891696  0  0  -0.193841  0  3.902626  0  0  -0.156293  -0.191406  0  3.884357  0
C  C79  1  0.45897301  0.79932599  0.43084607  1  0  -0.147966  0  3.633508  0  0  -0.192473  0  3.891707  0  0  -0.193768  0  3.902631  0  0  -0.156272  -0.191335  0  3.884367  0
C  C80  1  0.45147722  0.74080170  0.76061241  1  0  0.684939  0  3.913242  0  0  0.637392  0  4.209839  0  0  0.669824  0  4.201814  0  0  0.222269  0.615525  0  4.214352  0
C  C81  1  0.54852284  0.25919827  0.76061149  1  0  0.685005  0  3.913213  0  0  0.637489  0  4.209763  0  0  0.66992  0  4.201734  0  0  0.222307  0.615622  0  4.214275  0
C  C82  1  0.95147650  0.75919809  0.23938780  1  0  0.685033  0  3.913154  0  0  0.637531  0  4.209696  0  0  0.669958  0  4.201669  0  0  0.222352  0.615664  0  4.214211  0
C  C83  1  0.04852281  0.24080176  0.23938705  1  0  0.68498  0  3.913165  0  0  0.637429  0  4.209752  0  0  0.66987  0  4.201725  0  0  0.222306  0.615564  0  4.214263  0
C  C84  1  0.33070921  0.70955165  0.83104616  1  0  -0.086329  0  3.773572  0  0  -0.059688  0  3.999438  0  0  -0.068315  0  4.024178  0  0  -0.020269  -0.054274  0  3.982465  0
C  C85  1  0.66929181  0.29044739  0.83104435  1  0  -0.086388  0  3.773604  0  0  -0.059776  0  3.999494  0  0  -0.0684  0  4.024224  0  0  -0.020305  -0.054361  0  3.982519  0
C  C86  1  0.83070853  0.79044812  0.16895494  1  0  -0.086277  0  3.773595  0  0  -0.059687  0  3.999504  0  0  -0.068294  0  4.024215  0  0  -0.020258  -0.054273  0  3.982531  0
C  C87  1  0.16929081  0.20955171  0.16895329  1  0  -0.086305  0  3.773588  0  0  -0.059638  0  3.999421  0  0  -0.068289  0  4.024188  0  0  -0.020261  -0.054225  0  3.982447  0
C  C88  1  0.25955219  0.80785463  0.88385269  1  0  -0.085376  0  3.76561  0  0  -0.108487  0  4.009814  0  0  -0.108076  0  4.029676  0  0  -0.085349  -0.108166  0  3.99624  0
C  C89  1  0.74044781  0.19214537  0.88385169  1  0  -0.085382  0  3.765582  0  0  -0.108488  0  4.009769  0  0  -0.10808  0  4.029633  0  0  -0.085337  -0.108166  0  3.996193  0
C  C90  1  0.75955250  0.69214607  0.11614758  1  0  -0.08542  0  3.765556  0  0  -0.108507  0  4.009754  0  0  -0.108104  0  4.029612  0  0  -0.085346  -0.108185  0  3.996181  0
C  C91  1  0.24044686  0.30785469  0.11614678  1  0  -0.085412  0  3.765621  0  0  -0.108531  0  4.009814  0  0  -0.108114  0  4.029684  0  0  -0.085345  -0.108209  0  3.996241  0
C  C92  1  0.15193520  0.78049778  0.95488803  1  0  -0.090128  0  3.79212  0  0  -0.09947  0  4.039599  0  0  -0.103045  0  4.061086  0  0  -0.095454  -0.097111  0  4.025306  0
C  C93  1  0.84806476  0.21950224  0.95488615  1  0  -0.090168  0  3.792144  0  0  -0.099509  0  4.039632  0  0  -0.103086  0  4.061123  0  0  -0.095468  -0.097146  0  4.025338  0
C  C94  1  0.65193555  0.71950195  0.04511313  1  0  -0.090188  0  3.792083  0  0  -0.099528  0  4.03957  0  0  -0.103103  0  4.061059  0  0  -0.09548  -0.097166  0  4.025278  0
C  C95  1  0.34806484  0.28049785  0.04511229  1  0  -0.090107  0  3.79208  0  0  -0.09944  0  4.039562  0  0  -0.103014  0  4.061048  0  0  -0.095441  -0.097079  0  4.02527  0
C  C96  1  0.11431555  0.65433399  0.97341764  1  0  -0.060781  0  3.746174  0  0  -0.076207  0  3.992553  0  0  -0.075919  0  4.012697  0  0  -0.08673  -0.076269  0  3.978768  0
C  C97  1  0.88568441  0.34566509  0.97341662  1  0  -0.060767  0  3.746145  0  0  -0.076187  0  3.992508  0  0  -0.075899  0  4.012653  0  0  -0.086724  -0.07625  0  3.978723  0
C  C98  1  0.61431495  0.84566573  0.02658353  1  0  -0.060794  0  3.746121  0  0  -0.076219  0  3.992493  0  0  -0.075931  0  4.012638  0  0  -0.08672  -0.076282  0  3.978709  0
C  C99  1  0.38568346  0.15433406  0.02658265  1  0  -0.060817  0  3.746209  0  0  -0.076246  0  3.992586  0  0  -0.075959  0  4.012731  0  0  -0.086739  -0.076309  0  3.978802  0
C  C100  1  0.18273186  0.55638123  0.91830303  1  0  -0.086353  0  3.789423  0  0  -0.097339  0  4.038784  0  0  -0.101314  0  4.061396  0  0  -0.09433  -0.09459  0  4.023555  0
C  C101  1  0.81726812  0.44361878  0.91830035  1  0  -0.086383  0  3.789467  0  0  -0.097353  0  4.038823  0  0  -0.101327  0  4.061428  0  0  -0.094324  -0.094607  0  4.023597  0
C  C102  1  0.68273126  0.94361851  0.08169897  1  0  -0.086295  0  3.789382  0  0  -0.09726  0  4.038734  0  0  -0.101234  0  4.061342  0  0  -0.094325  -0.094514  0  4.023507  0
C  C103  1  0.31726812  0.05638130  0.08169724  1  0  -0.086338  0  3.789385  0  0  -0.09731  0  4.038741  0  0  -0.101287  0  4.061352  0  0  -0.094324  -0.094561  0  4.023511  0
C  C104  1  0.29049891  0.58343246  0.84744885  1  0  -0.083855  0  3.7483  0  0  -0.106212  0  3.992496  0  0  -0.105641  0  4.012303  0  0  -0.084336  -0.105914  0  3.97902  0
C  C105  1  0.70950210  0.41656753  0.84744705  1  0  -0.083806  0  3.748319  0  0  -0.10615  0  3.992501  0  0  -0.105579  0  4.012304  0  0  -0.084349  -0.105855  0  3.979025  0
C  C106  1  0.79049826  0.91656730  0.15255312  1  0  -0.083856  0  3.748339  0  0  -0.106197  0  3.992532  0  0  -0.105631  0  4.012332  0  0  -0.084352  -0.1059  0  3.979057  0
C  C107  1  0.20950108  0.08343253  0.15255143  1  0  -0.083795  0  3.748239  0  0  -0.106161  0  3.992429  0  0  -0.105582  0  4.01224  0  0  -0.084313  -0.105864  0  3.978952  0
N  N108  1  0.26480305  0.24455362  0.61741205  1  0  -0.316715  0  3.255638  0  0  -0.254675  0  3.469767  0  0  -0.269179  0  3.475215  0  0  -0.472133  -0.244539  0  3.466603  0
N  N109  1  0.73519707  0.75544727  0.61741202  1  0  -0.316752  0  3.255683  0  0  -0.254738  0  3.469864  0  0  -0.269245  0  3.475311  0  0  -0.472127  -0.244604  0  3.466699  0
N  N110  1  0.76480326  0.25544740  0.38258812  1  0  -0.316749  0  3.255676  0  0  -0.254739  0  3.469845  0  0  -0.269245  0  3.475293  0  0  -0.472132  -0.244605  0  3.466681  0
N  N111  1  0.23519697  0.74455248  0.38258740  1  0  -0.31674  0  3.255714  0  0  -0.254745  0  3.469936  0  0  -0.269253  0  3.475383  0  0  -0.472125  -0.24461  0  3.46677  0
O  O112  1  0.34080058  0.47768376  0.53104562  1  0  -0.691088  0  1.942279  0  0  -0.653265  0  2.17761  0  0  -0.673679  0  2.166182  0  0  -0.389796  -0.638972  0  2.184832  0
O  O113  1  0.65919958  0.52231615  0.53104557  1  0  -0.691082  0  1.942334  0  0  -0.653278  0  2.177648  0  0  -0.673693  0  2.166219  0  0  -0.389804  -0.638985  0  2.18487  0
O  O114  1  0.84080069  0.02231632  0.46895452  1  0  -0.691101  0  1.942279  0  0  -0.65328  0  2.177604  0  0  -0.673693  0  2.166174  0  0  -0.389801  -0.638987  0  2.184827  0
O  O115  1  0.15920049  0.97768358  0.46895388  1  0  -0.691059  0  1.942353  0  0  -0.653256  0  2.177664  0  0  -0.673669  0  2.166234  0  0  -0.389797  -0.638962  0  2.184885  0
O  O116  1  0.15692381  0.49985280  0.42469690  1  0  -0.70189  0  2.021546  0  0  -0.656317  0  2.258235  0  0  -0.679741  0  2.247844  0  0  -0.376541  -0.639778  0  2.264845  0
O  O117  1  0.84307640  0.50014709  0.42469678  1  0  -0.701884  0  2.021561  0  0  -0.656324  0  2.258231  0  0  -0.679748  0  2.24784  0  0  -0.376545  -0.639784  0  2.264842  0
O  O118  1  0.65692387  0.00014725  0.57530331  1  0  -0.701912  0  2.02154  0  0  -0.656335  0  2.258231  0  0  -0.67976  0  2.247838  0  0  -0.376541  -0.639795  0  2.264841  0
O  O119  1  0.34307528  0.99985268  0.57530346  1  0  -0.701878  0  2.021598  0  0  -0.656308  0  2.258266  0  0  -0.679735  0  2.247876  0  0  -0.376521  -0.639768  0  2.264877  0
O  O120  1  0.50556495  0.65122949  0.70319057  1  0  -0.733293  0  2.023932  0  0  -0.68812  0  2.270737  0  0  -0.710527  0  2.258377  0  0  -0.401042  -0.672299  0  2.279002  0
O  O121  1  0.49443414  0.34877047  0.70319054  1  0  -0.733279  0  2.023926  0  0  -0.688119  0  2.270737  0  0  -0.710528  0  2.258378  0  0  -0.401024  -0.672297  0  2.279  0
O  O122  1  0.00556591  0.84877021  0.29680893  1  0  -0.733305  0  2.023925  0  0  -0.688152  0  2.270727  0  0  -0.710562  0  2.258371  0  0  -0.401043  -0.672329  0  2.278987  0
O  O123  1  0.99443436  0.15122965  0.29680955  1  0  -0.733317  0  2.023902  0  0  -0.688151  0  2.270717  0  0  -0.710561  0  2.258354  0  0  -0.401046  -0.672326  0  2.278967  0
O  O124  1  0.49517451  0.85302703  0.76308542  1  0  -0.708944  0  1.941749  0  0  -0.666901  0  2.180247  0  0  -0.687273  0  2.168028  0  0  -0.407238  -0.652884  0  2.188713  0
O  O125  1  0.50482554  0.14697294  0.76308535  1  0  -0.708986  0  1.941685  0  0  -0.666968  0  2.180194  0  0  -0.68734  0  2.16797  0  0  -0.407274  -0.652952  0  2.188659  0
O  O126  1  0.99517476  0.64697372  0.23691391  1  0  -0.708981  0  1.941671  0  0  -0.666952  0  2.180145  0  0  -0.687325  0  2.167932  0  0  -0.407292  -0.652938  0  2.188612  0
O  O127  1  0.00482554  0.35302707  0.23691491  1  0  -0.708949  0  1.941699  0  0  -0.666919  0  2.180211  0  0  -0.687283  0  2.167977  0  0  -0.407271  -0.652905  0  2.188675  0
