# generated using pymatgen
data_CuH16C20(N2O)4
_symmetry_space_group_name_H-M   'P 1'
_cell_length_a   3.86761793
_cell_length_b   15.98399599
_cell_length_c   15.98616475
_cell_angle_alpha   89.12766068
_cell_angle_beta   83.05905889
_cell_angle_gamma   83.04811027
_symmetry_Int_Tables_number   1
_chemical_formula_structural   CuH16C20(N2O)4
_chemical_formula_sum   'Cu2 H32 C40 N16 O8'
_cell_volume   973.80926640
_cell_formula_units_Z   2
loop_
 _symmetry_equiv_pos_site_id
 _symmetry_equiv_pos_as_xyz
  1  'x, y, z'
loop_
 _atom_site_type_symbol
 _atom_site_label
 _atom_site_symmetry_multiplicity
 _atom_site_fract_x
 _atom_site_fract_y
 _atom_site_fract_z
 _atom_site_occupancy
 _atom_site_pbe_bader_spin_density
 _atom_site_pbe_cm5_charge
 _atom_site_pbe_ddec_charge
 _atom_site_pbe_ddec_spin_density
 _atom_site_pbe_ddec_sum_bond_order
 _atom_site_pbe_magmom
Cu  Cu0  1  0.87750119  0.75001578  0.24997263  1  0  0.732927  0.794167  0  2.614613  0
Cu  Cu1  1  0.12249409  0.24998474  0.75002457  1  0  0.732957  0.794216  0  2.614811  0
H  H2  1  0.71964928  0.54079846  0.14529386  1  0  0.11351  0.146639  0  1.009538  0
H  H3  1  0.76116540  0.14539953  0.95917911  1  0  0.113582  0.146584  0  1.010473  0
H  H4  1  0.40574811  0.95912050  0.35471335  1  0  0.11387  0.147508  0  1.008896  0
H  H5  1  0.86621638  0.35458518  0.54088790  1  0  0.113391  0.14653  0  1.009807  0
H  H6  1  0.28035107  0.45920228  0.85470838  1  0  0.113493  0.146612  0  1.009649  0
H  H7  1  0.23883524  0.85460051  0.04081871  1  0  0.113586  0.146539  0  1.010497  0
H  H8  1  0.59425691  0.04087641  0.64528196  1  0  0.113872  0.147504  0  1.009037  0
H  H9  1  0.13377730  0.64541346  0.45911623  1  0  0.113391  0.146528  0  1.009904  0
H  H10  1  0.87770307  0.63359440  0.74375618  1  0  0.106823  0.119849  0  0.998998  0
H  H11  1  0.01161825  0.74390960  0.86629783  1  0  0.106816  0.119832  0  0.998701  0
H  H12  1  0.25584601  0.86633870  0.75619390  1  0  0.107087  0.120632  0  0.99883  0
H  H13  1  0.62195824  0.75607013  0.63361461  1  0  0.106831  0.119915  0  0.998681  0
H  H14  1  0.12230075  0.36640649  0.25624921  1  0  0.106879  0.119891  0  0.998833  0
H  H15  1  0.98839403  0.25608512  0.13370819  1  0  0.106797  0.119876  0  0.998695  0
H  H16  1  0.74413754  0.13366012  0.24379889  1  0  0.107044  0.120522  0  0.998928  0
H  H17  1  0.37805547  0.24393803  0.36638259  1  0  0.106767  0.119832  0  0.998775  0
H  H18  1  0.93061141  0.52251315  0.76128125  1  0  0.100776  0.109629  0  1.016753  0
H  H19  1  0.95283942  0.76150097  0.97731556  1  0  0.100934  0.10963  0  1.016632  0
H  H20  1  0.21453048  0.97742859  0.73871815  1  0  0.100781  0.109706  0  1.015969  0
H  H21  1  0.69162695  0.73852546  0.52258406  1  0  0.100751  0.10899  0  1.017296  0
H  H22  1  0.06938797  0.47748634  0.23872540  1  0  0.100788  0.109607  0  1.016824  0
H  H23  1  0.04716344  0.23849922  0.02268794  1  0  0.100969  0.109736  0  1.016595  0
H  H24  1  0.78545180  0.02257015  0.26127212  1  0  0.100738  0.109659  0  1.016027  0
H  H25  1  0.30838196  0.26147872  0.47741503  1  0  0.100778  0.108985  0  1.01733  0
H  H26  1  0.27127124  0.58385392  0.78171355  1  0  0.101375  0.106756  0  1.029519  0
H  H27  1  0.35566745  0.78158161  0.91611883  1  0  0.101515  0.106963  0  1.029874  0
H  H28  1  0.63724939  0.91622022  0.71831950  1  0  0.101442  0.106894  0  1.029819  0
H  H29  1  0.05338949  0.71833574  0.58377456  1  0  0.101382  0.106994  0  1.029717  0
H  H30  1  0.72872657  0.41614620  0.21829499  1  0  0.101379  0.106702  0  1.029602  0
H  H31  1  0.64434105  0.21841428  0.08388719  1  0  0.101534  0.106999  0  1.029893  0
H  H32  1  0.36273734  0.08378000  0.28167455  1  0  0.101454  0.106958  0  1.029725  0
H  H33  1  0.94662581  0.28167312  0.41622326  1  0  0.101361  0.106918  0  1.029725  0
C  C34  1  0.74874140  0.57286092  0.01365555  1  0  0.126704  0.195934  0  4.082639  0
C  C35  1  0.82194825  0.01381006  0.92705912  1  0  0.126831  0.197489  0  4.081465  0
C  C36  1  0.33597783  0.92702789  0.48635421  1  0  0.126819  0.197643  0  4.080517  0
C  C37  1  0.76309452  0.48617058  0.57299341  1  0  0.127086  0.198691  0  4.080034  0
C  C38  1  0.25124787  0.42713882  0.98634480  1  0  0.126767  0.196033  0  4.082647  0
C  C39  1  0.17806696  0.98619294  0.07293493  1  0  0.126854  0.197537  0  4.08141  0
C  C40  1  0.66402593  0.07296965  0.51364236  1  0  0.126844  0.197617  0  4.08031  0
C  C41  1  0.23692006  0.51383132  0.42701450  1  0  0.126948  0.198688  0  4.080286  0
C  C42  1  0.84269392  0.52151921  0.08260133  1  0  -0.117055  -0.317723  0  3.978958  0
C  C43  1  0.86469426  0.08265156  0.97846708  1  0  -0.117683  -0.318923  0  3.979517  0
C  C44  1  0.44663316  0.97844165  0.41741017  1  0  -0.117598  -0.319163  0  3.980024  0
C  C45  1  0.92603779  0.41734117  0.52157525  1  0  -0.117529  -0.319036  0  3.979983  0
C  C46  1  0.15729694  0.47848123  0.91739965  1  0  -0.116959  -0.317599  0  3.978962  0
C  C47  1  0.13530861  0.91735043  0.02152760  1  0  -0.117621  -0.318763  0  3.979566  0
C  C48  1  0.55337407  0.02155534  0.58258577  1  0  -0.117622  -0.319141  0  3.979957  0
C  C49  1  0.07397327  0.58265737  0.47843077  1  0  -0.117488  -0.31905  0  3.980312  0
C  C50  1  0.91573750  0.54928881  0.92940903  1  0  0.099236  0.206343  0  4.009228  0
C  C51  1  0.96538823  0.92951557  0.95059314  1  0  0.098782  0.205885  0  4.010857  0
C  C52  1  0.39518938  0.95065733  0.57057895  1  0  0.098761  0.204939  0  4.01102  0
C  C53  1  0.84546016  0.57046726  0.54937385  1  0  0.098567  0.205438  0  4.009201  0
C  C54  1  0.08424766  0.45071148  0.07059321  1  0  0.099226  0.206306  0  4.009038  0
C  C55  1  0.03462507  0.07048673  0.04940091  1  0  0.098871  0.206152  0  4.010556  0
C  C56  1  0.60481058  0.04933943  0.42941636  1  0  0.098825  0.205086  0  4.01095  0
C  C57  1  0.15455253  0.42953457  0.45063280  1  0  0.098568  0.205382  0  4.009356  0
C  C58  1  0.34831544  0.67122817  0.09131599  1  0  0.295431  0.429849  0  4.229732  0
C  C59  1  0.51922353  0.09154672  0.82861773  1  0  0.294439  0.428561  0  4.233812  0
C  C60  1  0.11118490  0.82874235  0.40870658  1  0  0.295525  0.430775  0  4.231149  0
C  C61  1  0.43942928  0.40841896  0.67133104  1  0  0.294997  0.430342  0  4.234106  0
C  C62  1  0.65167547  0.32877673  0.90868120  1  0  0.29541  0.429785  0  4.229798  0
C  C63  1  0.48077017  0.90845380  0.17138262  1  0  0.294445  0.428682  0  4.233688  0
C  C64  1  0.88880272  0.17125279  0.59129062  1  0  0.295488  0.430592  0  4.231294  0
C  C65  1  0.56056662  0.59158101  0.32867120  1  0  0.295034  0.430395  0  4.234371  0
C  C66  1  0.98689601  0.58352731  0.78368087  1  0  -0.141643  -0.191214  0  3.869088  0
C  C67  1  0.07091453  0.78381514  0.91631940  1  0  -0.142122  -0.191597  0  3.871203  0
C  C68  1  0.35459475  0.91645510  0.71631071  1  0  -0.141626  -0.19159  0  3.870444  0
C  C69  1  0.77101497  0.71616994  0.58357657  1  0  -0.141967  -0.191482  0  3.871662  0
C  C70  1  0.01310182  0.41647406  0.21632515  1  0  -0.141566  -0.190965  0  3.86905  0
C  C71  1  0.92909651  0.21618208  0.08368410  1  0  -0.142286  -0.191903  0  3.871476  0
C  C72  1  0.64539164  0.08354316  0.28368271  1  0  -0.1416  -0.191492  0  3.870444  0
C  C73  1  0.22899807  0.28383501  0.41642314  1  0  -0.141837  -0.19114  0  3.871595  0
N  N74  1  0.17969273  0.70681778  0.14961520  1  0  -0.400431  -0.529552  0  3.297183  0
N  N75  1  0.38574918  0.14972995  0.79284180  1  0  -0.400394  -0.530227  0  3.295794  0
N  N76  1  0.03559659  0.79332407  0.35039048  1  0  -0.399511  -0.528675  0  3.29704  0
N  N77  1  0.32777690  0.35022531  0.70693447  1  0  -0.400547  -0.531266  0  3.296098  0
N  N78  1  0.82030795  0.29318547  0.85038137  1  0  -0.400403  -0.529518  0  3.297036  0
N  N79  1  0.61422841  0.85027074  0.20715918  1  0  -0.400433  -0.530318  0  3.295906  0
N  N80  1  0.96439673  0.20667192  0.64960924  1  0  -0.399572  -0.528723  0  3.296912  0
N  N81  1  0.67221452  0.64977060  0.29306399  1  0  -0.400545  -0.531242  0  3.296117  0
N  N82  1  0.51643701  0.64256813  0.02076561  1  0  -0.298158  -0.338912  0  3.445355  0
N  N83  1  0.65882778  0.02106347  0.85741642  1  0  -0.298839  -0.340418  0  3.44921  0
N  N84  1  0.18114011  0.85722676  0.47923721  1  0  -0.298234  -0.340349  0  3.446505  0
N  N85  1  0.53787779  0.47890806  0.64267827  1  0  -0.29945  -0.342019  0  3.448921  0
N  N86  1  0.48355570  0.35742974  0.97923159  1  0  -0.298204  -0.338946  0  3.44557  0
N  N87  1  0.34118272  0.97894133  0.14257825  1  0  -0.298747  -0.34045  0  3.44913  0
N  N88  1  0.81885041  0.14277235  0.52076188  1  0  -0.298141  -0.340115  0  3.446643  0
N  N89  1  0.46213173  0.52109306  0.35733090  1  0  -0.299463  -0.342105  0  3.44911  0
O  O90  1  0.81395428  0.60128868  0.86741806  1  0  -0.168297  -0.133743  0  2.613259  0
O  O91  1  0.91660879  0.86762348  0.89840416  1  0  -0.169041  -0.135282  0  2.614509  0
O  O92  1  0.28332529  0.89867042  0.63255416  1  0  -0.168334  -0.133768  0  2.616043  0
O  O93  1  0.68235688  0.63238619  0.60148534  1  0  -0.168686  -0.134402  0  2.615751  0
O  O94  1  0.18603784  0.39871121  0.13258670  1  0  -0.168448  -0.133943  0  2.613121  0
O  O95  1  0.08341076  0.13237327  0.10159367  1  0  -0.168926  -0.135255  0  2.614686  0
O  O96  1  0.71667246  0.10132627  0.36744052  1  0  -0.168334  -0.133899  0  2.616115  0
O  O97  1  0.31765585  0.36761884  0.39852005  1  0  -0.168698  -0.134538  0  2.615988  0
