# generated using pymatgen
data_H15PbC20(NO3)2
_symmetry_space_group_name_H-M   'P 1'
_cell_length_a   9.85145559
_cell_length_b   9.95840169
_cell_length_c   11.34465764
_cell_angle_alpha   65.30014635
_cell_angle_beta   84.44604579
_cell_angle_gamma   67.78157675
_symmetry_Int_Tables_number   1
_chemical_formula_structural   H15PbC20(NO3)2
_chemical_formula_sum   'H30 Pb2 C40 N4 O12'
_cell_volume   933.57709595
_cell_formula_units_Z   2
loop_
 _symmetry_equiv_pos_site_id
 _symmetry_equiv_pos_as_xyz
  1  'x, y, z'
loop_
 _atom_site_type_symbol
 _atom_site_label
 _atom_site_symmetry_multiplicity
 _atom_site_fract_x
 _atom_site_fract_y
 _atom_site_fract_z
 _atom_site_occupancy
 _atom_site_hle17_bader_spin_density
 _atom_site_hle17_ddec_charge
 _atom_site_hle17_ddec_spin_density
 _atom_site_hle17_ddec_sum_bond_order
 _atom_site_hle17_magmom
 _atom_site_hse06_10hf_bader_spin_density
 _atom_site_hse06_10hf_ddec_charge
 _atom_site_hse06_10hf_ddec_spin_density
 _atom_site_hse06_10hf_ddec_sum_bond_order
 _atom_site_hse06_10hf_magmom
 _atom_site_hse06_bader_spin_density
 _atom_site_hse06_ddec_charge
 _atom_site_hse06_ddec_spin_density
 _atom_site_hse06_ddec_sum_bond_order
 _atom_site_hse06_magmom
 _atom_site_pbe_bader_spin_density
 _atom_site_pbe_cm5_charge
 _atom_site_pbe_ddec_charge
 _atom_site_pbe_ddec_spin_density
 _atom_site_pbe_ddec_sum_bond_order
 _atom_site_pbe_magmom
H  H0  1  0.27290638  0.36059059  0.19407583  1  0  0.122138  0  0.940811  0  0  0.13118  0  1.004625  0  0  0.135321  0  1.002266  0  0  0.10732  0.12831  0  1.006479  0
H  H1  1  0.72709776  0.63940598  0.80593088  1  0  0.122165  0  0.940827  0  0  0.131158  0  1.004672  0  0  0.135296  0  1.002316  0  0  0.107315  0.128287  0  1.006523  0
H  H2  1  0.07694725  0.75552858  0.82678711  1  0  0.130543  0  0.988717  0  0  0.136199  0  1.05895  0  0  0.140085  0  1.0569  0  0  0.106654  0.133682  0  1.06004  0
H  H3  1  0.92305594  0.24446197  0.17321663  1  0  0.130545  0  0.988654  0  0  0.136182  0  1.058901  0  0  0.14008  0  1.056837  0  0  0.106669  0.133667  0  1.059984  0
H  H4  1  0.82945855  0.69301286  0.16849735  1  0  0.116827  0  0.965019  0  0  0.122581  0  1.035666  0  0  0.126908  0  1.032968  0  0  0.104315  0.11947  0  1.037759  0
H  H5  1  0.17053973  0.30698002  0.83150418  1  0  0.116777  0  0.965069  0  0  0.122546  0  1.035701  0  0  0.12687  0  1.033008  0  0  0.10431  0.119436  0  1.037797  0
H  H6  1  0.31260703  0.69131695  0.78910387  1  0  0.081798  0  0.915013  0  0  0.095451  0  0.97535  0  0  0.096827  0  0.973007  0  0  0.109545  0.094683  0  0.976726  0
H  H7  1  0.68739142  0.30867833  0.21089852  1  0  0.081849  0  0.914872  0  0  0.095486  0  0.975234  0  0  0.096868  0  0.972894  0  0  0.109551  0.094718  0  0.976615  0
H  H8  1  0.23891152  0.56914053  0.76194350  1  0  0.085919  0  0.913061  0  0  0.09912  0  0.975809  0  0  0.099392  0  0.975265  0  0  0.110806  0.098392  0  0.977014  0
H  H9  1  0.76108711  0.43085714  0.23805711  1  0  0.085839  0  0.913103  0  0  0.099058  0  0.975819  0  0  0.099334  0  0.975279  0  0  0.110762  0.098333  0  0.977022  0
H  H10  1  0.42876843  0.63661990  0.57811733  1  0  0.112459  0  0.964856  0  0  0.119548  0  1.031915  0  0  0.122956  0  1.030843  0  0  0.107504  0.117279  0  1.032281  0
H  H11  1  0.57122768  0.36338493  0.42188261  1  0  0.112506  0  0.964794  0  0  0.119579  0  1.031869  0  0  0.122986  0  1.030796  0  0  0.107517  0.117312  0  1.032241  0
H  H12  1  0.67795797  0.49401561  0.52010312  1  0  0.082992  0  0.931009  0  0  0.092111  0  0.993365  0  0  0.094539  0  0.991469  0  0  0.116615  0.090339  0  0.994673  0
H  H13  1  0.32203796  0.50598681  0.47989508  1  0  0.082904  0  0.93104  0  0  0.092034  0  0.99339  0  0  0.094464  0  0.991491  0  0  0.116558  0.090264  0  0.994703  0
H  H14  1  0.79931453  0.16561050  0.90223835  1  0  0.063349  0  0.934411  0  0  0.072615  0  0.998455  0  0  0.07495  0  0.996527  0  0  0.108214  0.07085  0  1.000032  0
H  H15  1  0.20068163  0.83438831  0.09775676  1  0  0.063353  0  0.934388  0  0  0.072652  0  0.998398  0  0  0.074989  0  0.996471  0  0  0.10822  0.070889  0  0.999977  0
H  H16  1  0.55766238  0.29679638  0.97635416  1  0  0.109553  0  0.965033  0  0  0.11601  0  1.031324  0  0  0.119682  0  1.029699  0  0  0.105996  0.113489  0  1.032466  0
H  H17  1  0.44233768  0.70320011  0.02364588  1  0  0.109561  0  0.965017  0  0  0.116002  0  1.031314  0  0  0.119674  0  1.02969  0  0  0.106003  0.113479  0  1.032457  0
H  H18  1  0.85080854  0.82333776  0.75817839  1  0  0.082531  0  0.954799  0  0  0.093277  0  1.024018  0  0  0.09364  0  1.023848  0  0  0.109856  0.092815  0  1.024513  0
H  H19  1  0.14918893  0.17667185  0.24181525  1  0  0.08251  0  0.954815  0  0  0.093325  0  1.024011  0  0  0.093677  0  1.023855  0  0  0.109854  0.092873  0  1.024498  0
H  H20  1  0.84023060  0.01545933  0.73534829  1  0  0.065833  0  0.952456  0  0  0.074695  0  1.025759  0  0  0.074874  0  1.02544  0  0  0.104812  0.074259  0  1.026701  0
H  H21  1  0.15977348  0.98454323  0.26465797  1  0  0.065731  0  0.952418  0  0  0.074662  0  1.025724  0  0  0.07484  0  1.025405  0  0  0.104798  0.074253  0  1.026641  0
H  H22  1  0.65748968  0.08554064  0.54368199  1  0  0.121944  0  0.953779  0  0  0.130855  0  1.013958  0  0  0.134216  0  1.012804  0  0  0.110824  0.128849  0  1.014272  0
H  H23  1  0.34251528  0.91447389  0.45632063  1  0  0.121986  0  0.95371  0  0  0.130906  0  1.013873  0  0  0.13427  0  1.012721  0  0  0.110877  0.128901  0  1.014177  0
H  H24  1  0.38641000  0.18957001  0.48722544  1  0  0.080951  0  0.952254  0  0  0.085936  0  1.02155  0  0  0.088542  0  1.019876  0  0  0.113388  0.084049  0  1.022777  0
H  H25  1  0.61359914  0.81043256  0.51277331  1  0  0.080914  0  0.952295  0  0  0.085953  0  1.021541  0  0  0.08856  0  1.019865  0  0  0.113394  0.084067  0  1.022763  0
H  H26  1  0.30019678  0.01508199  0.87514421  1  0  0.066251  0  0.940646  0  0  0.075277  0  1.006858  0  0  0.077551  0  1.004745  0  0  0.111507  0.07336  0  1.00858  0
H  H27  1  0.69980040  0.98491684  0.12485080  1  0  0.066241  0  0.940795  0  0  0.075315  0  1.00693  0  0  0.077589  0  1.004818  0  0  0.111517  0.073388  0  1.008669  0
H  H28  1  0.56666189  0.90162304  0.94803856  1  0  0.112849  0  0.963822  0  0  0.118205  0  1.031843  0  0  0.122057  0  1.030227  0  0  0.106992  0.115443  0  1.033128  0
H  H29  1  0.43333034  0.09838415  0.05196348  1  0  0.112832  0  0.963869  0  0  0.118177  0  1.031899  0  0  0.122027  0  1.03028  0  0  0.106974  0.115413  0  1.033192  0
Pb  Pb30  1  0.03645518  0.22780050  0.61676992  1  0  1.224591  0  1.481812  0  0  1.03063  0  1.880114  0  0  1.090259  0  1.841556  0  0  0.611404  0.987218  0  1.908764  0
Pb  Pb31  1  0.96355235  0.77220088  0.38323206  1  0  1.224584  0  1.481848  0  0  1.030624  0  1.880158  0  0  1.090244  0  1.841597  0  0  0.611387  0.987206  0  1.908828  0
C  C32  1  0.03843720  0.42937632  0.33737113  1  0  0.620815  0  3.923599  0  0  0.573855  0  4.205473  0  0  0.607883  0  4.199783  0  0  0.205894  0.550177  0  4.208484  0
C  C33  1  0.96155170  0.57062007  0.66263520  1  0  0.620976  0  3.923526  0  0  0.573864  0  4.205576  0  0  0.607931  0  4.199847  0  0  0.205835  0.550179  0  4.208587  0
C  C34  1  0.05138435  0.51986014  0.19602582  1  0  -0.033788  0  3.842941  0  0  -0.010398  0  4.081826  0  0  -0.014168  0  4.104179  0  0  -0.023875  -0.007785  0  4.067085  0
C  C35  1  0.94860962  0.48013628  0.80397566  1  0  -0.033849  0  3.842885  0  0  -0.010379  0  4.081754  0  0  -0.014174  0  4.104117  0  0  -0.023846  -0.007751  0  4.066993  0
C  C36  1  0.17934468  0.46598464  0.13732583  1  0  -0.201363  0  3.712922  0  0  -0.242309  0  3.9774  0  0  -0.24622  0  3.994653  0  0  -0.109556  -0.240269  0  3.966817  0
C  C37  1  0.82065564  0.53400829  0.86268255  1  0  -0.201437  0  3.713085  0  0  -0.242358  0  3.977507  0  0  -0.246263  0  3.994763  0  0  -0.109617  -0.240323  0  3.966926  0
C  C38  1  0.18718490  0.55009067  0.00430021  1  0  0.304043  0  3.818283  0  0  0.296815  0  4.080962  0  0  0.309354  0  4.096121  0  0  0.085124  0.288146  0  4.071018  0
C  C39  1  0.81281254  0.44990462  0.99570492  1  0  0.304042  0  3.818362  0  0  0.296902  0  4.080919  0  0  0.309439  0  4.096076  0  0  0.085166  0.288212  0  4.070996  0
C  C40  1  0.06926483  0.68829906  0.92966160  1  0  -0.325967  0  3.713171  0  0  -0.353219  0  3.96389  0  0  -0.361819  0  3.982441  0  0  -0.122782  -0.347369  0  3.95113  0
C  C41  1  0.93074386  0.31169036  0.07034296  1  0  -0.325835  0  3.713064  0  0  -0.353118  0  3.96381  0  0  -0.361719  0  3.982347  0  0  -0.122765  -0.347271  0  3.951054  0
C  C42  1  0.94096156  0.73825206  0.99056551  1  0  0.299217  0  3.841365  0  0  0.293281  0  4.100084  0  0  0.305638  0  4.115179  0  0  0.080095  0.285052  0  4.089086  0
C  C43  1  0.05903420  0.26174798  0.00943623  1  0  0.299133  0  3.841501  0  0  0.293176  0  4.100243  0  0  0.305528  0  4.115342  0  0  0.080018  0.284957  0  4.089233  0
C  C44  1  0.93151551  0.65624120  0.12339788  1  0  -0.247595  0  3.776836  0  0  -0.284759  0  4.041099  0  0  -0.291113  0  4.061274  0  0  -0.117512  -0.279928  0  4.027319  0
C  C45  1  0.06848893  0.34374578  0.87660795  1  0  -0.247513  0  3.776676  0  0  -0.28469  0  4.040894  0  0  -0.291038  0  4.061077  0  0  -0.117476  -0.27987  0  4.027109  0
C  C46  1  0.32685794  0.56604380  0.81760015  1  0  0.045639  0  3.624055  0  0  -0.014126  0  3.878819  0  0  -0.005924  0  3.881368  0  0  -0.055468  -0.019545  0  3.877247  0
C  C47  1  0.67313949  0.43395147  0.18240145  1  0  0.045657  0  3.623826  0  0  -0.014045  0  3.878545  0  0  -0.005874  0  3.881135  0  0  -0.055413  -0.019486  0  3.876994  0
C  C48  1  0.47403283  0.47787448  0.78263030  1  0  0.128605  0  3.715011  0  0  0.143868  0  3.948707  0  0  0.14825  0  3.969725  0  0  0.010408  0.140883  0  3.934497  0
C  C49  1  0.52596783  0.52212321  0.21736924  1  0  0.12867  0  3.714892  0  0  0.143885  0  3.948634  0  0  0.148276  0  3.969655  0  0  0.010397  0.140903  0  3.934424  0
C  C50  1  0.50896709  0.53295838  0.65267164  1  0  -0.177791  0  3.705585  0  0  -0.193751  0  3.949969  0  0  -0.202208  0  3.971924  0  0  -0.085742  -0.188079  0  3.934834  0
C  C51  1  0.49102866  0.46704165  0.34732834  1  0  -0.177876  0  3.705551  0  0  -0.193813  0  3.949956  0  0  -0.202268  0  3.971907  0  0  -0.085767  -0.188143  0  3.934824  0
C  C52  1  0.64650834  0.45327212  0.62026896  1  0  0.132161  0  3.733334  0  0  0.102024  0  3.992466  0  0  0.10894  0  4.011527  0  0  0.045207  0.097413  0  3.979418  0
C  C53  1  0.35348513  0.54673145  0.37972638  1  0  0.132303  0  3.733366  0  0  0.102166  0  3.992471  0  0  0.109083  0  4.011533  0  0  0.045326  0.097556  0  3.979426  0
C  C54  1  0.71426329  0.27065621  0.83260347  1  0  0.129574  0  3.7725  0  0  0.100634  0  4.034235  0  0  0.10689  0  4.054745  0  0  0.041969  0.096339  0  4.020905  0
C  C55  1  0.28573490  0.72934263  0.16739234  1  0  0.129576  0  3.772511  0  0  0.100608  0  4.034243  0  0  0.106863  0  4.054758  0  0  0.041981  0.096312  0  4.020916  0
C  C56  1  0.57956497  0.34288941  0.87418607  1  0  -0.165374  0  3.71177  0  0  -0.188229  0  3.964346  0  0  -0.195167  0  3.98464  0  0  -0.090746  -0.183853  0  3.950862  0
C  C57  1  0.42043401  0.65711305  0.12581273  1  0  -0.165389  0  3.71176  0  0  -0.188216  0  3.964369  0  0  -0.195154  0  3.984663  0  0  -0.090748  -0.183839  0  3.950881  0
C  C58  1  0.79528333  0.92207286  0.78800450  1  0  0.038715  0  3.623653  0  0  -0.020907  0  3.875357  0  0  -0.01339  0  3.87958  0  0  -0.059445  -0.02616  0  3.873072  0
C  C59  1  0.20471846  0.07793324  0.21199623  1  0  0.038982  0  3.623468  0  0  -0.020897  0  3.875442  0  0  -0.013372  0  3.879668  0  0  -0.059445  -0.026183  0  3.87315  0
C  C60  1  0.63358243  0.98684325  0.75148427  1  0  0.1297  0  3.708499  0  0  0.142816  0  3.947556  0  0  0.146753  0  3.9692  0  0  0.011491  0.140378  0  3.933054  0
C  C61  1  0.36641684  0.01317000  0.24851580  1  0  0.129515  0  3.708535  0  0  0.142717  0  3.947595  0  0  0.146657  0  3.969234  0  0  0.011536  0.140281  0  3.933101  0
C  C62  1  0.58175255  0.06773157  0.62019886  1  0  -0.16282  0  3.68166  0  0  -0.179324  0  3.927133  0  0  -0.186964  0  3.948234  0  0  -0.082337  -0.174768  0  3.912813  0
C  C63  1  0.41825146  0.93227697  0.37980607  1  0  -0.162701  0  3.681388  0  0  -0.179236  0  3.926878  0  0  -0.186883  0  3.947986  0  0  -0.082397  -0.174679  0  3.912547  0
C  C64  1  0.43154201  0.12570346  0.58826992  1  0  0.127966  0  3.730441  0  0  0.099083  0  3.984777  0  0  0.105781  0  4.003602  0  0  0.046622  0.094816  0  3.972019  0
C  C65  1  0.56846359  0.87430625  0.41172562  1  0  0.12796  0  3.730427  0  0  0.09903  0  3.984798  0  0  0.105725  0  4.003632  0  0  0.046647  0.094766  0  3.972032  0
C  C66  1  0.38291077  0.02820131  0.80400986  1  0  0.11235  0  3.77279  0  0  0.087127  0  4.023323  0  0  0.093531  0  4.042739  0  0  0.04056  0.08313  0  4.009847  0
C  C67  1  0.61708898  0.97180474  0.19598579  1  0  0.112326  0  3.772983  0  0  0.087078  0  4.023471  0  0  0.09348  0  4.042889  0  0  0.040565  0.083089  0  4.010006  0
C  C68  1  0.53110149  0.96580766  0.84503325  1  0  -0.170112  0  3.720184  0  0  -0.191584  0  3.970242  0  0  -0.19865  0  3.990747  0  0  -0.090388  -0.187012  0  3.95654  0
C  C69  1  0.46889599  0.03420198  0.15496566  1  0  -0.17008  0  3.72038  0  0  -0.191555  0  3.970423  0  0  -0.198617  0  3.990924  0  0  -0.090423  -0.186978  0  3.956719  0
C  C70  1  0.92646407  0.06761684  0.46078896  1  0  0.523022  0  3.932141  0  0  0.478212  0  4.228111  0  0  0.508166  0  4.222392  0  0  0.20327  0.457547  0  4.2317  0
C  C71  1  0.07355002  0.93237736  0.53920101  1  0  0.523279  0  3.931925  0  0  0.478479  0  4.2279  0  0  0.508435  0  4.22217  0  0  0.203303  0.457811  0  4.2315  0
N  N72  1  0.33297872  0.10753721  0.67838977  1  0  -0.343944  0  3.212716  0  0  -0.27594  0  3.466081  0  0  -0.294513  0  3.48683  0  0  -0.30681  -0.263435  0  3.451578  0
N  N73  1  0.66702408  0.89246888  0.32160647  1  0  -0.343941  0  3.212713  0  0  -0.275942  0  3.466113  0  0  -0.294513  0  3.486866  0  0  -0.306843  -0.263436  0  3.451612  0
N  N74  1  0.74846267  0.32373711  0.70842297  1  0  -0.372827  0  3.205403  0  0  -0.309651  0  3.465571  0  0  -0.329143  0  3.488663  0  0  -0.31539  -0.29624  0  3.450444  0
N  N75  1  0.25153266  0.67626409  0.29157309  1  0  -0.372889  0  3.205398  0  0  -0.309726  0  3.465606  0  0  -0.329216  0  3.488687  0  0  -0.315454  -0.296314  0  3.45048  0
O  O76  1  0.86860053  0.18596186  0.48967224  1  0  -0.588215  0  2.029903  0  0  -0.531452  0  2.274611  0  0  -0.557278  0  2.268203  0  0  -0.294673  -0.512692  0  2.277932  0
O  O77  1  0.13140534  0.81402390  0.51032774  1  0  -0.588365  0  2.029896  0  0  -0.531602  0  2.274608  0  0  -0.557429  0  2.268195  0  0  -0.294685  -0.512834  0  2.277932  0
O  O78  1  0.87302993  0.05020460  0.37288885  1  0  -0.614736  0  2.025947  0  0  -0.553288  0  2.265982  0  0  -0.580213  0  2.258975  0  0  -0.304292  -0.534462  0  2.27043  0
O  O79  1  0.12699178  0.94979684  0.62709336  1  0  -0.614821  0  2.02595  0  0  -0.55337  0  2.265969  0  0  -0.580298  0  2.258965  0  0  -0.304299  -0.534546  0  2.270424  0
O  O80  1  0.93067012  0.49406705  0.39282034  1  0  -0.654388  0  1.9659  0  0  -0.583499  0  2.192028  0  0  -0.612758  0  2.186197  0  0  -0.301448  -0.561903  0  2.19525  0
O  O81  1  0.06932105  0.50592574  0.60718096  1  0  -0.654511  0  1.965806  0  0  -0.583577  0  2.191997  0  0  -0.61285  0  2.186152  0  0  -0.301454  -0.561977  0  2.195223  0
O  O82  1  0.13591888  0.28984923  0.39740448  1  0  -0.615633  0  1.94418  0  0  -0.546294  0  2.171655  0  0  -0.575034  0  2.165734  0  0  -0.297804  -0.525789  0  2.175159  0
O  O83  1  0.86407408  0.71014719  0.60259973  1  0  -0.615664  0  1.944152  0  0  -0.54625  0  2.171657  0  0  -0.575001  0  2.165718  0  0  -0.297763  -0.525754  0  2.175185  0
O  O84  1  0.81745735  0.86785309  0.92576528  1  0  -0.295745  0  2.33624  0  0  -0.222466  0  2.569009  0  0  -0.240056  0  2.570676  0  0  -0.182522  -0.209701  0  2.567227  0
O  O85  1  0.18254637  0.13214465  0.07423662  1  0  -0.295866  0  2.335997  0  0  -0.222497  0  2.568825  0  0  -0.240087  0  2.570491  0  0  -0.182541  -0.209739  0  2.567054  0
O  O86  1  0.31575129  0.48863454  0.95429432  1  0  -0.282027  0  2.332773  0  0  -0.210229  0  2.564979  0  0  -0.228382  0  2.567666  0  0  -0.175602  -0.197394  0  2.563243  0
O  O87  1  0.68424782  0.51135595  0.04570626  1  0  -0.281989  0  2.332821  0  0  -0.21027  0  2.565017  0  0  -0.228412  0  2.56771  0  0  -0.175543  -0.197411  0  2.563277  0
