# generated using pymatgen
data_NiH4(CO3)2
_symmetry_space_group_name_H-M   'P 1'
_cell_length_a   6.38696697
_cell_length_b   6.94713071
_cell_length_c   7.96941493
_cell_angle_alpha   71.00201602
_cell_angle_beta   66.39864197
_cell_angle_gamma   62.63802324
_symmetry_Int_Tables_number   1
_chemical_formula_structural   NiH4(CO3)2
_chemical_formula_sum   'Ni2 H8 C4 O12'
_cell_volume   283.39605029
_cell_formula_units_Z   2
loop_
 _symmetry_equiv_pos_site_id
 _symmetry_equiv_pos_as_xyz
  1  'x, y, z'
loop_
 _atom_site_type_symbol
 _atom_site_label
 _atom_site_symmetry_multiplicity
 _atom_site_fract_x
 _atom_site_fract_y
 _atom_site_fract_z
 _atom_site_occupancy
 _atom_site_hle17_ddec_charge
 _atom_site_hle17_ddec_spin_density
 _atom_site_hle17_ddec_sum_bond_order
 _atom_site_hle17_magmom
 _atom_site_hse06_10hf_ddec_charge
 _atom_site_hse06_10hf_ddec_spin_density
 _atom_site_hse06_10hf_ddec_sum_bond_order
 _atom_site_hse06_10hf_magmom
 _atom_site_hse06_ddec_charge
 _atom_site_hse06_ddec_spin_density
 _atom_site_hse06_ddec_sum_bond_order
 _atom_site_hse06_magmom
 _atom_site_pbe_cm5_charge
 _atom_site_pbe_ddec_charge
 _atom_site_pbe_ddec_spin_density
 _atom_site_pbe_ddec_sum_bond_order
 _atom_site_pbe_magmom
Ni  Ni0  1  0.76055311  0.74994405  0.75001524  1  0.920989  -0.000374  1.852534  0.0  0.943702  -0.000227  2.244254  0.0  1.043179  -0.000201  2.165275  0.0  0.586735  0.858912  -0.00014  2.314356  0.0
Ni  Ni1  1  0.23945265  0.25005677  0.24998088  1  0.920772  0.000417  1.852641  0.0  0.943735  0.000217  2.24428  0.0  1.04316  0.000173  2.165369  0.0  0.58678  0.858956  0.00014  2.314393  0.0
H  H2  1  0.20017128  0.44878044  0.80014297  1  0.435279  0.000218  0.855709  0.0  0.410529  0.000555  0.909177  0.001  0.422649  0.000385  0.891867  0.0  0.302368  0.401293  0.000647  0.92234  0.001
H  H3  1  0.94916148  0.05107412  0.69993170  1  0.432063  -0.000222  0.859684  0.0  0.407825  -0.000557  0.912365  -0.001  0.419873  -0.000386  0.895167  0.0  0.301251  0.398619  -0.000649  0.925499  -0.001
H  H4  1  0.79985123  0.55123006  0.19981672  1  0.435352  -0.00022  0.855595  0.0  0.410518  -0.000556  0.90917  -0.001  0.422633  -0.000385  0.891869  0.0  0.302379  0.401283  -0.000648  0.922332  -0.001
H  H5  1  0.05083805  0.94895166  0.30011463  1  0.432024  0.00022  0.859717  0.0  0.407769  0.000557  0.912427  0.001  0.419813  0.000387  0.895235  0.0  0.301212  0.398568  0.000649  0.925555  0.001
H  H6  1  0.11284045  0.39790128  0.66463098  1  0.429852  -4.5e-05  0.850134  0.0  0.405241  0.000325  0.914272  0.0  0.416405  0.000173  0.898184  0.0  0.305654  0.396782  0.000437  0.926457  0.0
H  H7  1  0.67559233  0.10189832  0.83548137  1  0.427939  4.5e-05  0.852214  0.0  0.403508  -0.000326  0.916387  0.0  0.414618  -0.000174  0.900422  0.0  0.305581  0.395036  -0.000438  0.928574  0.0
H  H8  1  0.88715394  0.60210112  0.33535355  1  0.430042  4.5e-05  0.849848  0.0  0.405442  -0.000325  0.913966  0.0  0.416608  -0.000173  0.897877  0.0  0.305768  0.396989  -0.000437  0.926143  0.0
H  H9  1  0.32439254  0.89807637  0.16455931  1  0.427964  -4.4e-05  0.852057  0.0  0.403542  0.000326  0.916304  0.0  0.41465  0.000174  0.90034  0.0  0.305592  0.395074  0.000438  0.928486  0.0
C  C10  1  0.38738056  0.03695780  0.58531632  1  0.536075  -0.003299  3.866694  -0.005  0.496964  2.7e-05  4.167937  -0.002  0.529851  -0.000185  4.163695  -0.001  0.220135  0.472472  0.000238  4.17021  -0.002
C  C11  1  0.50952516  0.46309509  0.91470972  1  0.539212  0.003322  3.867457  0.005  0.500209  -2.3e-05  4.168212  0.002  0.533061  0.000186  4.164039  0.001  0.222386  0.475709  -0.000237  4.170465  0.002
C  C12  1  0.61257251  0.96307458  0.41473098  1  0.535905  0.003301  3.866791  0.005  0.496808  -2.4e-05  4.168  0.002  0.529685  0.000185  4.16377  0.001  0.220075  0.472324  -0.000236  4.170272  0.002
C  C13  1  0.49049368  0.53686932  0.08525427  1  0.539324  -0.003317  3.86721  -0.005  0.500228  2.6e-05  4.16811  -0.002  0.533081  -0.000184  4.163939  -0.001  0.222169  0.475718  0.000238  4.17038  -0.002
O  O14  1  0.42015483  0.97635448  0.74323054  1  -0.507313  0.054343  2.092533  0.059  -0.493673  0.039004  2.352823  0.043  -0.533645  0.031978  2.346714  0.035  -0.27821  -0.461288  0.041694  2.356447  0.045
O  O15  1  0.63937407  0.52378804  0.75677679  1  -0.507643  -0.054654  2.093633  -0.059  -0.494305  -0.039164  2.354277  -0.043  -0.534288  -0.0321  2.348214  -0.035  -0.278465  -0.461898  -0.041841  2.357882  -0.045
O  O16  1  0.57985199  0.02364981  0.25680083  1  -0.507204  -0.054383  2.092406  -0.059  -0.493579  -0.039008  2.352666  -0.043  -0.533555  -0.031974  2.346571  -0.035  -0.278253  -0.461188  -0.041716  2.356291  -0.045
O  O17  1  0.36062607  0.47619282  0.24318431  1  -0.507692  0.05463  2.093584  0.059  -0.494364  0.039153  2.354297  0.043  -0.534344  0.0321  2.348232  0.035  -0.27849  -0.461953  0.041818  2.357922  0.045
O  O18  1  0.17881519  0.15895671  0.55579161  1  -0.574014  0.003313  2.076673  0.004  -0.536907  -0.000483  2.310959  -0.001  -0.571968  -0.00118  2.299657  -0.001  -0.278025  -0.508675  0.000692  2.318901  0.001
O  O19  1  0.39336622  0.34118319  0.94422443  1  -0.577466  -0.003462  2.078168  -0.004  -0.540081  0.000415  2.312231  0.001  -0.575069  0.001111  2.300855  0.001  -0.280155  -0.511804  -0.000715  2.320169  -0.001
O  O20  1  0.82116243  0.84108037  0.44420959  1  -0.574084  -0.003303  2.076898  -0.004  -0.536932  0.00049  2.311136  0.001  -0.571995  0.001182  2.299823  0.001  -0.278006  -0.508699  -0.000661  2.31908  -0.001
O  O21  1  0.60666329  0.65876809  0.05574995  1  -0.577512  0.003485  2.078066  0.004  -0.540075  -0.000406  2.312182  -0.001  -0.575072  -0.001107  2.300808  -0.001  -0.280047  -0.511792  0.000749  2.320123  0.001
O  O22  1  0.10925587  0.51855460  0.70627628  1  -0.779876  0.042682  1.915785  0.044  -0.753828  0.03265  2.110462  0.034  -0.7847  0.027425  2.0715  0.028  -0.565269  -0.729896  0.034644  2.14004  0.035
O  O23  1  0.83431305  0.98128865  0.79386911  1  -0.775022  -0.042731  1.920623  -0.045  -0.749193  -0.032673  2.115036  -0.034  -0.779963  -0.027439  2.076233  -0.029  -0.56395  -0.725292  -0.034647  2.144533  -0.035
O  O24  1  0.89075682  0.48145753  0.29368028  1  -0.780071  -0.042674  1.91555  -0.044  -0.75398  -0.032637  2.110394  -0.034  -0.784818  -0.027412  2.071382  -0.028  -0.565363  -0.730051  -0.034644  2.139976  -0.035
O  O25  1  0.16569241  0.01871237  0.20616706  1  -0.774897  0.042705  1.920643  0.045  -0.749102  0.032664  2.11516  0.034  -0.77985  0.027439  2.076346  0.029  -0.563851  -0.725196  0.034624  2.144646  0.035
