# generated using pymatgen
data_ZnH9C14N3O5
_symmetry_space_group_name_H-M   'P 1'
_cell_length_a   7.61124638
_cell_length_b   9.66344688
_cell_length_c   10.27037474
_cell_angle_alpha   92.67818418
_cell_angle_beta   110.26206071
_cell_angle_gamma   110.14112592
_symmetry_Int_Tables_number   1
_chemical_formula_structural   ZnH9C14N3O5
_chemical_formula_sum   'Zn2 H18 C28 N6 O10'
_cell_volume   653.39412761
_cell_formula_units_Z   2
loop_
 _symmetry_equiv_pos_site_id
 _symmetry_equiv_pos_as_xyz
  1  'x, y, z'
loop_
 _atom_site_type_symbol
 _atom_site_label
 _atom_site_symmetry_multiplicity
 _atom_site_fract_x
 _atom_site_fract_y
 _atom_site_fract_z
 _atom_site_occupancy
 _atom_site_pbe_bader_spin_density
 _atom_site_pbe_cm5_charge
 _atom_site_pbe_ddec_charge
 _atom_site_pbe_ddec_spin_density
 _atom_site_pbe_ddec_sum_bond_order
 _atom_site_pbe_magmom
Zn  Zn0  1  0.24595401  0.45038725  0.05906973  1  0  0.717967  0.890502  0  2.292749  0
Zn  Zn1  1  0.75405315  0.54961401  0.94093007  1  0  0.717983  0.890511  0  2.29274  0
H  H2  1  0.45609790  0.66454079  0.57291307  1  0  0.145082  0.133735  0  1.037585  0
H  H3  1  0.54389982  0.33545833  0.42708918  1  0  0.145081  0.133666  0  1.03759  0
H  H4  1  0.59933941  0.78392199  0.21942670  1  0  0.142851  0.117484  0  1.027676  0
H  H5  1  0.40066307  0.21607821  0.78057580  1  0  0.14285  0.117475  0  1.02766  0
H  H6  1  0.65368114  0.03513700  0.33788723  1  0  0.112089  0.138033  0  1.001573  0
H  H7  1  0.34631409  0.96485761  0.66211032  1  0  0.112068  0.137992  0  1.001646  0
H  H8  1  0.09223229  0.29983037  0.74500223  1  0  0.105633  0.126579  0  1.032186  0
H  H9  1  0.90776329  0.70016760  0.25499361  1  0  0.105613  0.126558  0  1.032173  0
H  H10  1  0.04434117  0.07282267  0.84721364  1  0  0.09735  0.093552  0  1.042202  0
H  H11  1  0.95565685  0.92717980  0.15278495  1  0  0.097342  0.093538  0  1.042174  0
H  H12  1  0.80754622  0.82006466  0.69834018  1  0  0.108088  0.129904  0  1.016067  0
H  H13  1  0.19245267  0.17993670  0.30166149  1  0  0.108083  0.129888  0  1.016066  0
H  H14  1  0.18498346  0.46195397  0.58129707  1  0  0.103621  0.081437  0  0.982001  0
H  H15  1  0.81501329  0.53804624  0.41869818  1  0  0.103617  0.081413  0  0.982031  0
H  H16  1  0.99255963  0.46483177  0.64242196  1  0  0.101292  0.073239  0  1.032342  0
H  H17  1  0.00743448  0.53516620  0.35757060  1  0  0.10131  0.073268  0  1.032388  0
H  H18  1  0.19523356  0.98850752  0.04197909  1  0  0.109199  0.116605  0  1.019031  0
H  H19  1  0.80477226  0.01149377  0.95802233  1  0  0.109176  0.116606  0  1.019009  0
C  C20  1  0.45240837  0.65777031  0.46592057  1  0  0.164154  0.092966  0  3.868783  0
C  C21  1  0.54758941  0.34222882  0.53408365  1  0  0.164157  0.093072  0  3.868802  0
C  C22  1  0.52550780  0.72428304  0.28486110  1  0  0.165488  0.100918  0  3.872009  0
C  C23  1  0.47449553  0.27571603  0.71514350  1  0  0.165491  0.100986  0  3.871944  0
C  C24  1  0.71873136  0.91400707  0.50986937  1  0  0.092303  0.187247  0  4.042509  0
C  C25  1  0.28126731  0.08599654  0.49013138  1  0  0.092271  0.187158  0  4.0426  0
C  C26  1  0.74224863  0.04091093  0.44857117  1  0  -0.1021  -0.279611  0  3.940293  0
C  C27  1  0.25774844  0.95908706  0.55142893  1  0  -0.102082  -0.279595  0  3.940347  0
C  C28  1  0.87976396  0.18104625  0.53297482  1  0  0.084811  0.273057  0  4.08543  0
C  C29  1  0.12023486  0.81895509  0.46702391  1  0  0.084797  0.27302  0  4.085628  0
C  C30  1  0.98667862  0.19209026  0.67742703  1  0  -0.115559  -0.242473  0  3.994305  0
C  C31  1  0.01331542  0.80791000  0.32257048  1  0  -0.115496  -0.242403  0  3.994225  0
C  C32  1  0.95834816  0.06201951  0.73523203  1  0  -0.092194  -0.035481  0  4.035882  0
C  C33  1  0.04164855  0.93798299  0.26476915  1  0  -0.092206  -0.035493  0  4.035796  0
C  C34  1  0.82660802  0.92126364  0.65309385  1  0  -0.103624  -0.196421  0  3.970368  0
C  C35  1  0.17338749  0.07873662  0.34690694  1  0  -0.103569  -0.196282  0  3.970298  0
C  C36  1  0.02446015  0.44639054  0.54800052  1  0  -0.070628  -0.00737  0  3.88125  0
C  C37  1  0.97553478  0.55360630  0.45199316  1  0  -0.070636  -0.007366  0  3.881263  0
C  C38  1  0.48481043  0.13412831  0.04507907  1  0  -0.002768  -0.025172  0  3.925375  0
C  C39  1  0.51519683  0.86587298  0.95492466  1  0  -0.002767  -0.025155  0  3.925406  0
C  C40  1  0.65967760  0.14015292  0.02304499  1  0  -0.010927  -0.060288  0  3.941669  0
C  C41  1  0.34032827  0.85984838  0.97695840  1  0  -0.010943  -0.060258  0  3.941737  0
C  C42  1  0.32936343  0.99447390  0.02265706  1  0  -0.077884  -0.120085  0  3.940123  0
C  C43  1  0.67064040  0.00552627  0.97734382  1  0  -0.077879  -0.120101  0  3.940113  0
C  C44  1  0.44837781  0.26908589  0.08954728  1  0  0.206575  0.583381  0  4.225666  0
C  C45  1  0.55162870  0.73091655  0.91045826  1  0  0.206498  0.583308  0  4.225953  0
C  C46  1  0.83290030  0.28658536  0.04596063  1  0  0.22792  0.601826  0  4.156175  0
C  C47  1  0.16710407  0.71341593  0.95403849  1  0  0.227854  0.601633  0  4.156338  0
N  N48  1  0.37943249  0.58883570  0.24497967  1  0  -0.250023  -0.209502  0  3.608661  0
N  N49  1  0.62056740  0.41116227  0.75502209  1  0  -0.250016  -0.209464  0  3.608615  0
N  N50  1  0.33233597  0.54566983  0.35865773  1  0  -0.220668  -0.190523  0  3.200414  0
N  N51  1  0.66766113  0.45432816  0.64134335  1  0  -0.220663  -0.190584  0  3.200386  0
N  N52  1  0.57549722  0.77223521  0.42437913  1  0  -0.210601  -0.00542  0  3.753577  0
N  N53  1  0.42450125  0.22776277  0.57562132  1  0  -0.210638  -0.005492  0  3.753792  0
O  O54  1  0.89574709  0.29926475  0.46501381  1  0  -0.175361  -0.19167  0  2.557005  0
O  O55  1  0.10425046  0.70073433  0.53498158  1  0  -0.175363  -0.19165  0  2.557101  0
O  O56  1  0.36507242  0.32807519  0.98590466  1  0  -0.327262  -0.563094  0  2.304732  0
O  O57  1  0.63493076  0.67192386  0.01409406  1  0  -0.327173  -0.563029  0  2.305121  0
O  O58  1  0.47785236  0.30685388  0.21506048  1  0  -0.303853  -0.531449  0  2.192832  0
O  O59  1  0.52214930  0.69314745  0.78494090  1  0  -0.303841  -0.531465  0  2.192736  0
O  O60  1  0.81171602  0.40883820  0.07255251  1  0  -0.317156  -0.558931  0  2.36827  0
O  O61  1  0.18829450  0.59116416  0.92744719  1  0  -0.317127  -0.558831  0  2.368208  0
O  O62  1  0.99193097  0.27808734  0.03705689  1  0  -0.303811  -0.522989  0  2.333365  0
O  O63  1  0.00807455  0.72191618  0.96294066  1  0  -0.303796  -0.522915  0  2.333497  0
