# generated using pymatgen
data_Ni3H42C72N6O13
_symmetry_space_group_name_H-M   'P 1'
_cell_length_a   11.66359665
_cell_length_b   17.62955799
_cell_length_c   17.65889872
_cell_angle_alpha   115.08699510
_cell_angle_beta   103.12101218
_cell_angle_gamma   103.03038769
_symmetry_Int_Tables_number   1
_chemical_formula_structural   Ni3H42C72N6O13
_chemical_formula_sum   'Ni6 H84 C144 N12 O26'
_cell_volume   2982.05041554
_cell_formula_units_Z   2
loop_
 _symmetry_equiv_pos_site_id
 _symmetry_equiv_pos_as_xyz
  1  'x, y, z'
loop_
 _atom_site_type_symbol
 _atom_site_label
 _atom_site_symmetry_multiplicity
 _atom_site_fract_x
 _atom_site_fract_y
 _atom_site_fract_z
 _atom_site_occupancy
 _atom_site_pbe_bader_charge
 _atom_site_pbe_bader_spin_density
 _atom_site_pbe_cm5_charge
 _atom_site_pbe_ddec_charge
 _atom_site_pbe_ddec_spin_density
 _atom_site_pbe_ddec_sum_bond_order
 _atom_site_pbe_magmom
Ni  Ni0  1  0.74937427  0.93784036  0.06511516  1  1.301849  -0.851777  0.712394  0.99265  -1.022867  2.619338  -0.841
Ni  Ni1  1  0.69045404  0.93845775  0.87766236  1  1.317632  1.599312  0.707492  1.016257  1.87926  2.538266  1.578
Ni  Ni2  1  0.81240519  0.12722416  0.06589379  1  1.301542  -0.910916  0.705625  0.986989  -1.094326  2.602907  -0.899
Ni  Ni3  1  0.25095732  0.06444201  0.93400025  1  1.306723  0.956473  0.712232  1.001991  1.124406  2.605454  0.944
Ni  Ni4  1  0.31143612  0.06358395  0.12273639  1  1.273411  1.08957  0.667127  0.967122  1.271025  2.429151  1.076
Ni  Ni5  1  0.18635915  0.87685806  0.93677482  1  1.289602  1.034208  0.670231  0.966881  1.206982  2.443781  1.021
H  H6  1  0.52865066  0.31371995  0.26858540  1  0.085579  8.8e-05  0.101575  0.100043  2.4e-05  1.040549  0.0
H  H7  1  0.25688087  0.72928539  0.04083148  1  0.098243  7e-05  0.100978  0.098904  1.7e-05  1.044069  0.0
H  H8  1  0.21663974  0.95938267  0.68422732  1  0.090971  8.2e-05  0.099176  0.096839  1.2e-05  1.045332  0.0
H  H9  1  0.24220152  0.95691458  0.26945381  1  0.115326  8.8e-05  0.101324  0.100761  3.1e-05  1.039984  0.0
H  H10  1  0.28378006  0.31216225  0.03940069  1  0.081087  9e-05  0.10112  0.099116  2.5e-05  1.044655  0.0
H  H11  1  0.97292491  0.73228853  0.68779759  1  0.082366  8.3e-05  0.101591  0.099919  1e-05  1.03979  0.0
H  H12  1  0.47169483  0.68935273  0.73192891  1  0.09263  0.000144  0.101408  0.09953  8.5e-05  1.044569  0.0
H  H13  1  0.74565552  0.27133145  0.96173877  1  0.08144  -7.8e-05  0.100661  0.097602  -6.3e-05  1.049203  0.0
H  H14  1  0.78345790  0.03957078  0.31070417  1  0.087582  -0.000111  0.101292  0.098535  -4.9e-05  1.047975  0.0
H  H15  1  0.75760660  0.03941905  0.73341631  1  0.092301  0.000142  0.101943  0.100281  7.7e-05  1.046026  0.0
H  H16  1  0.71479733  0.69154734  0.96087218  1  0.078676  -5.3e-05  0.100745  0.097585  -4.2e-05  1.04699  0.0
H  H17  1  0.02691981  0.26906431  0.31130015  1  0.08448  -9e-05  0.100629  0.098852  -3.2e-05  1.045881  0.0
H  H18  1  0.62505323  0.48166241  0.34810587  1  0.07812  0.000208  0.098966  0.09834  9.6e-05  1.019103  0.0
H  H19  1  0.27284332  0.64927111  0.12870207  1  0.092307  0.000192  0.097309  0.096781  8.9e-05  1.019214  0.0
H  H20  1  0.14192990  0.86842980  0.51662419  1  0.06413  0.000217  0.097734  0.097192  9.9e-05  1.021037  0.0
H  H21  1  0.22627013  0.86785232  0.34819104  1  0.081691  0.000237  0.098362  0.097877  0.000111  1.019043  0.0
H  H22  1  0.35771239  0.47997470  0.12936715  1  0.086019  0.000238  0.098054  0.097057  0.00011  1.019101  0.0
H  H23  1  0.87838749  0.65351003  0.52011220  1  0.079621  0.000252  0.098611  0.097493  0.000115  1.018404  0.0
H  H24  1  0.37762477  0.52122255  0.65185823  1  0.101525  -0.000184  0.097362  0.096478  -9e-05  1.019366  0.0
H  H25  1  0.72981540  0.35180393  0.87474095  1  0.104117  0.000212  0.097147  0.096304  0.000104  1.018539  0.0
H  H26  1  0.85523073  0.12624885  0.47819903  1  0.07584  -0.000268  0.097769  0.09685  -0.000124  1.020045  0.0
H  H27  1  0.77146712  0.12578624  0.65198445  1  0.074725  -0.000175  0.097532  0.096661  -8.8e-05  1.018052  0.0
H  H28  1  0.64439900  0.52408065  0.87354765  1  0.081766  0.000239  0.097654  0.097145  0.000111  1.020041  0.0
H  H29  1  0.12166441  0.34780826  0.47878154  1  0.105724  -0.000221  0.098653  0.098686  -0.000103  1.017428  0.0
H  H30  1  0.70488544  0.46408697  0.11622789  1  0.03762  6.5e-05  0.095764  0.09264  2.8e-05  1.01551  0.0
H  H31  1  0.58779106  0.88289854  0.34499026  1  0.023891  6.9e-05  0.095009  0.092164  2.8e-05  1.015719  0.0
H  H32  1  0.24290453  0.65675092  0.53942430  1  0.042443  8.3e-05  0.095015  0.09153  3.4e-05  1.0156  0.0
H  H33  1  0.91088210  0.65242901  0.11432920  1  0.043687  0.000135  0.095512  0.092842  5.9e-05  1.014377  0.0
H  H34  1  0.25497588  0.45837672  0.34050742  1  0.043831  0.000144  0.095402  0.092883  6.1e-05  1.01384  0.0
H  H35  1  0.79708220  0.88546331  0.53791690  1  0.042786  0.000114  0.095483  0.092231  4.7e-05  1.015211  0.0
H  H36  1  0.29588549  0.53672843  0.88256737  1  0.039258  0.000168  0.094947  0.091344  7.5e-05  1.016041  0.0
H  H37  1  0.41482969  0.11851401  0.65808016  1  0.04608  -7.6e-05  0.09493  0.091731  -3.6e-05  1.015855  0.0
H  H38  1  0.75584772  0.34081304  0.46139367  1  0.054359  -0.000157  0.096059  0.093597  -7e-05  1.014133  0.0
H  H39  1  0.08758877  0.34336651  0.88376154  1  0.046904  0.000154  0.094877  0.091845  6.7e-05  1.016542  0.0
H  H40  1  0.74509272  0.54314363  0.66073953  1  0.049135  -2e-05  0.096335  0.093918  -1.3e-05  1.013862  0.0
H  H41  1  0.20426808  0.11623912  0.46079921  1  0.023794  -8e-05  0.096025  0.093193  -3.4e-05  1.013742  0.0
H  H42  1  0.61048199  0.29768806  0.03876116  1  0.0974  0.000216  0.104391  0.106438  0.000121  1.039062  0.0
H  H43  1  0.57107343  0.96103291  0.25669419  1  0.113579  0.000259  0.103556  0.104895  0.000171  1.043585  0.0
H  H44  1  0.31787932  0.74836670  0.70573936  1  0.103801  0.00036  0.105225  0.108664  0.000245  1.036451  0.0
H  H45  1  0.92700340  0.74199939  0.03759926  1  0.080556  0.000271  0.103822  0.105588  0.000179  1.042714  0.0
H  H46  1  0.17979807  0.29181531  0.24963362  1  0.093709  0.000283  0.104113  0.107052  0.00018  1.037245  0.0
H  H47  1  0.88984295  0.96239952  0.70410377  1  0.120917  0.000381  0.104991  0.107351  0.000246  1.037787  0.0
H  H48  1  0.38858936  0.70319321  0.96062322  1  0.129767  -0.0002  0.103939  0.106345  -0.000165  1.037017  0.0
H  H49  1  0.43167292  0.03972728  0.74521942  1  0.097973  0.000277  0.103901  0.105289  0.000189  1.042793  0.0
H  H50  1  0.68367013  0.25354400  0.29523006  1  0.092695  -0.000293  0.10465  0.107911  -0.00019  1.031132  0.0
H  H51  1  0.07230163  0.25705839  0.96342400  1  0.115138  -0.000176  0.102468  0.103468  -0.000143  1.047887  0.0
H  H52  1  0.81669848  0.70936328  0.74888009  1  0.100961  0.000315  0.104208  0.107126  0.000203  1.034574  0.0
H  H53  1  0.11157256  0.03936896  0.29463039  1  0.100089  -0.000271  0.105145  0.107985  -0.000173  1.03413  0.0
H  H54  1  0.67808863  0.59142459  0.16084146  1  0.039778  -2.4e-05  0.103077  0.107716  -1.3e-05  1.025747  0.0
H  H55  1  0.51448662  0.83746940  0.42601984  1  0.029723  4.4e-05  0.102029  0.106462  2.8e-05  1.026198  0.0
H  H56  1  0.08700374  0.57193697  0.41103130  1  0.043039  -2.7e-05  0.102249  0.107699  -1.5e-05  1.026272  0.0
H  H57  1  0.98413272  0.57005275  0.15992353  1  0.082583  -7e-06  0.102624  0.107717  -3e-06  1.025397  0.0
H  H58  1  0.41138303  0.58668756  0.42504579  1  0.053204  5e-05  0.102194  0.106649  3.1e-05  1.02589  0.0
H  H59  1  0.82537808  0.84154520  0.41098266  1  0.075633  0.0  0.102808  0.10721  1e-06  1.023922  0.0
H  H60  1  0.32419649  0.41038538  0.83805594  1  0.098873  1.1e-05  0.102176  0.106534  7e-06  1.026201  0.0
H  H61  1  0.48739494  0.16448287  0.57717574  1  0.027862  1e-05  0.102948  0.107853  8e-06  1.026472  0.0
H  H62  1  0.91185685  0.42262353  0.58752474  1  0.046755  2e-05  0.102473  0.107011  1e-05  1.027301  0.0
H  H63  1  0.01342470  0.42376047  0.83802660  1  0.101593  2.7e-05  0.102614  0.10704  1.7e-05  1.025497  0.0
H  H64  1  0.58897016  0.41502630  0.57762590  1  0.064614  1.9e-05  0.102682  0.107403  1.2e-05  1.024584  0.0
H  H65  1  0.17507520  0.16011266  0.58781221  1  0.039015  3.2e-05  0.102492  0.107154  1.7e-05  1.026352  0.0
H  H66  1  0.91777898  0.89006144  0.33116003  1  0.086611  -0.000101  0.107386  0.114893  -5.1e-05  0.996565  0.0
H  H67  1  0.58265365  0.66762779  0.55404200  1  0.059542  0.000741  0.104856  0.110895  0.000332  1.00153  0.0
H  H68  1  0.02640438  0.44269706  0.11298560  1  0.059952  -0.000155  0.108346  0.116612  -7.5e-05  0.994813  0.0
H  H69  1  0.91673121  0.44303109  0.33105730  1  0.061064  -0.000251  0.106853  0.113989  -0.000117  0.998061  0.0
H  H70  1  0.47035224  0.88440486  0.55188615  1  0.054355  0.000709  0.105621  0.112736  0.000316  1.000564  0.0
H  H71  1  0.58498495  0.67046037  0.11283665  1  0.070369  -0.000157  0.10784  0.116009  -7.6e-05  0.995295  0.0
H  H72  1  0.08524816  0.11085158  0.66696653  1  0.066671  0.000305  0.107369  0.115491  0.000141  0.995344  0.0
H  H73  1  0.41713260  0.33455806  0.44974960  1  0.082019  0.000365  0.106462  0.113809  0.000166  0.999298  0.0
H  H74  1  0.96863314  0.55030697  0.88386162  1  0.056543  0.000338  0.107434  0.115538  0.000152  0.996656  0.0
H  H75  1  0.08328883  0.55040801  0.66757918  1  0.059388  0.000277  0.107061  0.114237  0.000125  0.998214  0.0
H  H76  1  0.53072716  0.11755763  0.45027848  1  0.071243  0.000319  0.10637  0.114385  0.000145  0.997246  0.0
H  H77  1  0.41446143  0.33202081  0.88731174  1  0.080645  0.000226  0.108329  0.116116  0.000105  0.996752  0.0
H  H78  1  0.90772230  0.96853562  0.24221708  1  0.151227  -0.000173  0.118513  0.084912  -3e-05  1.0734  0.0
H  H79  1  0.66160097  0.75648266  0.72159072  1  0.136919  0.001418  0.115374  0.081056  0.000576  1.065456  0.001
H  H80  1  0.93865077  0.27479467  0.03490918  1  0.166322  -0.00034  0.119465  0.087799  -9.3e-05  1.067627  0.0
H  H81  1  0.83599338  0.27533692  0.24295668  1  0.13959  -0.000357  0.118381  0.085597  -0.000131  1.06966  0.0
H  H82  1  0.55680155  0.96336861  0.71968756  1  0.139279  0.001424  0.115118  0.081971  0.000582  1.066054  0.001
H  H83  1  0.59282742  0.75897706  0.03364725  1  0.177779  -0.000226  0.11961  0.086591  -6e-05  1.071903  0.0
H  H84  1  0.09505834  0.03211625  0.75554125  1  0.146944  0.000423  0.118915  0.085786  0.000125  1.071551  0.0
H  H85  1  0.33690364  0.24594746  0.28160896  1  0.14344  0.000619  0.116702  0.084445  0.000224  1.054728  0.001
H  H86  1  0.05463765  0.71886845  0.96174228  1  0.152753  0.000538  0.116931  0.085539  0.000197  1.057867  0.001
H  H87  1  0.16289298  0.71894137  0.75574775  1  0.144094  0.000516  0.117398  0.085943  0.00017  1.05727  0.0
H  H88  1  0.44376253  0.03906877  0.28194739  1  0.139057  0.000588  0.116661  0.084312  0.000199  1.057752  0.001
H  H89  1  0.40612589  0.24359984  0.96630478  1  0.120945  0.000405  0.11949  0.085893  0.000106  1.071277  0.0
C  C90  1  0.48199285  0.19620530  0.09738203  1  1.574744  0.002092  0.228283  0.593176  0.002995  4.124083  0.0
C  C91  1  0.38604959  0.90207933  0.09669157  1  1.593461  0.000667  0.224014  0.59064  0.001922  4.150157  -0.001
C  C92  1  0.29121142  0.90652492  0.80381313  1  1.58897  0.000978  0.225069  0.589945  0.00232  4.139967  0.0
C  C93  1  0.11226870  0.90276035  0.09751725  1  1.607569  0.000887  0.223213  0.591647  0.002471  4.159892  -0.001
C  C94  1  0.20715271  0.19290685  0.09164397  1  1.570947  0.002364  0.225622  0.595087  0.00349  4.147073  0.001
C  C95  1  0.01841939  0.90326118  0.80534188  1  1.549631  0.003325  0.228671  0.594098  0.003987  4.131366  0.002
C  C96  1  0.51583635  0.80640124  0.90221414  1  1.582874  -0.003147  0.22373  0.590348  -0.002403  4.137465  -0.002
C  C97  1  0.61916156  0.09849679  0.90595744  1  1.576022  0.001549  0.228133  0.595099  0.00142  4.127309  0.0
C  C98  1  0.71173044  0.09477092  0.19409891  1  1.569288  -0.003364  0.226983  0.589738  -0.004473  4.127105  -0.002
C  C99  1  0.88636141  0.09453796  0.90427175  1  1.565605  -0.002412  0.222533  0.59314  -0.001665  4.143028  -0.002
C  C100  1  0.78691283  0.80952271  0.90718442  1  1.609804  0.002891  0.229863  0.596732  0.002799  4.132873  0.002
C  C101  1  0.98185790  0.09803228  0.19314861  1  1.572698  -0.003754  0.22748  0.590678  -0.004453  4.131971  -0.002
C  C102  1  0.56093634  0.29520301  0.14799151  1  0.011719  0.009716  -0.00713  -0.014762  0.00591  3.915136  0.008
C  C103  1  0.41165105  0.85053138  0.14401135  1  -0.057432  0.009653  -0.007205  -0.013319  0.005817  3.919221  0.007
C  C104  1  0.26929343  0.85859186  0.70509047  1  -0.02583  0.010261  -0.007021  -0.013899  0.006183  3.918444  0.008
C  C105  1  0.08681590  0.85446911  0.14819324  1  -0.019028  0.013749  -0.007921  -0.012434  0.008334  3.9177  0.011
C  C106  1  0.22931124  0.29171102  0.13961295  1  -0.013819  0.013988  -0.008736  -0.017455  0.008546  3.917635  0.011
C  C107  1  0.94018219  0.85310739  0.70651864  1  0.009875  0.012961  -0.005811  -0.01168  0.007938  3.912007  0.01
C  C108  1  0.43876599  0.70688103  0.85199995  1  -0.038367  0.000758  -0.007772  -0.013773  0.000468  3.911475  0.001
C  C109  1  0.59162291  0.14965600  0.85834367  1  0.040827  0.004333  -0.006391  -0.01263  0.002604  3.913064  0.003
C  C110  1  0.73200033  0.14194153  0.29253908  1  0.034198  -0.015238  -0.00655  -0.015281  -0.009527  3.917422  -0.012
C  C111  1  0.91258528  0.14325621  0.85402667  1  -0.027872  0.001263  -0.007603  -0.012362  0.000782  3.911818  0.001
C  C112  1  0.76755696  0.71109229  0.85969174  1  0.024723  0.008152  -0.00519  -0.011699  0.004906  3.908505  0.006
C  C113  1  0.06010944  0.14829404  0.29216865  1  -0.005923  -0.010546  -0.006748  -0.015428  -0.006554  3.910342  -0.008
C  C114  1  0.56943470  0.34757390  0.23650705  1  -0.074079  0.000583  -0.085487  -0.095785  0.00033  3.982518  0.001
C  C115  1  0.33013636  0.76158758  0.10705292  1  -0.016119  0.000366  -0.086091  -0.095003  0.000219  3.98159  0.0
C  C116  1  0.22350214  0.89344792  0.65165258  1  -0.039548  0.000496  -0.086244  -0.097938  0.000288  3.986893  0.0
C  C117  1  0.16867896  0.89066150  0.23679607  1  -0.027763  0.000274  -0.08522  -0.096239  0.000164  3.979468  0.0
C  C118  1  0.27604148  0.34502786  0.10489610  1  -0.053437  0.000348  -0.086478  -0.096224  0.000185  3.986833  0.0
C  C119  1  0.93246699  0.76467939  0.65411275  1  0.019352  0.000442  -0.083926  -0.094025  0.000247  3.974276  0.0
C  C120  1  0.43125658  0.65490406  0.76365749  1  -0.069734  -0.00065  -0.086315  -0.096121  -0.000421  3.979372  -0.001
C  C121  1  0.67247911  0.23887780  0.89547715  1  -0.085895  0.000188  -0.087474  -0.099944  0.000119  3.982941  0.0
C  C122  1  0.77638637  0.10525192  0.34456234  1  -0.070103  -0.000514  -0.085882  -0.09502  -0.000319  3.980876  0.0
C  C123  1  0.83058357  0.10571085  0.76508111  1  -0.028191  -6.7e-05  -0.08636  -0.098668  -8.7e-05  3.980125  0.0
C  C124  1  0.72274004  0.65831022  0.89552126  1  -0.107463  0.000457  -0.084622  -0.093354  0.000262  3.979814  0.001
C  C125  1  0.06754646  0.23661723  0.34480392  1  -0.056866  -0.000899  -0.085915  -0.095662  -0.000547  3.979753  -0.001
C  C126  1  0.62221739  0.44080217  0.28050017  1  -0.010451  0.000606  -0.089119  -0.114038  0.000341  3.985072  0.0
C  C127  1  0.33843915  0.71736866  0.15590191  1  -0.04719  0.000677  -0.088999  -0.115358  0.000382  3.983469  0.001
C  C128  1  0.18123377  0.84280537  0.55863104  1  -0.059097  0.000646  -0.089359  -0.115564  0.000367  3.983643  0.0
C  C129  1  0.16049732  0.84109289  0.28030869  1  -0.068908  0.00076  -0.089569  -0.11554  0.000427  3.981892  0.001
C  C130  1  0.31800844  0.43815806  0.15501448  1  -0.039664  0.00078  -0.089386  -0.114879  0.00045  3.981464  0.001
C  C131  1  0.88070766  0.72105846  0.56097797  1  -0.08182  0.000806  -0.088267  -0.112685  0.00045  3.980605  0.001
C  C132  1  0.37969079  0.56159559  0.71936904  1  -0.001283  -0.000626  -0.088721  -0.114435  -0.000387  3.982547  -0.001
C  C133  1  0.66416133  0.28357311  0.84701662  1  -0.036363  0.000931  -0.08881  -0.11322  0.000545  3.979875  0.001
C  C134  1  0.81694181  0.15351454  0.43760490  1  0.020909  -0.000756  -0.089056  -0.11446  -0.000448  3.985634  -0.001
C  C135  1  0.83782738  0.15376567  0.71998472  1  -0.034569  -0.000679  -0.088336  -0.111856  -0.000415  3.980234  -0.001
C  C136  1  0.68280606  0.56517009  0.84682195  1  0.025756  0.000836  -0.088519  -0.11459  0.000498  3.983293  0.001
C  C137  1  0.11947719  0.28028585  0.43793679  1  -0.06464  -0.000555  -0.087766  -0.113863  -0.000314  3.979878  0.0
C  C138  1  0.66793461  0.48473484  0.23714453  1  -0.022815  -0.000583  -0.006992  0.037321  -0.00035  3.988266  0.0
C  C139  1  0.42841096  0.76113286  0.24339265  1  -0.061543  -0.000705  -0.008911  0.035155  -0.00042  3.992484  0.0
C  C140  1  0.18329849  0.75562431  0.51640204  1  0.064325  -0.000575  -0.009614  0.034185  -0.000346  3.989279  0.0
C  C141  1  0.07043665  0.75347734  0.23619469  1  -0.037325  -0.000865  -0.008511  0.037288  -0.000518  3.991033  -0.001
C  C142  1  0.31528399  0.48075930  0.24179897  1  -0.010131  -0.000804  -0.006672  0.03873  -0.00048  3.992102  -0.001
C  C143  1  0.83516019  0.76463950  0.51719371  1  -0.072411  -0.000735  -0.006561  0.037212  -0.00044  3.984257  0.0
C  C144  1  0.33387518  0.51708011  0.76220093  1  0.036828  0.000695  -0.010914  0.031055  0.000402  3.9874  0.0
C  C145  1  0.57436577  0.24038255  0.75955585  1  -0.047586  -0.001174  -0.008517  0.034855  -0.000689  3.989894  -0.001
C  C146  1  0.81469093  0.24040183  0.48162369  1  -0.034506  0.000731  -0.008355  0.036232  0.000429  3.992686  0.0
C  C147  1  0.92764593  0.24123768  0.76260586  1  0.030943  0.0013  -0.010282  0.032558  0.000747  3.991743  0.001
C  C148  1  0.68567261  0.52161470  0.76017967  1  -0.028189  -0.000696  -0.009433  0.034401  -0.000412  3.988192  0.0
C  C149  1  0.16551010  0.23685717  0.48171429  1  -0.03355  0.000313  -0.008225  0.036538  0.000188  3.984855  0.0
C  C150  1  0.66473278  0.43190736  0.14999577  1  -0.139485  0.000304  -0.094246  -0.132198  0.000145  3.991167  0.0
C  C151  1  0.51354610  0.84891193  0.27867929  1  0.001414  0.000365  -0.094601  -0.132461  0.000181  3.994039  0.0
C  C152  1  0.23468221  0.72256071  0.57042125  1  -0.055914  0.00039  -0.092508  -0.128342  0.000188  3.991907  0.0
C  C153  1  0.98517527  0.71885361  0.14871179  1  -0.021207  0.000537  -0.093839  -0.132124  0.000279  3.993205  0.0
C  C154  1  0.26342212  0.42698779  0.27490230  1  -0.059828  0.000539  -0.094384  -0.132338  0.000283  3.99238  0.0
C  C155  1  0.83747197  0.85164735  0.57002566  1  -0.030537  0.000464  -0.092922  -0.129928  0.000232  3.986473  0.0
C  C156  1  0.33626917  0.56939742  0.84923591  1  -0.174469  0.000393  -0.093149  -0.128939  0.000245  3.99086  0.0
C  C157  1  0.48944705  0.15241362  0.72421608  1  -0.050667  0.000125  -0.093293  -0.130055  3.1e-05  3.990981  0.0
C  C158  1  0.76443793  0.27525349  0.42908387  1  -0.165473  -0.00056  -0.094437  -0.133416  -0.000301  3.990715  0.0
C  C159  1  0.01320739  0.27714183  0.85040831  1  -0.078563  0.000177  -0.093071  -0.129824  0.000133  3.993331  0.0
C  C160  1  0.73603648  0.57491404  0.72609911  1  -0.083185  0.000168  -0.093649  -0.133278  6.1e-05  3.988225  0.0
C  C161  1  0.16343948  0.14995321  0.42874208  1  -0.070294  -0.000243  -0.093476  -0.131915  -0.000116  3.987931  0.0
C  C162  1  0.61227731  0.33837537  0.10603822  1  0.028956  3.2e-05  -0.084894  -0.09193  4.6e-05  3.967512  0.0
C  C163  1  0.50536778  0.89306650  0.22956545  1  -0.060985  -4.1e-05  -0.085079  -0.090866  1.3e-05  3.97036  0.0
C  C164  1  0.27742842  0.77347226  0.66361505  1  -0.070893  0.00015  -0.082828  -0.089814  9.7e-05  3.965291  0.0
C  C165  1  0.99309085  0.76877303  0.10530551  1  -0.049345  6.1e-05  -0.085544  -0.091715  7.8e-05  3.968356  0.0
C  C166  1  0.22058099  0.33361421  0.22436183  1  -0.035905  0.000222  -0.083959  -0.089443  0.000166  3.964508  0.0
C  C167  1  0.88903267  0.89531885  0.66346936  1  -0.079548  8.3e-05  -0.083767  -0.090417  5.8e-05  3.962186  0.0
C  C168  1  0.38773746  0.66300243  0.89350478  1  -0.015029  0.001481  -0.08556  -0.093415  0.000831  3.968691  0.001
C  C169  1  0.49784097  0.10767206  0.77283793  1  -0.066306  -0.001514  -0.083905  -0.089829  -0.000889  3.966905  -0.001
C  C170  1  0.72331906  0.22665988  0.33575054  1  -0.002063  -0.000294  -0.082981  -0.089014  -0.000206  3.964043  0.0
C  C171  1  0.00574906  0.22893092  0.89557368  1  -0.090181  0.001955  -0.086525  -0.092443  0.001099  3.972697  0.001
C  C172  1  0.77685053  0.66837483  0.77520541  1  -0.054386  -0.000708  -0.081612  -0.085568  -0.00041  3.956745  -0.001
C  C173  1  0.11184991  0.10629910  0.33526625  1  0.00458  -0.000297  -0.082951  -0.08805  -0.000216  3.961638  0.0
C  C174  1  0.71328178  0.58419238  0.28294939  1  0.546545  7.1e-05  0.12082  0.219758  3.9e-05  4.022844  0.0
C  C175  1  0.42783106  0.71517316  0.29657459  1  0.473939  0.000196  0.120615  0.221291  0.000113  4.028269  0.0
C  C176  1  0.12872605  0.70096129  0.41720693  1  0.46679  -6e-06  0.121658  0.221507  -6e-06  4.022243  0.0
C  C177  1  0.07098984  0.69993329  0.28188945  1  0.489461  -2.2e-05  0.120812  0.218432  -1.5e-05  4.02637  0.0
C  C178  1  0.36997868  0.58006371  0.29600359  1  0.603437  0.000195  0.119324  0.217727  0.000112  4.031257  0.0
C  C179  1  0.79039246  0.71905907  0.41786497  1  0.606751  -5e-06  0.121121  0.219457  -3e-06  4.018326  0.0
C  C180  1  0.28863528  0.41763084  0.71602625  1  0.556306  2e-05  0.121282  0.22226  9e-06  4.015235  0.0
C  C181  1  0.57482184  0.28686476  0.70660735  1  0.536601  0.000253  0.120467  0.220762  0.00015  4.020028  0.0
C  C182  1  0.86897710  0.29347093  0.58092818  1  0.606588  -3.7e-05  0.119877  0.218724  -2.7e-05  4.024757  0.0
C  C183  1  0.92660776  0.29397555  0.71598776  1  0.554264  -0.000101  0.119024  0.218225  -6.4e-05  4.022507  0.0
C  C184  1  0.63193130  0.42204495  0.70683154  1  0.506571  0.000215  0.120289  0.220879  0.000132  4.017537  0.0
C  C185  1  0.21080622  0.28262636  0.58108425  1  0.478535  -3e-06  0.120502  0.218272  -3e-06  4.020538  0.0
C  C186  1  0.71117484  0.62923648  0.23385667  1  0.014937  -1.5e-05  -0.08689  -0.218042  -6e-06  3.910866  0.0
C  C187  1  0.47471711  0.76429888  0.39065465  1  0.013244  -0.000527  -0.087387  -0.219883  -0.000302  3.915357  0.0
C  C188  1  0.08199106  0.60668378  0.37275296  1  0.098129  0.000183  -0.087494  -0.220892  0.000108  3.912904  0.0
C  C189  1  0.02405342  0.60565499  0.23303110  1  -0.035956  0.00019  -0.087809  -0.220607  0.000114  3.911303  0.0
C  C190  1  0.41658053  0.62478980  0.39011714  1  -0.011638  -0.000549  -0.087013  -0.218234  -0.000312  3.912973  0.0
C  C191  1  0.79249679  0.76841947  0.37306077  1  0.008546  2e-06  -0.087475  -0.219297  1e-06  3.908938  0.0
C  C192  1  0.29071390  0.37247657  0.76503181  1  -0.041315  -9.4e-05  -0.085369  -0.216725  -5.2e-05  3.908225  0.0
C  C193  1  0.52722474  0.23766181  0.61243530  1  0.023661  -0.000896  -0.087914  -0.219791  -0.000529  3.912758  -0.001
C  C194  1  0.91635701  0.38768148  0.62562223  1  -0.05298  0.000429  -0.088094  -0.219464  0.000244  3.916175  0.0
C  C195  1  0.97376852  0.38827478  0.76492699  1  -0.101708  0.000314  -0.087928  -0.220209  0.000181  3.910763  0.0
C  C196  1  0.58450461  0.37701140  0.61266873  1  -0.044364  -0.00099  -0.088224  -0.220632  -0.000583  3.910364  -0.001
C  C197  1  0.20855302  0.23324661  0.62585368  1  -0.009264  -2e-05  -0.086827  -0.218026  -1.4e-05  3.912922  0.0
C  C198  1  0.75181812  0.72312562  0.27929470  1  -0.167869  1.9e-05  0.007311  0.115353  1.2e-05  4.006842  0.0
C  C199  1  0.46980355  0.71878108  0.43887857  1  -0.104015  0.000333  0.00548  0.114839  0.000195  4.014139  0.0
C  C200  1  0.02887039  0.55762081  0.27886402  1  -0.059385  -7.5e-05  0.006176  0.113755  -3.7e-05  4.010202  0.0
C  C201  1  0.24960535  0.27858620  0.71966925  1  -0.063771  7.2e-05  0.00496  0.112674  3.6e-05  4.01104  0.0
C  C202  1  0.53132221  0.28303358  0.56402788  1  0.037732  0.000234  0.005347  0.115031  0.000131  4.009734  0.0
C  C203  1  0.96937489  0.43651177  0.71938803  1  -0.086837  5.4e-05  0.005794  0.115905  2.8e-05  4.013279  0.0
C  C204  1  0.75146142  0.77257760  0.22974345  1  0.053158  0.001568  0.010918  0.101943  0.000906  3.997003  0.001
C  C205  1  0.51894401  0.76839733  0.53782435  1  0.02606  -0.002421  0.007118  0.097448  -0.001455  4.00487  -0.002
C  C206  1  0.97927853  0.45842287  0.22970754  1  -0.027558  0.001921  0.011069  0.102678  0.001106  3.995723  0.001
C  C207  1  0.24979325  0.22920330  0.76931243  1  -0.01606  -0.001831  0.010853  0.101738  -0.001086  4.000839  -0.001
C  C208  1  0.48143942  0.23350863  0.46495644  1  -0.052986  -0.001513  0.008381  0.096997  -0.000896  4.000226  -0.001
C  C209  1  0.01854557  0.53556787  0.76838993  1  -0.037643  -0.001299  0.00926  0.099346  -0.000776  4.000886  -0.001
C  C210  1  0.84166918  0.85848479  0.26619888  1  -0.032445  -0.001217  -0.081929  -0.173045  -0.000723  3.945919  -0.001
C  C211  1  0.57212708  0.73226761  0.58743415  1  0.023985  0.004362  -0.085454  -0.176457  0.002596  3.956916  0.003
C  C212  1  0.98261740  0.40906345  0.14427578  1  -0.041198  -0.001203  -0.084364  -0.177346  -0.000724  3.946547  -0.001
C  C213  1  0.92661735  0.40927009  0.26636375  1  -0.066888  -0.002101  -0.083853  -0.175527  -0.001236  3.94961  -0.002
C  C214  1  0.51442433  0.85372874  0.58626347  1  -0.051321  0.004463  -0.086619  -0.180252  0.002596  3.955702  0.004
C  C215  1  0.66070576  0.73557388  0.14397736  1  -0.039394  -0.001339  -0.083272  -0.176067  -0.000801  3.946201  -0.001
C  C216  1  0.16052435  0.14284088  0.73238737  1  0.052647  0.002058  -0.081565  -0.1737  0.001214  3.944846  0.002
C  C217  1  0.42777738  0.27003211  0.41590827  1  -0.103743  0.002378  -0.084479  -0.176742  0.001375  3.952004  0.002
C  C218  1  0.01316987  0.58444381  0.85322899  1  0.050468  0.002083  -0.085295  -0.179742  0.001233  3.948915  0.002
C  C219  1  0.07207386  0.58441637  0.73174630  1  0.00195  0.001782  -0.083063  -0.174394  0.001062  3.950034  0.001
C  C220  1  0.48614258  0.14825225  0.41615959  1  -0.051258  0.002052  -0.082307  -0.174157  0.001216  3.949277  0.002
C  C221  1  0.33934463  0.26652545  0.85560059  1  -0.013206  0.001822  -0.082732  -0.174472  0.001068  3.948641  0.001
C  C222  1  0.83778857  0.90276748  0.21721957  1  0.474478  0.001292  0.05264  0.090594  0.000691  3.936049  0.001
C  C223  1  0.61717479  0.78136226  0.68072404  1  0.416613  -0.000361  0.049077  0.093863  0.000123  3.951237  0.0
C  C224  1  0.93477971  0.31563635  0.10013705  1  0.482465  0.001965  0.052541  0.093066  0.001153  3.934079  0.002
C  C225  1  0.88065676  0.31585223  0.21790901  1  0.547157  0.00084  0.052079  0.091566  0.000187  3.936479  0.0
C  C226  1  0.56132365  0.89804518  0.67960101  1  0.516514  -0.000499  0.049813  0.095078  7e-05  3.951662  0.0
C  C227  1  0.66329389  0.78410720  0.09922285  1  0.443314  0.001163  0.053266  0.093045  0.000536  3.933517  0.001
C  C228  1  0.16419641  0.09837155  0.78117277  1  0.422649  -0.001063  0.053401  0.093455  -0.000434  3.9324  -0.001
C  C229  1  0.38213787  0.22130604  0.32253834  1  0.536921  -0.00054  0.052739  0.094974  -6.9e-05  3.953387  0.0
C  C230  1  0.05971234  0.67786641  0.89691819  1  0.465682  -0.000395  0.053853  0.09739  -2e-05  3.949279  0.0
C  C231  1  0.11718216  0.67787205  0.78006210  1  0.481221  -0.000818  0.051102  0.09099  -0.000401  3.952655  -0.001
C  C232  1  0.43897148  0.10416320  0.32278015  1  0.482253  -0.000841  0.052868  0.095732  -0.00037  3.950925  -0.001
C  C233  1  0.33648272  0.21790856  0.90026229  1  0.485988  -0.001473  0.052645  0.092823  -0.00081  3.933876  -0.001
N  N234  1  0.75027140  0.86640602  0.13513585  1  -1.193033  -0.010936  -0.296999  -0.162266  -0.007492  3.486952  -0.011
N  N235  1  0.61204934  0.86287649  0.72648014  1  -1.169698  0.062639  -0.297088  -0.19213  0.038302  3.446452  0.054
N  N236  1  0.88443053  0.26955854  0.13609500  1  -1.201634  -0.016116  -0.296063  -0.166234  -0.010711  3.483979  -0.016
N  N237  1  0.25053996  0.13511199  0.86380714  1  -1.170735  0.021838  -0.297158  -0.165023  0.013701  3.494657  0.02
N  N238  1  0.38800230  0.14011612  0.27705156  1  -1.176293  0.029227  -0.288376  -0.184925  0.018026  3.444295  0.026
N  N239  1  0.11061342  0.72339164  0.86086575  1  -1.205118  0.025959  -0.287153  -0.180426  0.016017  3.451106  0.024
N  N240  1  0.75189466  0.62869518  0.37321169  1  -1.209167  0.000111  -0.309173  -0.341913  6.5e-05  3.27823  0.0
N  N241  1  0.37620352  0.62476921  0.25047223  1  -1.193924  -0.000468  -0.311823  -0.345696  -0.000265  3.28725  0.0
N  N242  1  0.12255092  0.74618942  0.37218258  1  -1.192067  0.00014  -0.309014  -0.340358  9e-05  3.28338  0.0
N  N243  1  0.24973026  0.37306247  0.62571505  1  -1.190592  -0.000151  -0.30982  -0.343393  -9.3e-05  3.27445  0.0
N  N244  1  0.62651799  0.37739542  0.75257781  1  -1.197367  -0.000329  -0.310115  -0.34569  -0.00019  3.273276  0.0
N  N245  1  0.87474152  0.24774526  0.62556577  1  -1.219468  6.1e-05  -0.309313  -0.343209  2.3e-05  3.271791  0.0
O  O246  1  0.73591024  0.00109108  0.00295271  1  -0.776024  0.30915  -0.427737  -0.712798  0.175381  2.194368  0.268
O  O247  1  0.26521649  0.00228380  0.99702607  1  -0.792506  0.020217  -0.441225  -0.731375  0.018012  2.229488  0.021
O  O248  1  0.45628706  0.16541348  0.14761213  1  -1.098568  0.035039  -0.28399  -0.510533  0.020883  2.412326  0.032
O  O249  1  0.30755409  0.85298754  0.01571904  1  -1.116178  0.030555  -0.286895  -0.518887  0.018165  2.396022  0.028
O  O250  1  0.29764763  0.98811124  0.83628758  1  -1.099636  0.039688  -0.288738  -0.519637  0.023498  2.40671  0.036
O  O251  1  0.19095011  0.98361176  0.14637850  1  -1.118797  0.04454  -0.289368  -0.531027  0.026138  2.4166  0.041
O  O252  1  0.20469495  0.16125158  0.01126156  1  -1.102786  0.048759  -0.291381  -0.53066  0.02853  2.436345  0.045
O  O253  1  0.04107820  0.85304214  0.83702340  1  -1.099687  0.042881  -0.285113  -0.516412  0.0252  2.434913  0.039
O  O254  1  0.54004692  0.83821530  0.85280788  1  -1.124704  0.06726  -0.294826  -0.531086  0.04032  2.426279  0.062
O  O255  1  0.68832405  0.14789620  0.98902883  1  -1.100983  -0.038036  -0.289234  -0.51395  -0.023482  2.422021  -0.035
O  O256  1  0.70653688  0.01375030  0.16275933  1  -1.096291  -0.052034  -0.287654  -0.512706  -0.030981  2.450241  -0.048
O  O257  1  0.81775890  0.01165841  0.85477459  1  -1.12772  0.072101  -0.298123  -0.535405  0.042922  2.443699  0.065
O  O258  1  0.79287594  0.84095985  0.98816046  1  -1.097791  -0.019244  -0.287389  -0.519738  -0.01274  2.461452  -0.018
O  O259  1  0.95580716  0.14831273  0.16249945  1  -1.095933  -0.039464  -0.289842  -0.520745  -0.023776  2.467311  -0.036
O  O260  1  0.43996952  0.15524490  0.01240449  1  -1.099618  0.072818  -0.27583  -0.494763  0.042042  2.316061  0.064
O  O261  1  0.43450918  0.98689014  0.14174105  1  -1.104743  0.075146  -0.273711  -0.496508  0.043255  2.25638  0.067
O  O262  1  0.29050889  0.86048718  0.84240167  1  -1.104419  0.078933  -0.27012  -0.489633  0.045343  2.257795  0.07
O  O263  1  0.06326005  0.85834469  0.01268314  1  -1.119259  0.087474  -0.275648  -0.506767  0.050187  2.267254  0.078
O  O264  1  0.20394583  0.15297248  0.13648944  1  -1.114088  0.086192  -0.275482  -0.502774  0.049539  2.273043  0.077
O  O265  1  0.06382386  0.98839303  0.84617045  1  -1.100178  0.080013  -0.277226  -0.504312  0.046162  2.344557  0.071
O  O266  1  0.55839045  0.84706099  0.98754999  1  -1.096831  -0.078472  -0.28112  -0.504691  -0.046461  2.296788  -0.069
O  O267  1  0.58172791  0.01370811  0.85932528  1  -1.110559  0.076731  -0.279981  -0.506269  0.045138  2.330351  0.069
O  O268  1  0.71300934  0.13981298  0.15419012  1  -1.094732  -0.088673  -0.275709  -0.493295  -0.052202  2.309947  -0.079
O  O269  1  0.92436717  0.14019404  0.98936435  1  -1.100397  -0.068918  -0.284598  -0.521678  -0.04131  2.320717  -0.061
O  O270  1  0.78397950  0.84961179  0.86233360  1  -1.118311  0.081424  -0.282907  -0.509708  0.047594  2.352152  0.073
O  O271  1  0.93971081  0.01293160  0.15150971  1  -1.091988  -0.080493  -0.277926  -0.502361  -0.047352  2.32733  -0.071
