# generated using pymatgen
data_RbH4C3(N3O)3
_symmetry_space_group_name_H-M   'P 1'
_cell_length_a   7.64619602
_cell_length_b   7.53527921
_cell_length_c   18.14829609
_cell_angle_alpha   79.47879827
_cell_angle_beta   85.34197382
_cell_angle_gamma   71.12432172
_symmetry_Int_Tables_number   1
_chemical_formula_structural   RbH4C3(N3O)3
_chemical_formula_sum   'Rb4 H16 C12 N36 O12'
_cell_volume   972.49500106
_cell_formula_units_Z   4
loop_
 _symmetry_equiv_pos_site_id
 _symmetry_equiv_pos_as_xyz
  1  'x, y, z'
loop_
 _atom_site_type_symbol
 _atom_site_label
 _atom_site_symmetry_multiplicity
 _atom_site_fract_x
 _atom_site_fract_y
 _atom_site_fract_z
 _atom_site_occupancy
 _atom_site_hle17_bader_spin_density
 _atom_site_hle17_ddec_charge
 _atom_site_hle17_ddec_spin_density
 _atom_site_hle17_ddec_sum_bond_order
 _atom_site_hle17_magmom
 _atom_site_hse06_10hf_bader_spin_density
 _atom_site_hse06_10hf_ddec_charge
 _atom_site_hse06_10hf_ddec_spin_density
 _atom_site_hse06_10hf_ddec_sum_bond_order
 _atom_site_hse06_10hf_magmom
 _atom_site_hse06_bader_spin_density
 _atom_site_hse06_ddec_charge
 _atom_site_hse06_ddec_spin_density
 _atom_site_hse06_ddec_sum_bond_order
 _atom_site_hse06_magmom
 _atom_site_pbe_bader_spin_density
 _atom_site_pbe_cm5_charge
 _atom_site_pbe_ddec_charge
 _atom_site_pbe_ddec_spin_density
 _atom_site_pbe_ddec_sum_bond_order
 _atom_site_pbe_magmom
Rb  Rb0  1  0.70818390  0.15944790  0.99649201  1  0  0.87745  0  0.567229  0  0  0.786471  0  0.83029  0  0  0.80415  0  0.803767  0  0  0.858666  0.773583  0  0.849033  0
Rb  Rb1  1  0.29181199  0.84055352  0.00350827  1  0  0.877454  0  0.567216  0  0  0.786471  0  0.83028  0  0  0.804151  0  0.803758  0  0  0.85867  0.773585  0  0.849022  0
Rb  Rb2  1  0.36309757  0.33428265  0.57029671  1  0  0.909129  0  0.47254  0  0  0.843351  0  0.686761  0  0  0.859114  0  0.661627  0  0  0.770586  0.831836  0  0.704566  0
Rb  Rb3  1  0.63690574  0.66572022  0.42970431  1  0  0.909128  0  0.472547  0  0  0.843328  0  0.686806  0  0  0.859106  0  0.661644  0  0  0.770584  0.831809  0  0.70461  0
H  H4  1  0.42679725  0.76430053  0.71527728  1  0  0.124539  0  0.946404  0  0  0.128945  0  1.018117  0  0  0.131278  0  1.015478  0  0  0.126218  0.127348  0  1.019996  0
H  H5  1  0.57319996  0.23570087  0.28472185  1  0  0.124573  0  0.946351  0  0  0.128962  0  1.018112  0  0  0.131302  0  1.015465  0  0  0.126228  0.127364  0  1.019991  0
H  H6  1  0.28884006  0.76974939  0.80018700  1  0  0.130287  0  0.920942  0  0  0.133366  0  0.995038  0  0  0.136137  0  0.992423  0  0  0.132933  0.131267  0  0.997086  0
H  H7  1  0.71115846  0.23025201  0.19981209  1  0  0.130287  0  0.920928  0  0  0.133375  0  0.995038  0  0  0.136137  0  0.992435  0  0  0.132947  0.131275  0  0.997088  0
H  H8  1  0.90600652  0.80400504  0.86488143  1  0  0.146516  0  0.912367  0  0  0.157436  0  0.973556  0  0  0.158848  0  0.972496  0  0  0.139778  0.156345  0  0.974445  0
H  H9  1  0.09398849  0.19599921  0.13511811  1  0  0.146497  0  0.912418  0  0  0.157399  0  0.973638  0  0  0.15881  0  0.972577  0  0  0.139783  0.156308  0  0.974526  0
H  H10  1  0.78279671  0.63529367  0.88222908  1  0  0.130013  0  0.906637  0  0  0.137372  0  0.973403  0  0  0.138928  0  0.971727  0  0  0.14013  0.136217  0  0.974718  0
H  H11  1  0.21720050  0.36470774  0.11777060  1  0  0.129965  0  0.906592  0  0  0.137331  0  0.973357  0  0  0.138886  0  0.971681  0  0  0.140122  0.136177  0  0.974671  0
H  H12  1  0.98663477  0.07661221  0.83066009  1  0  0.380051  0  0.945388  0  0  0.339495  0  1.027807  0  0  0.350707  0  1.0115  0  0  0.267085  0.331649  0  1.039186  0
H  H13  1  0.01336243  0.92338921  0.16934014  1  0  0.380003  0  0.945438  0  0  0.33945  0  1.027855  0  0  0.350661  0  1.011549  0  0  0.267053  0.331603  0  1.039233  0
H  H14  1  0.02547391  0.16755152  0.89768863  1  0  0.360047  0  0.978592  0  0  0.323654  0  1.053456  0  0  0.334376  0  1.038051  0  0  0.263618  0.316167  0  1.064171  0
H  H15  1  0.97452110  0.83245273  0.10231092  1  0  0.360055  0  0.978584  0  0  0.323663  0  1.053447  0  0  0.334385  0  1.038042  0  0  0.263637  0.316176  0  1.064161  0
H  H16  1  0.75198625  0.17664083  0.44864981  1  0  0.397345  0  0.912057  0  0  0.359967  0  0.987575  0  0  0.371108  0  0.971165  0  0  0.277506  0.352126  0  0.999087  0
H  H17  1  0.24801576  0.82336202  0.55135015  1  0  0.397359  0  0.912026  0  0  0.359982  0  0.987541  0  0  0.371123  0  0.97113  0  0  0.2775  0.352141  0  0.999052  0
H  H18  1  0.81771502  0.19284751  0.52642384  1  0  0.38908  0  0.92627  0  0  0.348521  0  1.006901  0  0  0.359468  0  0.990863  0  0  0.277382  0.340787  0  1.018197  0
H  H19  1  0.18228655  0.80715249  0.47357636  1  0  0.389054  0  0.926315  0  0  0.348487  0  1.006961  0  0  0.359434  0  0.990922  0  0  0.277377  0.340752  0  1.018257  0
C  C20  1  0.32148324  0.85613134  0.74849612  1  0  -0.13403  0  3.589213  0  0  -0.18819  0  3.830706  0  0  -0.185853  0  3.837308  0  0  -0.029478  -0.189681  0  3.826419  0
C  C21  1  0.67851484  0.14386723  0.25150431  1  0  -0.134048  0  3.589182  0  0  -0.188242  0  3.830725  0  0  -0.18591  0  3.837329  0  0  -0.029485  -0.189732  0  3.826438  0
C  C22  1  0.15503655  0.96434327  0.70283071  1  0  0.269956  0  3.803591  0  0  0.252457  0  4.079612  0  0  0.259588  0  4.099444  0  0  0.196552  0.24783  0  4.065999  0
C  C23  1  0.84495977  0.03566098  0.29716879  1  0  0.269932  0  3.803607  0  0  0.252456  0  4.079626  0  0  0.259596  0  4.099445  0  0  0.1965  0.247828  0  4.066013  0
C  C24  1  0.91455067  0.65716393  0.86196374  1  0  -0.12451  0  3.596342  0  0  -0.195182  0  3.835239  0  0  -0.192417  0  3.842464  0  0  -0.022881  -0.197016  0  3.830626  0
C  C25  1  0.08544348  0.34283888  0.13803429  1  0  -0.124398  0  3.596241  0  0  -0.19506  0  3.835166  0  0  -0.19229  0  3.842383  0  0  -0.022882  -0.196895  0  3.830553  0
C  C26  1  0.88798342  0.66102191  0.67157167  1  0  0.288182  0  3.734708  0  0  0.237695  0  4.038541  0  0  0.247853  0  4.056218  0  0  0.326352  0.234391  0  4.028812  0
C  C27  1  0.11201947  0.33897382  0.32842827  1  0  0.288164  0  3.734627  0  0  0.237644  0  4.038486  0  0  0.24777  0  4.056143  0  0  0.326346  0.234339  0  4.028758  0
C  C28  1  0.07259452  0.52020365  0.90546084  1  0  0.291092  0  3.813069  0  0  0.270798  0  4.097318  0  0  0.278926  0  4.114575  0  0  0.204136  0.265412  0  4.085597  0
C  C29  1  0.92740398  0.47980205  0.09453958  1  0  0.291192  0  3.812882  0  0  0.27086  0  4.097186  0  0  0.278992  0  4.114437  0  0  0.204184  0.265474  0  4.085467  0
C  C30  1  0.51568507  0.19398020  0.77867699  1  0  0.279946  0  3.745313  0  0  0.238164  0  4.050992  0  0  0.243374  0  4.064698  0  0  0.330726  0.234303  0  4.042244  0
C  C31  1  0.48431737  0.80601697  0.22132395  1  0  0.279931  0  3.745119  0  0  0.238161  0  4.050811  0  0  0.24337  0  4.064505  0  0  0.330704  0.234344  0  4.042011  0
N  N32  1  0.08180420  0.34098400  0.93544046  1  0  -0.332399  0  3.060476  0  0  -0.286667  0  3.322711  0  0  -0.298755  0  3.337673  0  0  -0.243105  -0.278406  0  3.312524  0
N  N33  1  0.91819256  0.65901883  0.06455858  1  0  -0.33242  0  3.060492  0  0  -0.286701  0  3.322777  0  0  -0.298784  0  3.337725  0  0  -0.24311  -0.27844  0  3.312589  0
N  N34  1  0.93601363  0.63472738  0.78249890  1  0  0.209107  0  3.527752  0  0  0.29929  0  3.752383  0  0  0.295692  0  3.771923  0  0  0.019273  0.30141  0  3.739527  0
N  N35  1  0.06398620  0.36527404  0.21750070  1  0  0.209088  0  3.527743  0  0  0.299271  0  3.752381  0  0  0.295673  0  3.771922  0  0  0.01929  0.30139  0  3.739526  0
N  N36  1  0.40587513  0.98285967  0.77427775  1  0  0.270086  0  3.484531  0  0  0.313982  0  3.768629  0  0  0.311055  0  3.787424  0  0  0.021716  0.315699  0  3.756142  0
N  N37  1  0.59412207  0.01714174  0.22572194  1  0  0.270146  0  3.484591  0  0  0.314058  0  3.76869  0  0  0.311138  0  3.787476  0  0  0.021715  0.315773  0  3.756208  0
N  N38  1  0.14409600  0.97119219  0.62856246  1  0  -0.344546  0  3.008987  0  0  -0.307231  0  3.275208  0  0  -0.318961  0  3.289586  0  0  -0.227901  -0.299081  0  3.265269  0
N  N39  1  0.85590207  0.02881066  0.37143764  1  0  -0.344532  0  3.008916  0  0  -0.307224  0  3.275139  0  0  -0.318956  0  3.289516  0  0  -0.227886  -0.299074  0  3.2652  0
N  N40  1  0.42847702  0.13565442  0.73195292  1  0  -0.280675  0  2.894985  0  0  -0.281381  0  3.18671  0  0  -0.284235  0  3.196738  0  0  -0.22215  -0.279279  0  3.180276  0
N  N41  1  0.57152762  0.86434416  0.26804674  1  0  -0.280786  0  2.895109  0  0  -0.281514  0  3.186849  0  0  -0.284368  0  3.196878  0  0  -0.222206  -0.279426  0  3.180402  0
N  N42  1  0.54606213  0.08246121  0.84629711  1  0  -0.22686  0  2.955939  0  0  -0.217181  0  3.255114  0  0  -0.22246  0  3.265783  0  0  -0.186298  -0.213554  0  3.248201  0
N  N43  1  0.45393595  0.91753736  0.15370332  1  0  -0.22681  0  2.955795  0  0  -0.217135  0  3.254958  0  0  -0.222413  0  3.26563  0  0  -0.186272  -0.213523  0  3.248035  0
N  N44  1  0.80832554  0.73039810  0.73280441  1  0  -0.223426  0  2.844073  0  0  -0.242041  0  3.123879  0  0  -0.243947  0  3.134576  0  0  -0.162704  -0.240476  0  3.116007  0
N  N45  1  0.19167210  0.26959762  0.26719570  1  0  -0.223381  0  2.843953  0  0  -0.241993  0  3.123786  0  0  -0.243897  0  3.134482  0  0  -0.162703  -0.240431  0  3.11592  0
N  N46  1  0.99476387  0.06862685  0.73132608  1  0  -0.330208  0  3.051157  0  0  -0.289352  0  3.331485  0  0  -0.302036  0  3.346848  0  0  -0.225965  -0.2807  0  3.320998  0
N  N47  1  0.00523420  0.93137599  0.26867402  1  0  -0.330218  0  3.051114  0  0  -0.289355  0  3.331401  0  0  -0.302039  0  3.346763  0  0  -0.22595  -0.280704  0  3.320916  0
N  N48  1  0.88124687  0.14244031  0.67305000  1  0  -0.111483  0  2.996816  0  0  -0.11317  0  3.305031  0  0  -0.113987  0  3.31955  0  0  -0.115363  -0.112138  0  3.294855  0
N  N49  1  0.11875164  0.85756110  0.32694964  1  0  -0.11147  0  2.996716  0  0  -0.113159  0  3.30494  0  0  -0.113978  0  3.319461  0  0  -0.115367  -0.11213  0  3.294766  0
N  N50  1  0.79945406  0.71717317  0.60003369  1  0  0.446545  0  3.979866  0  0  0.511045  0  4.227303  0  0  0.512002  0  4.266  0  0  0.065796  0.496688  0  4.223837  0
N  N51  1  0.20055060  0.28281259  0.39996641  1  0  0.446343  0  3.980062  0  0  0.510863  0  4.227522  0  0  0.511944  0  4.265994  0  0  0.065787  0.496505  0  4.224055  0
N  N52  1  0.47471583  0.94697366  0.84315094  1  0  -0.078142  0  2.812641  0  0  -0.077151  0  3.109121  0  0  -0.074756  0  3.116936  0  0  -0.076153  -0.078659  0  3.10406  0
N  N53  1  0.52528181  0.05302633  0.15684939  1  0  -0.078174  0  2.812602  0  0  -0.077189  0  3.109099  0  0  -0.074795  0  3.116911  0  0  -0.076145  -0.078698  0  3.104043  0
N  N54  1  0.05583779  0.52977565  0.68289964  1  0  -0.247135  0  2.962381  0  0  -0.241698  0  3.273496  0  0  -0.246598  0  3.282781  0  0  -0.213354  -0.238086  0  3.266529  0
N  N55  1  0.94416508  0.47022438  0.31710216  1  0  -0.247049  0  2.962188  0  0  -0.241588  0  3.273288  0  0  -0.246494  0  3.282586  0  0  -0.213347  -0.237976  0  3.266321  0
N  N56  1  0.96991942  0.08382538  0.61180431  1  0  -0.12223  0  3.055456  0  0  -0.092185  0  3.34407  0  0  -0.09585  0  3.356788  0  0  -0.099016  -0.089366  0  3.335191  0
N  N57  1  0.03007910  0.91617604  0.38819533  1  0  -0.122215  0  3.055365  0  0  -0.092165  0  3.343982  0  0  -0.095831  0  3.356703  0  0  -0.098998  -0.089346  0  3.335103  0
N  N58  1  0.32754388  0.40041005  0.96202679  1  0  -0.171722  0  3.102357  0  0  -0.152415  0  3.413125  0  0  -0.155027  0  3.426228  0  0  -0.215693  -0.150189  0  3.403829  0
N  N59  1  0.67245288  0.59959278  0.03797280  1  0  -0.171738  0  3.102415  0  0  -0.152433  0  3.413177  0  0  -0.155045  0  3.426281  0  0  -0.215701  -0.150206  0  3.403882  0
N  N60  1  0.08628576  0.51331574  0.75448551  1  0  -0.046479  0  2.813289  0  0  -0.061282  0  3.092322  0  0  -0.058855  0  3.103395  0  0  -0.051395  -0.062823  0  3.085128  0
N  N61  1  0.91371755  0.48668713  0.24551551  1  0  -0.046527  0  2.813247  0  0  -0.061338  0  3.092285  0  0  -0.058917  0  3.103368  0  0  -0.051392  -0.062879  0  3.085092  0
N  N62  1  0.24381286  0.26860741  0.97088619  1  0  -0.158414  0  3.057158  0  0  -0.139697  0  3.354199  0  0  -0.142726  0  3.369246  0  0  -0.187579  -0.137296  0  3.343733  0
N  N63  1  0.75618391  0.73139542  0.02911340  1  0  -0.158435  0  3.057213  0  0  -0.139714  0  3.354253  0  0  -0.142744  0  3.369302  0  0  -0.187624  -0.137312  0  3.343786  0
N  N64  1  0.22295892  0.56080874  0.92051424  1  0  -0.352192  0  3.022882  0  0  -0.328113  0  3.318789  0  0  -0.338403  0  3.33217  0  0  -0.304736  -0.320974  0  3.309526  0
N  N65  1  0.77703785  0.43919409  0.07948480  1  0  -0.352256  0  3.022774  0  0  -0.328159  0  3.318689  0  0  -0.338451  0  3.332066  0  0  -0.304745  -0.32102  0  3.309428  0
N  N66  1  0.56576201  0.36582549  0.75849632  1  0  0.486163  0  3.925905  0  0  0.508915  0  4.237633  0  0  0.530674  0  4.241789  0  0  0.072034  0.494247  0  4.235098  0
N  N67  1  0.43424042  0.63417172  0.24150792  1  0  0.486173  0  3.925741  0  0  0.508876  0  4.237505  0  0  0.530638  0  4.241665  0  0  0.071972  0.494195  0  4.234968  0
O  O68  1  0.00742412  0.05094166  0.88549383  1  0  -0.891576  0  1.868446  0  0  -0.838517  0  2.064749  0  0  -0.857377  0  2.033219  0  0  -0.713564  -0.824679  0  2.086546  0
O  O69  1  0.99257395  0.94906118  0.11450627  1  0  -0.891526  0  1.868466  0  0  -0.838464  0  2.064763  0  0  -0.857325  0  2.033231  0  0  -0.713546  -0.824624  0  2.08656  0
O  O70  1  0.52099784  0.46093390  0.69557966  1  0  -0.352182  0  1.788512  0  0  -0.346243  0  2.018118  0  0  -0.359314  0  2.013861  0  0  -0.135821  -0.337558  0  2.021165  0
O  O71  1  0.47901159  0.53906616  0.30442247  1  0  -0.352058  0  1.788554  0  0  -0.346079  0  2.018138  0  0  -0.359156  0  2.013888  0  0  -0.135679  -0.337385  0  2.021163  0
O  O72  1  0.64801185  0.40647011  0.80557751  1  0  -0.306779  0  1.738997  0  0  -0.290829  0  1.945547  0  0  -0.301772  0  1.941757  0  0  -0.094304  -0.28375  0  1.948457  0
O  O73  1  0.35198359  0.59352424  0.19442774  1  0  -0.306907  0  1.738836  0  0  -0.290917  0  1.945393  0  0  -0.301864  0  1.941601  0  0  -0.094365  -0.283838  0  1.948307  0
O  O74  1  0.71865059  0.25468344  0.48924395  1  0  -0.907348  0  1.812971  0  0  -0.852738  0  1.989384  0  0  -0.871754  0  1.957287  0  0  -0.715086  -0.838597  0  2.011647  0
O  O75  1  0.28135186  0.74531799  0.51075611  1  0  -0.907344  0  1.812968  0  0  -0.852732  0  1.989397  0  0  -0.871748  0  1.957301  0  0  -0.715081  -0.838592  0  2.011659  0
O  O76  1  0.64272529  0.83518064  0.59583832  1  0  -0.315394  0  1.748109  0  0  -0.31932  0  1.938381  0  0  -0.322933  0  1.943359  0  0  -0.100912  -0.312474  0  1.942455  0
O  O77  1  0.35728508  0.16479513  0.40415851  1  0  -0.315395  0  1.74813  0  0  -0.319286  0  1.938333  0  0  -0.32295  0  1.94325  0  0  -0.10091  -0.31244  0  1.942406  0
O  O78  1  0.88822420  0.63915252  0.54800747  1  0  -0.3278  0  1.789581  0  0  -0.330328  0  1.992575  0  0  -0.335254  0  1.99769  0  0  -0.147017  -0.322505  0  1.996428  0
O  O79  1  0.11179489  0.36082474  0.45199280  1  0  -0.327661  0  1.789702  0  0  -0.330204  0  1.992692  0  0  -0.335173  0  1.997747  0  0  -0.147014  -0.322385  0  1.996545  0
