# generated using pymatgen
data_CdNiH66(C19N5)2
_symmetry_space_group_name_H-M   'P 1'
_cell_length_a   9.00359524
_cell_length_b   14.75725948
_cell_length_c   17.00706256
_cell_angle_alpha   103.67544429
_cell_angle_beta   90.00505120
_cell_angle_gamma   107.77415067
_symmetry_Int_Tables_number   1
_chemical_formula_structural   CdNiH66(C19N5)2
_chemical_formula_sum   'Cd2 Ni2 H132 C76 N20'
_cell_volume   2084.45004071
_cell_formula_units_Z   2
loop_
 _symmetry_equiv_pos_site_id
 _symmetry_equiv_pos_as_xyz
  1  'x, y, z'
loop_
 _atom_site_type_symbol
 _atom_site_label
 _atom_site_symmetry_multiplicity
 _atom_site_fract_x
 _atom_site_fract_y
 _atom_site_fract_z
 _atom_site_occupancy
 _atom_site_pbe_bader_charge
 _atom_site_pbe_bader_spin_density
 _atom_site_pbe_cm5_charge
 _atom_site_pbe_ddec_charge
 _atom_site_pbe_ddec_spin_density
 _atom_site_pbe_ddec_sum_bond_order
 _atom_site_pbe_magmom
Cd  Cd0  1  0.99999968  0.99999996  0.00000027  1  1.186793  0  0.765066  0.800704  0  2.239337  0
Cd  Cd1  1  0.99999929  0.00000113  0.50000029  1  1.187089  0  0.765385  0.801151  0  2.239799  0
Ni  Ni2  1  0.65080761  0.00029260  0.75006054  1  0.666277  0  0.402395  0.141338  0  3.883553  0
Ni  Ni3  1  0.34918745  0.99970315  0.24994412  1  0.666349  0  0.402426  0.141198  0  3.883579  0
H  H4  1  0.81088885  0.83862693  0.06139765  1  0.410536  0  0.281389  0.256964  0  1.001338  0
H  H5  1  0.97222459  0.16127879  0.43857967  1  0.407773  0  0.280911  0.257238  0  1.001605  0
H  H6  1  0.18911217  0.16137408  0.93860227  1  0.410788  0  0.281379  0.256952  0  1.001365  0
H  H7  1  0.02777792  0.83872297  0.56141924  1  0.407831  0  0.280938  0.257263  0  1.001608  0
H  H8  1  0.72729495  0.92492895  0.07395400  1  0.448078  0  0.279099  0.265355  0  1.019468  0
H  H9  1  0.80220140  0.07499773  0.42607924  1  0.441152  0  0.279209  0.265565  0  1.019412  0
H  H10  1  0.27270459  0.07506909  0.92604645  1  0.448037  0  0.27908  0.265278  0  1.019546  0
H  H11  1  0.19779740  0.92500328  0.57392009  1  0.441148  0  0.279223  0.265557  0  1.019418  0
H  H12  1  0.61143479  0.86592501  0.93722795  1  0.04378  0  0.100061  0.075554  0  0.978228  0
H  H13  1  0.74537426  0.13406077  0.56270726  1  0.050857  0  0.100236  0.075742  0  0.979287  0
H  H14  1  0.38856957  0.13407601  0.06277139  1  0.043744  0  0.100096  0.075577  0  0.978205  0
H  H15  1  0.25462676  0.86594023  0.43729265  1  0.050868  0  0.100257  0.075755  0  0.979233  0
H  H16  1  0.54629083  0.77966533  0.99670124  1  0.024779  0  0.090675  0.053049  0  1.003373  0
H  H17  1  0.76711985  0.22050442  0.50337178  1  0.013038  0  0.090685  0.053283  0  1.004742  0
H  H18  1  0.45371169  0.22033424  0.00329660  1  0.024746  0  0.090686  0.053001  0  1.00346  0
H  H19  1  0.23287638  0.77949587  0.49662681  1  0.013101  0  0.090706  0.053269  0  1.004741  0
H  H20  1  0.79463037  0.78098893  0.87370313  1  0.021696  0  0.087733  0.081703  0  1.009355  0
H  H21  1  0.01349411  0.21863180  0.62646093  1  0.000928  0  0.087676  0.081628  0  1.010426  0
H  H22  1  0.20537252  0.21900914  0.12629556  1  0.02196  0  0.087713  0.081664  0  1.009276  0
H  H23  1  0.98650432  0.78136847  0.37353883  1  0.000908  0  0.087699  0.081647  0  1.010469  0
H  H24  1  0.75868612  0.70579551  0.94327333  1  0.012001  0  0.087453  0.079765  0  1.009479  0
H  H25  1  0.05342602  0.29392809  0.55696729  1  0.023581  0  0.087276  0.079473  0  1.009389  0
H  H26  1  0.24131381  0.29420332  0.05672435  1  0.012044  0  0.087453  0.079747  0  1.009482  0
H  H27  1  0.94657279  0.70607294  0.44303146  1  0.023611  0  0.087269  0.079489  0  1.009354  0
H  H28  1  0.52249267  0.70219334  0.81145533  1  0.000374  0  0.085479  0.076497  0  0.987  0
H  H29  1  0.82065842  0.29760570  0.68869655  1  0.011596  0  0.085386  0.075749  0  0.987948  0
H  H30  1  0.47750876  0.29780625  0.18854134  1  0.000376  0  0.085483  0.076517  0  0.987072  0
H  H31  1  0.17934298  0.70239828  0.31130225  1  0.011538  0  0.085379  0.07576  0  0.98798  0
H  H32  1  0.47455583  0.63474091  0.88564713  1  0.012127  0  0.084074  0.071552  0  1.011671  0
H  H33  1  0.83996260  0.36486787  0.61437631  1  -0.023876  0  0.084276  0.071761  0  1.011124  0
H  H34  1  0.52544595  0.36525939  0.11435087  1  0.012133  0  0.084038  0.071539  0  1.011653  0
H  H35  1  0.16003694  0.63513461  0.38562335  1  -0.024406  0  0.084273  0.071736  0  1.0112  0
H  H36  1  0.67279811  0.54944138  0.83712208  1  -0.01612  0  0.080465  0.066798  0  1.015495  0
H  H37  1  0.12350647  0.45054098  0.66286217  1  -0.015882  0  0.081019  0.067179  0  1.015673  0
H  H38  1  0.32720549  0.45056035  0.16287858  1  -0.016091  0  0.080474  0.06679  0  1.015514  0
H  H39  1  0.87649306  0.54946148  0.33713865  1  -0.015884  0  0.081012  0.067184  0  1.015646  0
H  H40  1  0.71770566  0.61518983  0.76165889  1  0.028648  0  0.083396  0.077319  0  1.020286  0
H  H41  1  0.10289790  0.38494533  0.73842616  1  0.033971  0  0.083229  0.077242  0  1.019701  0
H  H42  1  0.28229759  0.38480898  0.23834055  1  0.028636  0  0.083412  0.077331  0  1.020227  0
H  H43  1  0.89710127  0.61505641  0.26157392  1  0.034323  0  0.083239  0.077277  0  1.019703  0
H  H44  1  0.43703093  0.53873782  0.70216321  1  -0.006641  0  0.08061  0.066443  0  1.001107  0
H  H45  1  0.89801706  0.46096868  0.79758555  1  -0.000342  0  0.080444  0.06589  0  1.002497  0
H  H46  1  0.56297084  0.46126245  0.29783655  1  -0.00666  0  0.080631  0.066433  0  1.00112  0
H  H47  1  0.10198580  0.53903378  0.20241528  1  -0.000218  0  0.080451  0.06586  0  1.00251  0
H  H48  1  0.39679551  0.47140755  0.77686571  1  0.023159  0  0.084228  0.077138  0  1.010456  0
H  H49  1  0.92522333  0.52829912  0.72289396  1  0.018387  0  0.084307  0.07705  0  1.010669  0
H  H50  1  0.60320884  0.52859123  0.22313490  1  0.023104  0  0.084224  0.077124  0  1.010494  0
H  H51  1  0.07477324  0.47170409  0.27710643  1  0.018449  0  0.084315  0.077032  0  1.010721  0
H  H52  1  0.63678558  0.45831010  0.65020093  1  -0.000916  0  0.083739  0.075684  0  1.021011  0
H  H53  1  0.17817860  0.54166191  0.84982853  1  -0.001923  0  0.084192  0.076305  0  1.019848  0
H  H54  1  0.36321730  0.54169017  0.34979882  1  -0.000753  0  0.083747  0.07563  0  1.021065  0
H  H55  1  0.82182538  0.45833834  0.15017240  1  -0.001887  0  0.084158  0.076245  0  1.019859  0
H  H56  1  0.60322948  0.39264914  0.72553638  1  0.010375  0  0.084563  0.075122  0  1.008128  0
H  H57  1  0.21020901  0.60745017  0.77454013  1  0.000265  0  0.084414  0.074794  0  1.009568  0
H  H58  1  0.39677341  0.60735115  0.27446221  1  0.010248  0  0.084576  0.075137  0  1.008111  0
H  H59  1  0.78978941  0.39255006  0.22546139  1  0.000212  0  0.084417  0.0748  0  1.009516  0
H  H60  1  0.32991834  0.30567508  0.67001228  1  0.006743  0  0.085551  0.076127  0  1.011095  0
H  H61  1  0.02349935  0.69409759  0.82998881  1  0.002132  0  0.085255  0.076111  0  1.010145  0
H  H62  1  0.67008490  0.69432592  0.32998764  1  0.006689  0  0.085568  0.076217  0  1.011046  0
H  H63  1  0.97650315  0.30590416  0.17001068  1  0.002144  0  0.085255  0.076117  0  1.010145  0
H  H64  1  0.34920170  0.37501381  0.59729074  1  0.00302  0  0.083627  0.073786  0  1.01033  0
H  H65  1  0.97351069  0.62464942  0.90266062  1  -0.001878  0  0.083416  0.07305  0  1.010628  0
H  H66  1  0.65080229  0.62498649  0.40270785  1  0.003006  0  0.083609  0.073767  0  1.010373  0
H  H67  1  0.02649070  0.37535233  0.09733887  1  -0.001922  0  0.083404  0.07304  0  1.010669  0
H  H68  1  0.53926758  0.23570980  0.60490505  1  0.00492  0  0.089082  0.084006  0  1.001511  0
H  H69  1  0.30286323  0.76405733  0.89508225  1  0.026225  0  0.08913  0.08384  0  1.000278  0
H  H70  1  0.46073456  0.76428900  0.39509439  1  0.004941  0  0.089101  0.084025  0  1.001522  0
H  H71  1  0.69713631  0.23594514  0.10491799  1  0.026275  0  0.089093  0.083763  0  1.000271  0
H  H72  1  0.55396694  0.30627801  0.53316458  1  0.003871  0  0.085055  0.074492  0  1.014877  0
H  H73  1  0.24705008  0.69354201  0.96684506  1  0.017465  0  0.084819  0.073539  0  1.014679  0
H  H74  1  0.44603669  0.69372154  0.46683443  1  0.003923  0  0.085063  0.074491  0  1.01481  0
H  H75  1  0.75295280  0.30646051  0.03315284  1  0.017428  0  0.084841  0.073549  0  1.014641  0
H  H76  1  0.38940777  0.14019657  0.46963014  1  0.042866  0  0.099969  0.076376  0  0.976797  0
H  H77  1  0.24866243  0.85953910  0.03038867  1  0.050762  0  0.100059  0.075633  0  0.977062  0
H  H78  1  0.61059435  0.85980221  0.53037047  1  0.042886  0  0.099983  0.076392  0  0.976783  0
H  H79  1  0.75133823  0.14046340  0.96961039  1  0.050761  0  0.100067  0.075632  0  0.977071  0
H  H80  1  0.26900892  0.21637065  0.48544887  1  0.028445  0  0.091316  0.058091  0  1.02531  0
H  H81  1  0.05195421  0.78351301  0.01445211  1  0.032635  0  0.09189  0.059072  0  1.024131  0
H  H82  1  0.73099395  0.78362962  0.51455089  1  0.030608  0  0.091328  0.058101  0  1.025341  0
H  H83  1  0.94804717  0.21648650  0.98554924  1  0.032646  0  0.091872  0.059055  0  1.024126  0
H  H84  1  0.20634530  0.15925876  0.61228607  1  0.411302  0  0.279062  0.251026  0  1.016909  0
H  H85  1  0.04697483  0.84083193  0.88765077  1  0.419369  0  0.2788  0.251012  0  1.015881  0
H  H86  1  0.79365572  0.84074225  0.38771385  1  0.411314  0  0.279024  0.250966  0  1.01689  0
H  H87  1  0.95302175  0.15916684  0.11234984  1  0.419845  0  0.278821  0.251049  0  1.01582  0
H  H88  1  0.30238485  0.08202741  0.58297798  1  0.45589  0  0.278352  0.265607  0  1.027119  0
H  H89  1  0.22034543  0.91793222  0.91709871  1  0.462906  0  0.278385  0.266409  0  1.027011  0
H  H90  1  0.69761542  0.91797431  0.41702327  1  0.455888  0  0.278358  0.265624  0  1.027072  0
H  H91  1  0.77964856  0.08206805  0.08290105  1  0.462985  0  0.278443  0.266565  0  1.027013  0
H  H92  1  0.04985478  0.58317594  0.56030926  1  0.02445  0  0.094518  0.099498  0  1.031762  0
H  H93  1  0.46650315  0.41678724  0.93966926  1  0.042265  0  0.094461  0.099603  0  1.032342  0
H  H94  1  0.95013957  0.41682061  0.43969204  1  0.024313  0  0.094519  0.099524  0  1.03182  0
H  H95  1  0.53349790  0.58321382  0.06032773  1  0.042261  0  0.094435  0.099557  0  1.032244  0
H  H96  1  0.62495841  0.65590433  0.60268696  1  0.059882  0  0.098043  0.101584  0  0.996024  0
H  H97  1  0.96878407  0.34414645  0.89725121  1  0.029016  0  0.098478  0.102297  0  0.995521  0
H  H98  1  0.37503781  0.34409597  0.39731162  1  0.059927  0  0.098029  0.101553  0  0.996039  0
H  H99  1  0.03121396  0.65585524  0.10275121  1  0.029075  0  0.098476  0.102289  0  0.995485  0
H  H100  1  0.77185559  0.80835601  0.70325973  1  0.067808  0  0.09756  0.10593  0  1.02777  0
H  H101  1  0.96299641  0.19171764  0.79660895  1  0.062888  0  0.097498  0.105451  0  1.027002  0
H  H102  1  0.22814433  0.19164502  0.29673902  1  0.067821  0  0.097568  0.105933  0  1.027762  0
H  H103  1  0.03699719  0.80828185  0.20339299  1  0.062652  0  0.097504  0.105463  0  1.026966  0
H  H104  1  0.28904475  0.68240872  0.63189636  1  0.033608  0  0.090637  0.125005  0  1.009896  0
H  H105  1  0.60631098  0.31749517  0.86788664  1  0.023308  0  0.090396  0.124926  0  1.010225  0
H  H106  1  0.71095406  0.31759009  0.36810249  1  0.033643  0  0.09062  0.124997  0  1.009851  0
H  H107  1  0.39368524  0.68250290  0.13211264  1  0.023263  0  0.090379  0.124898  0  1.010184  0
H  H108  1  0.31370060  0.80964163  0.64758801  1  0.043457  0  0.088367  0.119526  0  1.032059  0
H  H109  1  0.50341401  0.19025751  0.85221220  1  0.059247  0  0.088191  0.119547  0  1.033639  0
H  H110  1  0.68629452  0.19035424  0.35241079  1  0.043506  0  0.088368  0.119536  0  1.032062  0
H  H111  1  0.49657851  0.80973982  0.14778692  1  0.059288  0  0.088192  0.119532  0  1.03368  0
H  H112  1  0.27969204  0.75483062  0.73031994  1  0.0529  0  0.091687  0.124197  0  1.014864  0
H  H113  1  0.52423564  0.24509079  0.76949187  1  0.046993  0  0.091827  0.124243  0  1.015994  0
H  H114  1  0.72030974  0.24516748  0.26967758  1  0.052848  0  0.091715  0.124212  0  1.01491  0
H  H115  1  0.47575762  0.75490804  0.23050640  1  0.047011  0  0.091828  0.12423  0  1.015987  0
H  H116  1  0.76635483  0.51981804  0.44901689  1  0.041307  0  0.084124  0.110316  0  1.042847  0
H  H117  1  0.24615588  0.48010433  0.05095798  1  0.038744  0  0.084189  0.110752  0  1.042446  0
H  H118  1  0.23364581  0.48018221  0.55098404  1  0.041288  0  0.084126  0.110303  0  1.042875  0
H  H119  1  0.75384663  0.51989743  0.94904093  1  0.038711  0  0.084207  0.110773  0  1.04247  0
H  H120  1  0.76796953  0.45130047  0.52147047  1  0.021069  0  0.085875  0.111887  0  1.039901  0
H  H121  1  0.31647883  0.54870629  0.97859081  1  0.03046  0  0.085803  0.111917  0  1.040966  0
H  H122  1  0.23202892  0.54869762  0.47852764  1  0.021176  0  0.08587  0.11188  0  1.039906  0
H  H123  1  0.68352516  0.45129620  0.02140825  1  0.030123  0  0.08581  0.111928  0  1.040933  0
H  H124  1  0.61204027  0.49919225  0.51396784  1  -0.000482  0  0.088372  0.121185  0  1.02999  0
H  H125  1  0.11261206  0.50075729  0.98594946  1  0.026503  0  0.08842  0.121801  0  1.030351  0
H  H126  1  0.38795670  0.50080509  0.48603070  1  -0.000399  0  0.088393  0.121205  0  1.030028  0
H  H127  1  0.88739117  0.49924592  0.01405093  1  0.026493  0  0.088434  0.121835  0  1.030282  0
H  H128  1  0.19259144  0.89265932  0.75139856  1  0.480147  0  0.296712  0.290875  0  0.986514  0
H  H129  1  0.29945848  0.10745280  0.74851359  1  0.461049  0  0.297187  0.291338  0  0.98597  0
H  H130  1  0.80741183  0.10733730  0.24859923  1  0.479897  0  0.296711  0.290816  0  0.986369  0
H  H131  1  0.70054143  0.89254822  0.25148574  1  0.461018  0  0.297213  0.291394  0  0.985977  0
H  H132  1  0.01881715  0.91520745  0.77185510  1  0.452371  0  0.293805  0.290954  0  0.995263  0
H  H133  1  0.10313380  0.08483553  0.72798904  1  0.475023  0  0.293397  0.290389  0  0.996603  0
H  H134  1  0.98118313  0.08479207  0.22814508  1  0.452308  0  0.293813  0.290947  0  0.995307  0
H  H135  1  0.89686463  0.91516474  0.27201072  1  0.475056  0  0.293379  0.290452  0  0.996563  0
C  C136  1  0.64904155  0.81842278  0.96849906  1  0.292606  0  -0.077479  0.027941  0  3.934154  0
C  C137  1  0.83072592  0.18152474  0.53151291  1  0.281247  0  -0.077463  0.028147  0  3.936839  0
C  C138  1  0.35096578  0.18157751  0.03149953  1  0.292749  0  -0.077487  0.028006  0  3.934089  0
C  C139  1  0.16926768  0.81847698  0.46848834  1  0.281227  0  -0.077549  0.028146  0  3.936881  0
C  C140  1  0.70371686  0.74315355  0.90861231  1  -0.019276  0  -0.168391  -0.169388  0  3.941058  0
C  C141  1  0.96076429  0.25659570  0.59151653  1  -0.005296  0  -0.168426  -0.16975  0  3.941089  0
C  C142  1  0.29629010  0.25684601  0.09138612  1  -0.019659  0  -0.168333  -0.16923  0  3.940858  0
C  C143  1  0.03923266  0.74340605  0.40848296  1  -0.005374  0  -0.168441  -0.169827  0  3.941189  0
C  C144  1  0.57118404  0.66640816  0.85049515  1  -0.007352  0  -0.166109  -0.140385  0  3.957074  0
C  C145  1  0.90504707  0.33336837  0.64961013  1  0.015338  0  -0.166444  -0.139583  0  3.957635  0
C  C146  1  0.42882144  0.33359288  0.14950301  1  -0.007453  0  -0.166095  -0.140495  0  3.957278  0
C  C147  1  0.09495359  0.66663413  0.35038836  1  0.015969  0  -0.166409  -0.139557  0  3.957748  0
C  C148  1  0.62240121  0.58389517  0.79757993  1  -0.008962  0  -0.169597  -0.147237  0  3.954399  0
C  C149  1  0.03873582  0.41602414  0.70240289  1  -0.012711  0  -0.169464  -0.14637  0  3.954683  0
C  C150  1  0.37760315  0.41610362  0.20242010  1  -0.008874  0  -0.169616  -0.147188  0  3.954439  0
C  C151  1  0.96126150  0.58397614  0.29759629  1  -0.013187  0  -0.169487  -0.146448  0  3.954695  0
C  C152  1  0.49032946  0.50465391  0.74085199  1  -0.012536  0  -0.169403  -0.144059  0  3.956162  0
C  C153  1  0.98558835  0.49518910  0.75901603  1  -0.029033  0  -0.169691  -0.144797  0  3.958962  0
C  C154  1  0.50967528  0.49534564  0.25914702  1  -0.012117  0  -0.169422  -0.144079  0  3.956116  0
C  C155  1  0.01441194  0.50481266  0.24098287  1  -0.029068  0  -0.169682  -0.144715  0  3.958921  0
C  C156  1  0.54550721  0.42450588  0.68700963  1  0.007393  0  -0.169897  -0.148027  0  3.94846  0
C  C157  1  0.12071524  0.57540167  0.81299368  1  0.040561  0  -0.170113  -0.147707  0  3.948546  0
C  C158  1  0.45449568  0.57549443  0.31298837  1  0.006995  0  -0.169935  -0.147978  0  3.948312  0
C  C159  1  0.87928727  0.42459786  0.18700592  1  0.040251  0  -0.170077  -0.147618  0  3.948462  0
C  C160  1  0.41432748  0.34267549  0.63165066  1  -0.016357  0  -0.169073  -0.13871  0  3.941599  0
C  C161  1  0.07106353  0.65709816  0.86834419  1  -0.012738  0  -0.16886  -0.138886  0  3.939408  0
C  C162  1  0.58567687  0.65732551  0.36834926  1  -0.016374  0  -0.169082  -0.138824  0  3.94166  0
C  C163  1  0.92893971  0.34290286  0.13165515  1  -0.012454  0  -0.168869  -0.138916  0  3.939611  0
C  C164  1  0.47194049  0.26803464  0.57177767  1  -0.01341  0  -0.170476  -0.186277  0  3.96093  0
C  C165  1  0.20328386  0.73177509  0.92825103  1  -0.031011  0  -0.169544  -0.183551  0  3.958863  0
C  C166  1  0.52806462  0.73196564  0.42822150  1  -0.013409  0  -0.170492  -0.186266  0  3.960873  0
C  C167  1  0.79672121  0.26822958  0.07175027  1  -0.030991  0  -0.169504  -0.183458  0  3.958794  0
C  C168  1  0.34062245  0.18529035  0.51692335  1  0.310661  0  -0.078785  0.029112  0  3.919184  0
C  C169  1  0.15478957  0.81453774  0.98304592  1  0.281017  0  -0.079572  0.028528  0  3.919063  0
C  C170  1  0.65937894  0.81470917  0.48307683  1  0.308462  0  -0.078799  0.029067  0  3.919116  0
C  C171  1  0.84520996  0.18546251  0.01695501  1  0.28104  0  -0.079595  0.028523  0  3.918981  0
C  C172  1  0.79203602  0.99137616  0.82298154  1  0.790231  0  0.020257  0.033987  0  3.847118  0
C  C173  1  0.80089696  0.00875265  0.67711472  1  0.75333  0  0.019862  0.033032  0  3.847868  0
C  C174  1  0.20796317  0.00861231  0.17701801  1  0.790676  0  0.020223  0.03392  0  3.847409  0
C  C175  1  0.19909220  0.99123797  0.32288824  1  0.753679  0  0.019946  0.033131  0  3.847953  0
C  C176  1  0.50147803  0.99404149  0.82390021  1  0.746328  0  0.00278  0.001967  0  3.892804  0
C  C177  1  0.50788730  0.00667648  0.67612582  1  0.771137  0  0.003592  0.002301  0  3.892616  0
C  C178  1  0.49852667  0.00595799  0.17610232  1  0.747105  0  0.002948  0.002315  0  3.893164  0
C  C179  1  0.49211034  0.99332441  0.32387995  1  0.772168  0  0.003525  0.00216  0  3.892908  0
C  C180  1  0.99514206  0.78261738  0.68990782  1  0.355798  0  0.087  0.222716  0  4.105878  0
C  C181  1  0.21208632  0.21744749  0.81001124  1  0.327393  0  0.08724  0.222634  0  4.106511  0
C  C182  1  0.00485932  0.21737990  0.31009364  1  0.356098  0  0.086995  0.222838  0  4.105911  0
C  C183  1  0.78791875  0.78255496  0.18999017  1  0.327951  0  0.087275  0.222682  0  4.106441  0
C  C184  1  0.07431020  0.71798805  0.64815507  1  0.017631  0  -0.025698  0.056642  0  3.975335  0
C  C185  1  0.35601470  0.28205142  0.85173462  1  0.045537  0  -0.025275  0.057144  0  3.975325  0
C  C186  1  0.92568860  0.28200850  0.35184623  1  0.017356  0  -0.025758  0.05649  0  3.975512  0
C  C187  1  0.64398559  0.71795036  0.14826371  1  0.045082  0  -0.025346  0.05702  0  3.975132  0
C  C188  1  0.98794545  0.63268958  0.59145518  1  -0.088028  0  -0.101202  -0.19747  0  3.97007  0
C  C189  1  0.35502912  0.36731173  0.90849368  1  -0.114093  0  -0.101472  -0.198008  0  3.969723  0
C  C190  1  0.01205075  0.36730846  0.40854585  1  -0.087809  0  -0.10116  -0.197414  0  3.970129  0
C  C191  1  0.64497300  0.63269147  0.09150672  1  -0.114147  0  -0.101443  -0.197922  0  3.969531  0
C  C192  1  0.82633985  0.60772622  0.57327703  1  0.025646  0  -0.036451  0.119272  0  4.059971  0
C  C193  1  0.21837220  0.39229175  0.92663996  1  0.006638  0  -0.036216  0.120109  0  4.055367  0
C  C194  1  0.17365709  0.39226886  0.42672454  1  0.026141  0  -0.036479  0.119221  0  4.060035  0
C  C195  1  0.78162476  0.60771001  0.07335895  1  0.006743  0  -0.036241  0.120053  0  4.055308  0
C  C196  1  0.75086324  0.67268021  0.61477580  1  -0.118746  0  -0.100421  -0.140673  0  4.049569  0
C  C197  1  0.07785910  0.32733466  0.88515627  1  -0.060934  0  -0.100963  -0.142226  0  4.049121  0
C  C198  1  0.24913371  0.32731709  0.38522508  1  -0.118892  0  -0.100398  -0.140581  0  4.049519  0
C  C199  1  0.92213931  0.67266778  0.11484573  1  -0.061078  0  -0.100915  -0.142166  0  4.048936  0
C  C200  1  0.83311241  0.75864040  0.67182882  1  -0.022164  0  -0.113005  -0.214597  0  4.027534  0
C  C201  1  0.07401381  0.24136265  0.82810420  1  -0.017179  0  -0.11307  -0.213636  0  4.026409  0
C  C202  1  0.16688676  0.24135914  0.32817078  1  -0.022183  0  -0.113039  -0.21471  0  4.027589  0
C  C203  1  0.92598204  0.75863688  0.17189540  1  -0.017011  0  -0.113104  -0.213679  0  4.026541  0
C  C204  1  0.24753585  0.74218155  0.66522229  1  -0.101449  0  -0.240651  -0.402988  0  3.979699  0
C  C205  1  0.50492230  0.25774853  0.83460202  1  -0.097844  0  -0.2405  -0.403258  0  3.981277  0
C  C206  1  0.75246186  0.25781505  0.33477667  1  -0.10151  0  -0.240644  -0.40297  0  3.979686  0
C  C207  1  0.49507800  0.74225102  0.16539700  1  -0.097873  0  -0.24047  -0.403169  0  3.981235  0
C  C208  1  0.73892044  0.51502497  0.51134306  1  -0.04757  0  -0.241135  -0.412487  0  4.003204  0
C  C209  1  0.22364053  0.48493636  0.98862623  1  -0.085836  0  -0.241322  -0.413987  0  4.004747  0
C  C210  1  0.26107652  0.48497236  0.48865665  1  -0.0481  0  -0.241132  -0.412462  0  4.003354  0
C  C211  1  0.77636309  0.51506540  0.01137267  1  -0.085505  0  -0.241339  -0.414006  0  4.00469  0
N  N212  1  0.77455854  0.88169498  0.03148255  1  -1.147627  0  -0.635473  -0.569487  0  3.330048  0
N  N213  1  0.89279750  0.11823009  0.46851285  1  -1.124901  0  -0.635058  -0.570518  0  3.333481  0
N  N214  1  0.22544285  0.11830455  0.96851764  1  -1.147804  0  -0.635494  -0.56948  0  3.330002  0
N  N215  1  0.10720537  0.88177016  0.53148808  1  -1.124975  0  -0.635067  -0.570491  0  3.333568  0
N  N216  1  0.23797186  0.11905079  0.56116602  1  -1.152171  0  -0.642804  -0.573255  0  3.354486  0
N  N217  1  0.11878475  0.88091560  0.93882550  1  -1.166763  0  -0.642737  -0.574468  0  3.353028  0
N  N218  1  0.76203063  0.88095094  0.43883464  1  -1.152165  0  -0.642789  -0.573209  0  3.354377  0
N  N219  1  0.88121182  0.11908317  0.06117569  1  -1.167211  0  -0.6428  -0.57466  0  3.353089  0
N  N220  1  0.88689883  0.98449539  0.86661795  1  -1.346699  0  -0.364575  -0.363384  0  3.187393  0
N  N221  1  0.90243632  0.01523056  0.63335455  1  -1.327598  0  -0.364108  -0.362564  0  3.188556  0
N  N222  1  0.11311402  0.01550263  0.13338426  1  -1.347141  0  -0.364585  -0.363313  0  3.187552  0
N  N223  1  0.09754990  0.98476751  0.36664473  1  -1.327963  0  -0.364208  -0.362644  0  3.188684  0
N  N224  1  0.40318013  0.99176570  0.86950658  1  -1.328088  0  -0.347758  -0.364032  0  3.078261  0
N  N225  1  0.41185916  0.00873845  0.63042687  1  -1.343664  0  -0.348175  -0.36396  0  3.079291  0
N  N226  1  0.59680972  0.00823073  0.13050058  1  -1.328871  0  -0.347914  -0.364269  0  3.079011  0
N  N227  1  0.58814180  0.99126689  0.36957811  1  -1.344683  0  -0.348126  -0.363863  0  3.079481  0
N  N228  1  0.07445265  0.86530340  0.74927574  1  -1.285274  0  -0.600296  -0.609532  0  3.383425  0
N  N229  1  0.20865415  0.13477334  0.75063580  1  -1.286553  0  -0.600724  -0.609772  0  3.384012  0
N  N230  1  0.92554947  0.13469538  0.25072487  1  -1.285034  0  -0.600268  -0.609447  0  3.383384  0
N  N231  1  0.79133541  0.86522695  0.24936337  1  -1.286608  0  -0.600728  -0.609862  0  3.383933  0
