# generated using pymatgen
data_Dy2H14C18S3O16
_symmetry_space_group_name_H-M   'P 1'
_cell_length_a   5.75353371
_cell_length_b   12.88112891
_cell_length_c   15.99276738
_cell_angle_alpha   80.58504793
_cell_angle_beta   79.70138836
_cell_angle_gamma   77.10348703
_symmetry_Int_Tables_number   1
_chemical_formula_structural   Dy2H14C18S3O16
_chemical_formula_sum   'Dy4 H28 C36 S6 O32'
_cell_volume   1127.25219225
_cell_formula_units_Z   2
loop_
 _symmetry_equiv_pos_site_id
 _symmetry_equiv_pos_as_xyz
  1  'x, y, z'
loop_
 _atom_site_type_symbol
 _atom_site_label
 _atom_site_symmetry_multiplicity
 _atom_site_fract_x
 _atom_site_fract_y
 _atom_site_fract_z
 _atom_site_occupancy
 _atom_site_hle17_bader_spin_density
 _atom_site_hle17_ddec_charge
 _atom_site_hle17_ddec_spin_density
 _atom_site_hle17_ddec_sum_bond_order
 _atom_site_hle17_magmom
 _atom_site_hse06_10hf_bader_spin_density
 _atom_site_hse06_10hf_ddec_charge
 _atom_site_hse06_10hf_ddec_spin_density
 _atom_site_hse06_10hf_ddec_sum_bond_order
 _atom_site_hse06_10hf_magmom
 _atom_site_hse06_bader_spin_density
 _atom_site_hse06_ddec_charge
 _atom_site_hse06_ddec_spin_density
 _atom_site_hse06_ddec_sum_bond_order
 _atom_site_hse06_magmom
 _atom_site_pbe_bader_charge
 _atom_site_pbe_bader_spin_density
 _atom_site_pbe_cm5_charge
 _atom_site_pbe_ddec_charge
 _atom_site_pbe_ddec_spin_density
 _atom_site_pbe_ddec_sum_bond_order
 _atom_site_pbe_magmom
Dy  Dy0  1  0.97439369  0.84735371  0.88780485  1  0  2.295669  0  1.600172  0  0  2.228924  0  1.924653  0  0  2.274982  0  1.882479  0  2.198769  0  1.510726  2.121231  0  2.09295  0
Dy  Dy1  1  0.70886763  0.65264957  0.61225966  1  0  2.295874  0  1.60089  0  0  2.229253  0  1.925435  0  0  2.27533  0  1.883235  0  2.200985  0  1.511282  2.121079  0  2.09446  0
Dy  Dy2  1  0.02560311  0.15264687  0.11219482  1  0  2.295674  0  1.600192  0  0  2.228932  0  1.924677  0  0  2.274993  0  1.882505  0  2.198788  0  1.510742  2.121191  0  2.093056  0
Dy  Dy3  1  0.29113512  0.34735021  0.38773981  1  0  2.295906  0  1.600856  0  0  2.229281  0  1.925402  0  0  2.275356  0  1.8832  0  2.200976  0  1.511273  2.12114  0  2.09437  0
H  H4  1  0.05522344  0.67912781  0.08759756  1  0  0.109614  0  0.955476  0  0  0.11535  0  1.026575  0  0  0.118976  0  1.023218  0  0.095573  0  0.107705  0.113241  0  1.027805  0
H  H5  1  0.82089739  0.82132040  0.41199277  1  0  0.109068  0  0.953864  0  0  0.115075  0  1.024947  0  0  0.118605  0  1.021681  0  0.079437  0  0.10754  0.113066  0  1.026083  0
H  H6  1  0.94476943  0.32087277  0.91240251  1  0  0.109577  0  0.955585  0  0  0.115342  0  1.026652  0  0  0.11897  0  1.023293  0  0.095617  0  0.107701  0.113233  0  1.027882  0
H  H7  1  0.17910344  0.17867858  0.58800729  1  0  0.109067  0  0.953872  0  0  0.115071  0  1.024956  0  0  0.118601  0  1.02169  0  0.079432  0  0.107535  0.113062  0  1.026094  0
H  H8  1  0.13144174  0.49247340  0.18867672  1  0  0.13409  0  0.966075  0  0  0.143524  0  1.025631  0  0  0.147089  0  1.023255  0  0.138597  0  0.110092  0.14082  0  1.027463  0
H  H9  1  0.81224266  0.00796138  0.31101696  1  0  0.134098  0  0.967246  0  0  0.143571  0  1.026551  0  0  0.147157  0  1.024166  0  0.148397  0  0.110017  0.14087  0  1.028375  0
H  H10  1  0.86855613  0.50752799  0.81132497  1  0  0.134078  0  0.966055  0  0  0.143549  0  1.025562  0  0  0.147114  0  1.023185  0  0.138604  0  0.110115  0.140844  0  1.027393  0
H  H11  1  0.18775651  0.99203759  0.68898299  1  0  0.134094  0  0.967251  0  0  0.143563  0  1.026547  0  0  0.147142  0  1.024182  0  0.148402  0  0.110017  0.140862  0  1.028371  0
H  H12  1  0.24260487  0.15237943  0.79500830  1  0  0.121297  0  0.968137  0  0  0.127786  0  1.034129  0  0  0.13167  0  1.031036  0  0.11285  0  0.105871  0.124649  0  1.037155  0
H  H13  1  0.18991933  0.34787626  0.70495929  1  0  0.121746  0  0.967282  0  0  0.127972  0  1.033706  0  0  0.131973  0  1.030469  0  0.105923  0  0.106098  0.124797  0  1.036727  0
H  H14  1  0.75740333  0.84762115  0.20498882  1  0  0.12132  0  0.968078  0  0  0.127773  0  1.034122  0  0  0.131658  0  1.031028  0  0.112902  0  0.105857  0.124637  0  1.037148  0
H  H15  1  0.81008409  0.65212111  0.29503907  1  0  0.121768  0  0.967242  0  0  0.127947  0  1.033716  0  0  0.131944  0  1.030488  0  0.106035  0  0.106088  0.124773  0  1.036733  0
H  H16  1  0.43941370  0.91089781  0.81676992  1  0  0.443096  0  0.85037  0  0  0.410855  0  0.916977  0  0  0.421264  0  0.901542  0  0.634658  0  0.309161  0.403664  0  0.927144  0
H  H17  1  0.16672786  0.58905728  0.68339537  1  0  0.441735  0  0.851703  0  0  0.409608  0  0.918299  0  0  0.420008  0  0.902878  0  0.642085  0  0.308551  0.4024  0  0.928487  0
H  H18  1  0.56059230  0.08910437  0.18323027  1  0  0.44312  0  0.850331  0  0  0.410875  0  0.916947  0  0  0.421284  0  0.901512  0  0.634735  0  0.309177  0.403684  0  0.927114  0
H  H19  1  0.83327270  0.41094089  0.31660540  1  0  0.441739  0  0.851695  0  0  0.40961  0  0.918294  0  0  0.420011  0  0.902872  0  0.642089  0  0.30855  0.402404  0  0.92848  0
H  H20  1  0.42070770  0.81584067  0.76617448  1  0  0.443793  0  0.840558  0  0  0.412222  0  0.91268  0  0  0.422792  0  0.897063  0  0.635221  0  0.312347  0.40458  0  0.923598  0
H  H21  1  0.00257066  0.68399395  0.73405189  1  0  0.443656  0  0.840422  0  0  0.412279  0  0.912327  0  0  0.422849  0  0.896725  0  0.628858  0  0.312395  0.404661  0  0.923188  0
H  H22  1  0.57929272  0.18416152  0.23382599  1  0  0.443766  0  0.840645  0  0  0.412195  0  0.91273  0  0  0.422765  0  0.897114  0  0.635193  0  0.312352  0.404554  0  0.923647  0
H  H23  1  0.99743084  0.31600582  0.26594883  1  0  0.443664  0  0.840426  0  0  0.412287  0  0.912318  0  0  0.422858  0  0.896718  0  0.628881  0  0.312394  0.40467  0  0.923177  0
H  H24  1  0.94442115  0.91649881  0.06101889  1  0  0.446203  0  0.84435  0  0  0.416889  0  0.90637  0  0  0.426788  0  0.891608  0  0.649649  0  0.309774  0.409755  0  0.916624  0
H  H25  1  0.92122856  0.58357916  0.43921598  1  0  0.446111  0  0.844179  0  0  0.416855  0  0.906067  0  0  0.426736  0  0.891334  0  0.647556  0  0.310056  0.409708  0  0.916347  0
H  H26  1  0.05558123  0.08350177  0.93898050  1  0  0.446206  0  0.844347  0  0  0.416889  0  0.906374  0  0  0.426788  0  0.891613  0  0.649621  0  0.309775  0.409754  0  0.916628  0
H  H27  1  0.07877308  0.41641660  0.56078504  1  0  0.446154  0  0.844128  0  0  0.416901  0  0.906007  0  0  0.42678  0  0.891277  0  0.647559  0  0.310038  0.409754  0  0.916287  0
H  H28  1  0.67322008  0.95390037  0.04988164  1  0  0.452395  0  0.824558  0  0  0.427939  0  0.87789  0  0  0.437109  0  0.864661  0  0.650089  0  0.314276  0.4207  0  0.888252  0
H  H29  1  0.67687042  0.54577042  0.45002699  1  0  0.453419  0  0.823589  0  0  0.428973  0  0.876548  0  0  0.438144  0  0.863302  0  0.644952  0  0.314713  0.421717  0  0.886936  0
H  H30  1  0.32678002  0.04610021  0.95011826  1  0  0.4524  0  0.824555  0  0  0.427943  0  0.877886  0  0  0.437113  0  0.864658  0  0.650092  0  0.314267  0.420704  0  0.888249  0
H  H31  1  0.32313499  0.45422293  0.54997513  1  0  0.453316  0  0.823818  0  0  0.428884  0  0.87668  0  0  0.438057  0  0.863431  0  0.644994  0  0.314674  0.421633  0  0.887058  0
C  C32  1  0.46858439  0.74706019  0.98204251  1  0  0.752333  0  3.864593  0  0  0.705408  0  4.158521  0  0  0.742033  0  4.145249  0  1.581558  0  0.23156  0.679716  0  4.163082  0
C  C33  1  0.19656163  0.75300493  0.51786724  1  0  0.754008  0  3.863692  0  0  0.706477  0  4.15806  0  0  0.743136  0  4.144766  0  1.577605  0  0.232213  0.680739  0  4.162656  0
C  C34  1  0.53141206  0.25293798  0.01795530  1  0  0.752186  0  3.864874  0  0  0.705273  0  4.158765  0  0  0.741895  0  4.145493  0  1.58202  0  0.231505  0.679602  0  4.163284  0
C  C35  1  0.80343647  0.24699646  0.48213246  1  0  0.753989  0  3.863771  0  0  0.70646  0  4.158132  0  0  0.743118  0  4.144839  0  1.577625  0  0.232196  0.680713  0  4.162746  0
C  C36  1  0.44193768  0.65073090  0.04379695  1  0  -0.177795  0  3.732869  0  0  -0.161736  0  4.000372  0  0  -0.169776  0  4.021172  0  -0.197544  0  -0.025764  -0.15681  0  3.987906  0
C  C37  1  0.13567633  0.84930450  0.45606534  1  0  -0.178076  0  3.731922  0  0  -0.160773  0  3.99835  0  0  -0.168931  0  4.019296  0  -0.194947  0  -0.025457  -0.155751  0  3.985789  0
C  C38  1  0.55805954  0.34926647  0.95620231  1  0  -0.17782  0  3.73286  0  0  -0.161734  0  4.000325  0  0  -0.169751  0  4.021094  0  -0.197532  0  -0.025797  -0.156813  0  3.987853  0
C  C39  1  0.86432428  0.15069447  0.54393672  1  0  -0.178029  0  3.731895  0  0  -0.160721  0  3.998307  0  0  -0.16887  0  4.019235  0  -0.195143  0  -0.025462  -0.155695  0  3.985748  0
C  C40  1  0.23035923  0.62662910  0.09206088  1  0  -0.093028  0  3.814806  0  0  -0.128715  0  4.093598  0  0  -0.127361  0  4.111277  0  0.019958  0  -0.098153  -0.129076  0  4.080741  0
C  C41  1  0.94821702  0.87369382  0.40767379  1  0  -0.092722  0  3.813564  0  0  -0.129064  0  4.09281  0  0  -0.127554  0  4.110419  0  0.045704  0  -0.098708  -0.129563  0  4.079945  0
C  C42  1  0.76963919  0.37337068  0.90793762  1  0  -0.092964  0  3.814841  0  0  -0.128688  0  4.093619  0  0  -0.127344  0  4.111292  0  0.019953  0  -0.09815  -0.12905  0  4.080762  0
C  C43  1  0.05177785  0.12630917  0.59232825  1  0  -0.092679  0  3.813573  0  0  -0.129029  0  4.092824  0  0  -0.127514  0  4.110423  0  0.045938  0  -0.098684  -0.129528  0  4.079958  0
C  C44  1  0.26970160  0.52821730  0.14562999  1  0  -0.084187  0  3.741936  0  0  -0.119792  0  4.014658  0  0  -0.119644  0  4.032802  0  -0.035369  0  -0.099528  -0.119698  0  4.00262  0
C  C45  1  0.94313841  0.97209036  0.35415818  1  0  -0.084429  0  3.742932  0  0  -0.119603  0  4.015293  0  0  -0.11952  0  4.033552  0  -0.045628  0  -0.09915  -0.119487  0  4.003233  0
C  C46  1  0.73029173  0.47178087  0.85437095  1  0  -0.084216  0  3.741902  0  0  -0.119858  0  4.014618  0  0  -0.119711  0  4.032762  0  -0.035281  0  -0.099533  -0.119761  0  4.002577  0
C  C47  1  0.05686134  0.02791102  0.64584164  1  0  -0.084409  0  3.743022  0  0  -0.11958  0  4.015393  0  0  -0.119502  0  4.033657  0  -0.045727  0  -0.09914  -0.119464  0  4.003331  0
C  C48  1  0.51127588  0.47805649  0.13674121  1  0  -0.161624  0  3.69709  0  0  -0.147112  0  3.968148  0  0  -0.154551  0  3.988582  0  -0.183292  0  -0.022874  -0.142538  0  3.955999  0
C  C49  1  0.12606538  0.02200564  0.36316562  1  0  -0.159724  0  3.696827  0  0  -0.145823  0  3.968569  0  0  -0.153264  0  3.98903  0  -0.198957  0  -0.022603  -0.141253  0  3.956389  0
C  C50  1  0.48871663  0.52194489  0.86325877  1  0  -0.161598  0  3.69707  0  0  -0.147052  0  3.968081  0  0  -0.15449  0  3.988512  0  -0.183299  0  -0.022869  -0.14248  0  3.955931  0
C  C51  1  0.87393151  0.97799655  0.63683662  1  0  -0.159666  0  3.696871  0  0  -0.145784  0  3.968581  0  0  -0.153225  0  3.989049  0  -0.198958  0  -0.022601  -0.141215  0  3.9564  0
C  C52  1  0.62121296  0.37169536  0.17775567  1  0  0.737255  0  3.859182  0  0  0.693218  0  4.146923  0  0  0.729436  0  4.134136  0  1.588562  0  0.232595  0.66724  0  4.152891  0
C  C53  1  0.17106907  0.12829369  0.32215119  1  0  0.736043  0  3.859298  0  0  0.692265  0  4.147136  0  0  0.728493  0  4.134347  0  1.57441  0  0.231559  0.666292  0  4.153072  0
C  C54  1  0.37878228  0.62830362  0.82224467  1  0  0.737304  0  3.859249  0  0  0.693261  0  4.146976  0  0  0.729482  0  4.134181  0  1.588556  0  0.232607  0.667283  0  4.152946  0
C  C55  1  0.82893532  0.87170609  0.67784840  1  0  0.735896  0  3.859376  0  0  0.692177  0  4.147122  0  0  0.728397  0  4.134349  0  1.574452  0  0.231585  0.666205  0  4.153054  0
C  C56  1  0.72084253  0.05872535  0.83975736  1  0  0.656851  0  3.948646  0  0  0.60483  0  4.250845  0  0  0.639471  0  4.241739  0  1.528609  0  0.199136  0.582628  0  4.24848  0
C  C57  1  0.61956203  0.44128699  0.66028578  1  0  0.657476  0  3.950866  0  0  0.605268  0  4.25297  0  0  0.639843  0  4.243873  0  1.525238  0  0.199341  0.583107  0  4.250547  0
C  C58  1  0.27915587  0.94127764  0.16024291  1  0  0.656853  0  3.948665  0  0  0.604805  0  4.25091  0  0  0.639442  0  4.241794  0  1.528655  0  0.199074  0.582605  0  4.248542  0
C  C59  1  0.38044102  0.55871439  0.33971427  1  0  0.657578  0  3.950839  0  0  0.605392  0  4.252901  0  0  0.639964  0  4.243804  0  1.525215  0  0.199381  0.583232  0  4.250482  0
C  C60  1  0.61772603  0.16090782  0.79253366  1  0  -0.142048  0  3.705495  0  0  -0.127264  0  3.973336  0  0  -0.134625  0  3.994292  0  -0.184241  0  -0.021155  -0.12324  0  3.96072  0
C  C61  1  0.57123513  0.33913424  0.70743436  1  0  -0.14107  0  3.705572  0  0  -0.125148  0  3.971489  0  0  -0.132405  0  3.992357  0  -0.177554  0  -0.019951  -0.121244  0  3.959018  0
C  C62  1  0.38227738  0.83909276  0.20746647  1  0  -0.142029  0  3.705426  0  0  -0.127212  0  3.97323  0  0  -0.134568  0  3.994179  0  -0.184207  0  -0.021123  -0.123189  0  3.960614  0
C  C63  1  0.42876171  0.66086715  0.29256659  1  0  -0.141077  0  3.705587  0  0  -0.12516  0  3.971484  0  0  -0.132397  0  3.992324  0  -0.177535  0  -0.01992  -0.121256  0  3.959011  0
C  C64  1  0.38368358  0.19885470  0.77407350  1  0  -0.067233  0  3.698023  0  0  -0.100146  0  3.966516  0  0  -0.099421  0  3.984184  0  0.038679  0  -0.090973  -0.100669  0  3.955511  0
C  C65  1  0.35654739  0.30131505  0.72589561  1  0  -0.068787  0  3.697756  0  0  -0.102083  0  3.966516  0  0  -0.101434  0  3.984003  0  -0.027546  0  -0.092121  -0.102541  0  3.955632  0
C  C66  1  0.61632243  0.80114428  0.22592492  1  0  -0.067311  0  3.698075  0  0  -0.100216  0  3.966582  0  0  -0.09949  0  3.984246  0  0.038625  0  -0.091003  -0.100739  0  3.955578  0
C  C67  1  0.64345512  0.69868714  0.27410100  1  0  -0.068815  0  3.697775  0  0  -0.10206  0  3.966538  0  0  -0.10142  0  3.984027  0  -0.027734  0  -0.092128  -0.102523  0  3.955665  0
S  S68  1  0.68777333  0.55094897  0.06221825  1  0  0.217107  0  2.651519  0  0  0.22132  0  2.975763  0  0  0.220044  0  2.987522  0  0.304396  0  0.131957  0.221071  0  2.968981  0
S  S69  1  0.30073280  0.94885754  0.43778897  1  0  0.216642  0  2.651335  0  0  0.220536  0  2.975491  0  0  0.21929  0  2.987303  0  0.308491  0  0.132002  0.220253  0  2.968675  0
S  S70  1  0.31222317  0.44905000  0.93778085  1  0  0.217119  0  2.651477  0  0  0.221311  0  2.975694  0  0  0.220026  0  2.987442  0  0.304327  0  0.131967  0.221062  0  2.968913  0
S  S71  1  0.69926342  0.05114384  0.56221261  1  0  0.216585  0  2.651302  0  0  0.220478  0  2.975453  0  0  0.219233  0  2.987263  0  0.308535  0  0.131992  0.220195  0  2.968637  0
S  S72  1  0.80039815  0.24995517  0.74998318  1  0  0.235231  0  2.781292  0  0  0.247008  0  3.111872  0  0  0.24509  0  3.125168  0  0.322866  0  0.152994  0.247245  0  3.104834  0
S  S73  1  0.19960454  0.75004702  0.25001678  1  0  0.235244  0  2.781243  0  0  0.247015  0  3.111803  0  0  0.245094  0  3.125088  0  0.322889  0  0.152994  0.247253  0  3.104765  0
O  O74  1  0.32929140  0.88076213  0.79119378  1  0  -0.899225  0  1.921846  0  0  -0.859877  0  2.119186  0  0  -0.878154  0  2.087917  0  -1.242025  0  -0.629967  -0.837785  0  2.145587  0
O  O75  1  0.00098585  0.61911988  0.70893684  1  0  -0.897241  0  1.921645  0  0  -0.858305  0  2.118662  0  0  -0.876569  0  2.087381  0  -1.244826  0  -0.62917  -0.836135  0  2.14513  0
O  O76  1  0.67071361  0.11924086  0.20880695  1  0  -0.899215  0  1.92192  0  0  -0.859882  0  2.119236  0  0  -0.878156  0  2.087969  0  -1.242005  0  -0.629998  -0.837784  0  2.145642  0
O  O77  1  0.99901591  0.38088070  0.29106317  1  0  -0.897266  0  1.921654  0  0  -0.858292  0  2.118634  0  0  -0.876564  0  2.087343  0  -1.244844  0  -0.62917  -0.836129  0  2.1451  0
O  O78  1  0.67957226  0.75389479  0.94336281  1  0  -0.745351  0  2.011435  0  0  -0.707445  0  2.271167  0  0  -0.730685  0  2.255264  0  -1.200226  0  -0.417419  -0.678894  0  2.285562  0
O  O79  1  0.37602496  0.74598722  0.55656182  1  0  -0.746545  0  2.013942  0  0  -0.708553  0  2.273989  0  0  -0.731805  0  2.258052  0  -1.194992  0  -0.418157  -0.679923  0  2.288514  0
O  O80  1  0.32042621  0.24610258  0.05663520  1  0  -0.745281  0  2.011562  0  0  -0.707396  0  2.27132  0  0  -0.730619  0  2.255384  0  -1.200275  0  -0.417356  -0.678842  0  2.285708  0
O  O81  1  0.62397904  0.25400935  0.44343463  1  0  -0.746577  0  2.013943  0  0  -0.708568  0  2.273946  0  0  -0.731835  0  2.258042  0  -1.195019  0  -0.418175  -0.67994  0  2.288476  0
O  O82  1  0.82661250  0.91136925  0.02491961  1  0  -0.918271  0  1.875132  0  0  -0.885288  0  2.069508  0  0  -0.902486  0  2.038674  0  -1.2777  0  -0.635161  -0.862747  0  2.09594  0
O  O83  1  0.76232469  0.58838105  0.47518767  1  0  -0.918617  0  1.874596  0  0  -0.885545  0  2.0685  0  0  -0.90272  0  2.037755  0  -1.270516  0  -0.635716  -0.862977  0  2.095022  0
O  O84  1  0.17338890  0.08863214  0.97508033  1  0  -0.918278  0  1.875109  0  0  -0.885302  0  2.0695  0  0  -0.902502  0  2.038666  0  -1.277663  0  -0.635144  -0.862756  0  2.095941  0
O  O85  1  0.23767736  0.41161471  0.52481471  1  0  -0.918593  0  1.874827  0  0  -0.885507  0  2.068673  0  0  -0.90268  0  2.037928  0  -1.270554  0  -0.635657  -0.862945  0  2.095195  0
O  O86  1  0.27797444  0.81767099  0.97089455  1  0  -0.743535  0  2.011409  0  0  -0.695097  0  2.262908  0  0  -0.720756  0  2.250283  0  -1.198974  0  -0.410748  -0.666655  0  2.273505  0
O  O87  1  0.06494981  0.68257242  0.52907136  1  0  -0.744302  0  2.009455  0  0  -0.696155  0  2.261925  0  0  -0.721802  0  2.24924  0  -1.202707  0  -0.411147  -0.667569  0  2.272466  0
O  O88  1  0.72202099  0.18232718  0.02910252  1  0  -0.743422  0  2.011393  0  0  -0.695  0  2.262887  0  0  -0.720662  0  2.250268  0  -1.199415  0  -0.410714  -0.666558  0  2.273475  0
O  O89  1  0.93504544  0.31742655  0.47092899  1  0  -0.744304  0  2.009617  0  0  -0.696166  0  2.262103  0  0  -0.721812  0  2.249422  0  -1.202689  0  -0.411098  -0.667581  0  2.272646  0
O  O90  1  0.81549284  0.32281231  0.13746564  1  0  -0.737983  0  2.041151  0  0  -0.696996  0  2.293421  0  0  -0.721206  0  2.280502  0  -1.193805  0  -0.401827  -0.669444  0  2.305492  0
O  O91  1  0.27643485  0.17714059  0.36250799  1  0  -0.738043  0  2.03876  0  0  -0.696828  0  2.290292  0  0  -0.721037  0  2.277343  0  -1.179274  0  -0.401528  -0.669211  0  2.30241  0
O  O92  1  0.18450446  0.67718666  0.86253618  1  0  -0.738024  0  2.041288  0  0  -0.697038  0  2.293549  0  0  -0.721249  0  2.280624  0  -1.19384  0  -0.401818  -0.669494  0  2.305619  0
O  O93  1  0.72357540  0.82285999  0.63749061  1  0  -0.737996  0  2.03879  0  0  -0.696791  0  2.290281  0  0  -0.720998  0  2.277336  0  -1.179286  0  -0.401543  -0.669169  0  2.302398  0
O  O94  1  0.51896131  0.33293732  0.25048986  1  0  -0.747925  0  2.02637  0  0  -0.699859  0  2.272306  0  0  -0.725025  0  2.25932  0  -1.210033  0  -0.386221  -0.671346  0  2.283919  0
O  O95  1  0.10268697  0.16705333  0.24939106  1  0  -0.747816  0  2.028598  0  0  -0.699874  0  2.274652  0  0  -0.725084  0  2.26169  0  -1.206701  0  -0.38571  -0.671416  0  2.28623  0
O  O96  1  0.48103688  0.66706246  0.74951063  1  0  -0.747981  0  2.026301  0  0  -0.699921  0  2.272272  0  0  -0.725088  0  2.259283  0  -1.210045  0  -0.38626  -0.671403  0  2.283887  0
O  O97  1  0.89731940  0.83294484  0.75060744  1  0  -0.747778  0  2.028658  0  0  -0.699842  0  2.274643  0  0  -0.72505  0  2.261686  0  -1.206696  0  -0.385724  -0.671391  0  2.286216  0
O  O98  1  0.59358309  0.98659722  0.86839948  1  0  -0.705015  0  2.026166  0  0  -0.649312  0  2.254894  0  0  -0.673354  0  2.24366  0  -1.191773  0  -0.343937  -0.625656  0  2.261173  0
O  O99  1  0.44874936  0.51354179  0.63168210  1  0  -0.706244  0  2.027284  0  0  -0.6505  0  2.255827  0  0  -0.674635  0  2.244931  0  -1.193811  0  -0.345015  -0.626716  0  2.26206  0
O  O100  1  0.40642167  0.01340176  0.13160019  1  0  -0.705017  0  2.026297  0  0  -0.649269  0  2.254961  0  0  -0.673332  0  2.243789  0  -1.191865  0  -0.343892  -0.625622  0  2.261272  0
O  O101  1  0.55125266  0.48645959  0.36831721  1  0  -0.706389  0  2.027374  0  0  -0.650645  0  2.255914  0  0  -0.674772  0  2.244992  0  -1.193828  0  -0.345067  -0.626862  0  2.26215  0
O  O102  1  0.94312512  0.04005830  0.85037859  1  0  -0.704267  0  2.021366  0  0  -0.653513  0  2.263174  0  0  -0.677495  0  2.251481  0  -1.188982  0  -0.368128  -0.628715  0  2.270051  0
O  O103  1  0.83379712  0.45982955  0.64963972  1  0  -0.703657  0  2.021391  0  0  -0.652996  0  2.262914  0  0  -0.676996  0  2.251399  0  -1.18829  0  -0.367702  -0.628166  0  2.269719  0
O  O104  1  0.05687359  0.95994630  0.14962226  1  0  -0.704305  0  2.021439  0  0  -0.653525  0  2.263206  0  0  -0.677529  0  2.251563  0  -1.189017  0  -0.368113  -0.628706  0  2.270049  0
O  O105  1  0.16620759  0.54017183  0.35036044  1  0  -0.703609  0  2.021285  0  0  -0.65298  0  2.262848  0  0  -0.676961  0  2.251282  0  -1.188226  0  -0.367684  -0.628153  0  2.269651  0
