# generated using pymatgen
data_CdH12(C2N)10
_symmetry_space_group_name_H-M   'P 1'
_cell_length_a   7.81682190
_cell_length_b   10.59051104
_cell_length_c   12.78597226
_cell_angle_alpha   103.58698122
_cell_angle_beta   90.59527202
_cell_angle_gamma   108.78257333
_symmetry_Int_Tables_number   1
_chemical_formula_structural   CdH12(C2N)10
_chemical_formula_sum   'Cd2 H24 C40 N20'
_cell_volume   969.79870162
_cell_formula_units_Z   2
loop_
 _symmetry_equiv_pos_site_id
 _symmetry_equiv_pos_as_xyz
  1  'x, y, z'
loop_
 _atom_site_type_symbol
 _atom_site_label
 _atom_site_symmetry_multiplicity
 _atom_site_fract_x
 _atom_site_fract_y
 _atom_site_fract_z
 _atom_site_occupancy
 _atom_site_hle17_bader_spin_density
 _atom_site_hle17_ddec_charge
 _atom_site_hle17_ddec_spin_density
 _atom_site_hle17_ddec_sum_bond_order
 _atom_site_hle17_magmom
 _atom_site_hse06_10hf_bader_spin_density
 _atom_site_hse06_10hf_ddec_charge
 _atom_site_hse06_10hf_ddec_spin_density
 _atom_site_hse06_10hf_ddec_sum_bond_order
 _atom_site_hse06_10hf_magmom
 _atom_site_hse06_bader_spin_density
 _atom_site_hse06_ddec_charge
 _atom_site_hse06_ddec_spin_density
 _atom_site_hse06_ddec_sum_bond_order
 _atom_site_hse06_magmom
 _atom_site_pbe_bader_spin_density
 _atom_site_pbe_cm5_charge
 _atom_site_pbe_ddec_charge
 _atom_site_pbe_ddec_spin_density
 _atom_site_pbe_ddec_sum_bond_order
 _atom_site_pbe_magmom
Cd  Cd0  1  0.50001375  0.00000681  0.49999805  1  0  1.144774  0  1.856818  0  0  0.942506  0  2.355675  0  0  0.992465  0  2.30499  0  0  0.833713  0.907503  0  2.390113  0
Cd  Cd1  1  0.49998505  0.49999529  0.00000726  1  0  1.140883  0  1.883124  0  0  0.942307  0  2.383324  0  0  0.991615  0  2.333652  0  0  0.83376  0.907701  0  2.417349  0
H  H2  1  0.42536152  0.14897381  0.31955922  1  0  0.078708  0  0.971626  0  0  0.087857  0  1.03832  0  0  0.089788  0  1.037948  0  0  0.112816  0.086446  0  1.038672  0
H  H3  1  0.57464977  0.85105201  0.68043818  1  0  0.078677  0  0.97169  0  0  0.087815  0  1.038397  0  0  0.089765  0  1.03801  0  0  0.112785  0.086404  0  1.038753  0
H  H4  1  0.49526356  0.38140887  0.27924853  1  0  0.119078  0  0.95693  0  0  0.123118  0  1.026541  0  0  0.127202  0  1.023603  0  0  0.11202  0.120208  0  1.028646  0
H  H5  1  0.50474678  0.61861490  0.72075394  1  0  0.119123  0  0.956949  0  0  0.12317  0  1.026511  0  0  0.127256  0  1.023572  0  0  0.112059  0.12026  0  1.028615  0
H  H6  1  0.67194247  0.64474913  0.35038621  1  0  0.113955  0  0.940085  0  0  0.125571  0  0.997149  0  0  0.127922  0  0.997257  0  0  0.108895  0.123848  0  0.997239  0
H  H7  1  0.32808027  0.35527650  0.64962295  1  0  0.114116  0  0.940037  0  0  0.125733  0  0.997083  0  0  0.128084  0  0.997192  0  0  0.108968  0.124012  0  0.997172  0
H  H8  1  0.88395533  0.83229495  0.49398581  1  0  0.076197  0  0.978455  0  0  0.088515  0  1.039297  0  0  0.089265  0  1.040488  0  0  0.098135  0.087895  0  1.038588  0
H  H9  1  0.11606376  0.16772557  0.50602938  1  0  0.076224  0  0.978492  0  0  0.088583  0  1.039277  0  0  0.089347  0  1.040437  0  0  0.098181  0.08796  0  1.038566  0
H  H10  1  0.01318824  0.78107611  0.65084780  1  0  0.085031  0  0.959978  0  0  0.096  0  1.022051  0  0  0.097967  0  1.022643  0  0  0.099102  0.094555  0  1.021692  0
H  H11  1  0.98681476  0.21892911  0.34916824  1  0  0.084989  0  0.959628  0  0  0.095884  0  1.021814  0  0  0.097875  0  1.022402  0  0  0.09909  0.094428  0  1.021464  0
H  H12  1  0.92174156  0.53815375  0.66959866  1  0  0.10867  0  0.983194  0  0  0.112362  0  1.054235  0  0  0.115823  0  1.052466  0  0  0.1054  0.109972  0  1.055355  0
H  H13  1  0.07825253  0.46185162  0.33040954  1  0  0.108695  0  0.983245  0  0  0.112388  0  1.054245  0  0  0.115889  0  1.052429  0  0  0.105418  0.109998  0  1.055367  0
H  H14  1  0.45579116  0.19766382  0.87545974  1  0  0.104082  0  0.939307  0  0  0.113148  0  1.002257  0  0  0.115239  0  1.000597  0  0  0.124494  0.111697  0  1.003358  0
H  H15  1  0.54419157  0.80232823  0.12453486  1  0  0.104069  0  0.939509  0  0  0.11312  0  1.002504  0  0  0.115211  0  1.000841  0  0  0.12451  0.11167  0  1.003601  0
H  H16  1  0.37298083  0.93732326  0.79047809  1  0  0.099308  0  0.968371  0  0  0.109632  0  1.031999  0  0  0.111863  0  1.03184  0  0  0.104088  0.108032  0  1.032195  0
H  H17  1  0.62700566  0.06266041  0.20951491  1  0  0.099365  0  0.968256  0  0  0.109655  0  1.031923  0  0  0.111895  0  1.031755  0  0  0.10412  0.108056  0  1.032117  0
H  H18  1  0.22081774  0.69702146  0.80694279  1  0  0.091516  0  0.962367  0  0  0.101899  0  1.023993  0  0  0.10395  0  1.024415  0  0  0.103213  0.100439  0  1.023691  0
H  H19  1  0.77918579  0.30297126  0.19305754  1  0  0.091533  0  0.962265  0  0  0.101946  0  1.023852  0  0  0.103998  0  1.024271  0  0  0.10323  0.10048  0  1.023544  0
H  H20  1  0.05622130  0.85143912  0.11869322  1  0  0.103941  0  0.977648  0  0  0.109534  0  1.045931  0  0  0.112159  0  1.045846  0  0  0.103675  0.107722  0  1.045913  0
H  H21  1  0.94376883  0.14854138  0.88130075  1  0  0.104001  0  0.977701  0  0  0.109598  0  1.045964  0  0  0.112213  0  1.045913  0  0  0.103702  0.107792  0  1.045934  0
H  H22  1  0.15468682  0.11440107  0.19535130  1  0  0.081452  0  0.950518  0  0  0.088032  0  1.020587  0  0  0.090281  0  1.019321  0  0  0.115849  0.086537  0  1.021314  0
H  H23  1  0.84529535  0.88557334  0.80464222  1  0  0.081401  0  0.950502  0  0  0.088011  0  1.020551  0  0  0.090258  0  1.019274  0  0  0.115837  0.086509  0  1.021283  0
H  H24  1  0.06229265  0.65586352  0.96903871  1  0  0.084655  0  0.967338  0  0  0.096632  0  1.026919  0  0  0.09782  0  1.027557  0  0  0.103184  0.095752  0  1.026589  0
H  H25  1  0.93771078  0.34411258  0.03095604  1  0  0.084539  0  0.967336  0  0  0.096551  0  1.026914  0  0  0.097741  0  1.02755  0  0  0.103147  0.095667  0  1.026587  0
C  C26  1  0.51813742  0.24258119  0.37298813  1  0  0.045292  0  3.742044  0  0  0.012803  0  4.002324  0  0  0.013832  0  4.024032  0  0  0.026707  0.01213  0  3.987384  0
C  C27  1  0.48186928  0.75744575  0.62700947  1  0  0.045397  0  3.741594  0  0  0.012909  0  4.001884  0  0  0.013919  0  4.02359  0  0  0.026799  0.012233  0  3.98695  0
C  C28  1  0.55726004  0.37025138  0.35204003  1  0  -0.099127  0  3.68159  0  0  -0.118539  0  3.928589  0  0  -0.121003  0  3.94717  0  0  -0.062365  -0.116761  0  3.915925  0
C  C29  1  0.44274951  0.62977344  0.64796264  1  0  -0.099206  0  3.681396  0  0  -0.118623  0  3.928383  0  0  -0.121092  0  3.946972  0  0  -0.06248  -0.116841  0  3.91573  0
C  C30  1  0.67622618  0.48439204  0.42845788  1  0  0.052695  0  3.778583  0  0  0.067776  0  4.003061  0  0  0.068831  0  4.026337  0  0  0.007348  0.066985  0  3.987408  0
C  C31  1  0.32377398  0.51562361  0.57154921  1  0  0.052621  0  3.778682  0  0  0.067764  0  4.003084  0  0  0.068826  0  4.026355  0  0  0.007369  0.066954  0  3.987469  0
C  C32  1  0.72755168  0.62250381  0.41985018  1  0  -0.102514  0  3.689568  0  0  -0.122242  0  3.935264  0  0  -0.127111  0  3.958519  0  0  -0.08154  -0.118901  0  3.919489  0
C  C33  1  0.27246335  0.37750533  0.58015183  1  0  -0.102714  0  3.6895  0  0  -0.12249  0  3.935245  0  0  -0.127367  0  3.958506  0  0  -0.081577  -0.119142  0  3.919475  0
C  C34  1  0.84576301  0.72591902  0.49963036  1  0  -0.033609  0  3.737041  0  0  -0.050694  0  3.989883  0  0  -0.051902  0  4.014086  0  0  -0.077378  -0.049614  0  3.973231  0
C  C35  1  0.15423318  0.27409359  0.50037769  1  0  -0.033719  0  3.737188  0  0  -0.050836  0  3.990007  0  0  -0.052046  0  4.014232  0  0  -0.077479  -0.049753  0  3.973342  0
C  C36  1  0.91782005  0.69689186  0.59004731  1  0  -0.05031  0  3.739917  0  0  -0.066296  0  3.991349  0  0  -0.069564  0  4.014508  0  0  -0.084082  -0.063959  0  3.975419  0
C  C37  1  0.08219661  0.30312349  0.40995982  1  0  -0.049939  0  3.739432  0  0  -0.065841  0  3.990788  0  0  -0.069144  0  4.013947  0  0  -0.083962  -0.063494  0  3.974847  0
C  C38  1  0.86879592  0.56428238  0.60144062  1  0  -0.114565  0  3.690397  0  0  -0.13389  0  3.937157  0  0  -0.136345  0  3.95737  0  0  -0.076575  -0.132029  0  3.923436  0
C  C39  1  0.13120824  0.43573632  0.39857100  1  0  -0.115026  0  3.690589  0  0  -0.134309  0  3.937306  0  0  -0.136795  0  3.957511  0  0  -0.076792  -0.132439  0  3.923571  0
C  C40  1  0.74631954  0.45550996  0.52096629  1  0  0.143759  0  3.770214  0  0  0.149423  0  4.010648  0  0  0.150346  0  4.032535  0  0  0.111977  0.148524  0  3.996075  0
C  C41  1  0.25368508  0.54450976  0.47904084  1  0  0.143879  0  3.770511  0  0  0.149497  0  4.01092  0  0  0.150416  0  4.032816  0  0  0.112003  0.148596  0  3.996359  0
C  C42  1  0.10494454  0.93499694  0.34254361  1  0  0.495414  0  4.002347  0  0  0.453839  0  4.292994  0  0  0.479897  0  4.303423  0  0  0.303517  0.43598  0  4.285805  0
C  C43  1  0.89510442  0.06501364  0.65744792  1  0  0.495226  0  4.002493  0  0  0.453689  0  4.293148  0  0  0.479746  0  4.303581  0  0  0.303453  0.435835  0  4.28596  0
C  C44  1  0.80814879  0.93096395  0.33097027  1  0  0.501137  0  3.995429  0  0  0.460023  0  4.286177  0  0  0.486325  0  4.296493  0  0  0.304375  0.44198  0  4.279145  0
C  C45  1  0.19190252  0.06904348  0.66901910  1  0  0.501026  0  3.994973  0  0  0.459934  0  4.285753  0  0  0.486223  0  4.296072  0  0  0.304379  0.441906  0  4.278724  0
C  C46  1  0.38676094  0.16945146  0.94475758  1  0  0.085897  0  3.653952  0  0  0.047788  0  3.901151  0  0  0.05464  0  3.91781  0  0  0.070355  0.043287  0  3.889427  0
C  C47  1  0.61320599  0.83052321  0.05523200  1  0  0.086154  0  3.654171  0  0  0.048007  0  3.901469  0  0  0.054863  0  3.918124  0  0  0.070485  0.043511  0  3.889746  0
C  C48  1  0.30488202  0.02993976  0.94709528  1  0  0.026421  0  3.795989  0  0  0.043888  0  4.022887  0  0  0.041803  0  4.046191  0  0  0.001347  0.045219  0  4.007209  0
C  C49  1  0.69510382  0.97003976  0.05289692  1  0  0.026071  0  3.795977  0  0  0.043497  0  4.02296  0  0  0.041407  0  4.046269  0  0  0.001198  0.044825  0  4.007291  0
C  C50  1  0.30623105  0.91730083  0.86224894  1  0  -0.102741  0  3.716816  0  0  -0.124275  0  3.964402  0  0  -0.127187  0  3.986439  0  0  -0.080788  -0.122376  0  3.949538  0
C  C51  1  0.69375750  0.08268176  0.13774465  1  0  -0.10266  0  3.716461  0  0  -0.124149  0  3.964093  0  0  -0.12707  0  3.986124  0  0  -0.080762  -0.122259  0  3.94923  0
C  C52  1  0.22072215  0.78476853  0.87161159  1  0  -0.043653  0  3.718152  0  0  -0.059504  0  3.97014  0  0  -0.061432  0  3.992107  0  0  -0.07681  -0.058003  0  3.954952  0
C  C53  1  0.77925531  0.21522050  0.12837927  1  0  -0.043816  0  3.718104  0  0  -0.059674  0  3.9701  0  0  -0.061601  0  3.992068  0  0  -0.076877  -0.058153  0  3.954886  0
C  C54  1  0.13131484  0.76120185  0.96436500  1  0  -0.028336  0  3.720799  0  0  -0.045309  0  3.972191  0  0  -0.046745  0  3.995538  0  0  -0.072786  -0.044127  0  3.956044  0
C  C55  1  0.86868370  0.23877746  0.03563113  1  0  -0.028181  0  3.720949  0  0  -0.04523  0  3.972425  0  0  -0.046666  0  3.995773  0  0  -0.072811  -0.044042  0  3.956274  0
C  C56  1  0.12827993  0.86950502  0.04820918  1  0  -0.100787  0  3.698179  0  0  -0.119861  0  3.943668  0  0  -0.124049  0  3.966224  0  0  -0.08036  -0.116974  0  3.928247  0
C  C57  1  0.87170813  0.13047654  0.95178029  1  0  -0.100964  0  3.69837  0  0  -0.120028  0  3.94383  0  0  -0.124223  0  3.966376  0  0  -0.080432  -0.117151  0  3.928426  0
C  C58  1  0.21627196  0.00603256  0.04078182  1  0  0.030321  0  3.799515  0  0  0.045592  0  4.025587  0  0  0.045207  0  4.048767  0  0  0.001832  0.045842  0  4.009918  0
C  C59  1  0.78372090  0.99395101  0.95921901  1  0  0.0307  0  3.799219  0  0  0.046013  0  4.025235  0  0  0.045632  0  4.048411  0  0  0.001981  0.046261  0  4.009577  0
C  C60  1  0.22213142  0.12523734  0.12191143  1  0  0.058196  0  3.693531  0  0  0.027115  0  3.95695  0  0  0.031116  0  3.972204  0  0  0.059482  0.024255  0  3.946972  0
C  C61  1  0.77784396  0.87474446  0.87808193  1  0  0.058278  0  3.693388  0  0  0.027191  0  3.956776  0  0  0.031205  0  3.972019  0  0  0.059634  0.02436  0  3.946743  0
C  C62  1  0.88599730  0.57565498  0.16363309  1  0  0.493839  0  4.011214  0  0  0.452027  0  4.302507  0  0  0.478297  0  4.313706  0  0  0.299174  0.434006  0  4.294932  0
C  C63  1  0.11397229  0.42433628  0.83637146  1  0  0.493894  0  4.011728  0  0  0.452073  0  4.303009  0  0  0.478337  0  4.3142  0  0  0.299301  0.434037  0  4.29544  0
C  C64  1  0.18454123  0.58186890  0.16035587  1  0  0.510625  0  3.992016  0  0  0.467284  0  4.281918  0  0  0.494106  0  4.291648  0  0  0.30725  0.448907  0  4.275388  0
C  C65  1  0.81541851  0.41812046  0.83964669  1  0  0.510743  0  3.992175  0  0  0.46738  0  4.282065  0  0  0.494193  0  4.29178  0  0  0.307238  0.448993  0  4.275547  0
N  N66  1  0.58842802  0.22308375  0.46347206  1  0  -0.190695  0  3.254087  0  0  -0.119949  0  3.529022  0  0  -0.132738  0  3.547661  0  0  -0.188641  -0.110866  0  3.515741  0
N  N67  1  0.41157067  0.77692878  0.53652191  1  0  -0.190712  0  3.253798  0  0  -0.119959  0  3.528706  0  0  -0.132748  0  3.547356  0  0  -0.188639  -0.110872  0  3.515424  0
N  N68  1  0.70008053  0.32585574  0.53628147  1  0  -0.147938  0  2.972773  0  0  -0.136806  0  3.239915  0  0  -0.137075  0  3.254206  0  0  -0.165252  -0.136159  0  3.229789  0
N  N69  1  0.29992494  0.67414940  0.46371189  1  0  -0.147775  0  2.972791  0  0  -0.136625  0  3.239909  0  0  -0.136897  0  3.254207  0  0  -0.165142  -0.135976  0  3.229786  0
N  N70  1  0.66328685  0.92956591  0.35705894  1  0  -0.598564  0  2.763023  0  0  -0.552259  0  3.04274  0  0  -0.57344  0  3.045078  0  0  -0.384798  -0.537898  0  3.041341  0
N  N71  1  0.33674854  0.07045118  0.64294786  1  0  -0.598057  0  2.763053  0  0  -0.551739  0  3.042722  0  0  -0.5729  0  3.045043  0  0  -0.3845  -0.537391  0  3.041324  0
N  N72  1  0.24592385  0.93875975  0.37906038  1  0  -0.590132  0  2.813008  0  0  -0.541987  0  3.099759  0  0  -0.563738  0  3.102422  0  0  -0.38087  -0.527223  0  3.097991  0
N  N73  1  0.75412529  0.06125395  0.62093567  1  0  -0.590099  0  2.812885  0  0  -0.541957  0  3.099608  0  0  -0.563714  0  3.102285  0  0  -0.380933  -0.527183  0  3.097813  0
N  N74  1  0.96005772  0.93288641  0.29115308  1  0  -0.469718  0  3.31294  0  0  -0.413428  0  3.579393  0  0  -0.43709  0  3.583338  0  0  -0.311089  -0.396876  0  3.576089  0
N  N75  1  0.03997806  0.06711508  0.70884678  1  0  -0.46988  0  3.312376  0  0  -0.413677  0  3.578917  0  0  -0.437337  0  3.582858  0  0  -0.311261  -0.397128  0  3.575594  0
N  N76  1  0.38572433  0.27374561  0.02488516  1  0  -0.21842  0  3.233645  0  0  -0.148508  0  3.511123  0  0  -0.164472  0  3.530668  0  0  -0.212263  -0.137146  0  3.497211  0
N  N77  1  0.61425950  0.72624331  0.97511119  1  0  -0.21835  0  3.233666  0  0  -0.148401  0  3.511113  0  0  -0.164365  0  3.530658  0  0  -0.212215  -0.13704  0  3.497206  0
N  N78  1  0.30371937  0.25302489  0.11570360  1  0  -0.174215  0  3.022191  0  0  -0.152909  0  3.297305  0  0  -0.158017  0  3.314199  0  0  -0.201544  -0.149287  0  3.285643  0
N  N79  1  0.69626937  0.74696082  0.88429528  1  0  -0.174428  0  3.022456  0  0  -0.153162  0  3.297614  0  0  -0.158276  0  3.31451  0  0  -0.201751  -0.149549  0  3.285955  0
N  N80  1  0.74067008  0.57357721  0.13520735  1  0  -0.60902  0  2.780932  0  0  -0.563756  0  3.066343  0  0  -0.585623  0  3.07005  0  0  -0.39262  -0.548896  0  3.063875  0
N  N81  1  0.25929567  0.42640582  0.86479714  1  0  -0.609129  0  2.781063  0  0  -0.563868  0  3.066474  0  0  -0.585738  0  3.07018  0  0  -0.392794  -0.549004  0  3.06401  0
N  N82  1  0.03657164  0.57593327  0.20606988  1  0  -0.452421  0  3.32466  0  0  -0.394088  0  3.586209  0  0  -0.418197  0  3.590251  0  0  -0.302582  -0.377592  0  3.583197  0
N  N83  1  0.96340626  0.42407031  0.79393632  1  0  -0.452443  0  3.324837  0  0  -0.39405  0  3.586336  0  0  -0.418138  0  3.590368  0  0  -0.30249  -0.377534  0  3.583321  0
N  N84  1  0.32559175  0.58587804  0.12677975  1  0  -0.606335  0  2.810182  0  0  -0.558053  0  3.094052  0  0  -0.580081  0  3.096553  0  0  -0.385664  -0.543239  0  3.092618  0
N  N85  1  0.67437668  0.41410804  0.87321753  1  0  -0.606372  0  2.810437  0  0  -0.558105  0  3.094324  0  0  -0.580133  0  3.096826  0  0  -0.385691  -0.543294  0  3.092902  0
