# generated using pymatgen
data_Ag2H11C7N3O5
_symmetry_space_group_name_H-M   'P 1'
_cell_length_a   4.80401777
_cell_length_b   5.41722161
_cell_length_c   20.29027020
_cell_angle_alpha   89.99632869
_cell_angle_beta   90.00324890
_cell_angle_gamma   104.26050054
_symmetry_Int_Tables_number   1
_chemical_formula_structural   Ag2H11C7N3O5
_chemical_formula_sum   'Ag4 H22 C14 N6 O10'
_cell_volume   511.77146960
_cell_formula_units_Z   2
loop_
 _symmetry_equiv_pos_site_id
 _symmetry_equiv_pos_as_xyz
  1  'x, y, z'
loop_
 _atom_site_type_symbol
 _atom_site_label
 _atom_site_symmetry_multiplicity
 _atom_site_fract_x
 _atom_site_fract_y
 _atom_site_fract_z
 _atom_site_occupancy
 _atom_site_hle17_bader_spin_density
 _atom_site_hle17_ddec_charge
 _atom_site_hle17_ddec_spin_density
 _atom_site_hle17_ddec_sum_bond_order
 _atom_site_hle17_magmom
 _atom_site_hse06_10hf_bader_spin_density
 _atom_site_hse06_10hf_ddec_charge
 _atom_site_hse06_10hf_ddec_spin_density
 _atom_site_hse06_10hf_ddec_sum_bond_order
 _atom_site_hse06_10hf_magmom
 _atom_site_hse06_bader_spin_density
 _atom_site_hse06_ddec_charge
 _atom_site_hse06_ddec_spin_density
 _atom_site_hse06_ddec_sum_bond_order
 _atom_site_hse06_magmom
 _atom_site_pbe_bader_spin_density
 _atom_site_pbe_cm5_charge
 _atom_site_pbe_ddec_charge
 _atom_site_pbe_ddec_spin_density
 _atom_site_pbe_ddec_sum_bond_order
 _atom_site_pbe_magmom
Ag  Ag0  1  0.79675888  0.57829886  0.14328578  1  0  0.540749  0  1.408568  0  0  0.416209  0  1.859798  0  0  0.450648  0  1.800969  0  0  0.426001  0.392022  0  1.900731  0
Ag  Ag1  1  0.20323736  0.42170398  0.64328765  1  0  0.540724  0  1.408651  0  0  0.416141  0  1.859922  0  0  0.450586  0  1.801099  0  0  0.426006  0.391948  0  1.900855  0
Ag  Ag2  1  0.47731638  0.99762168  0.13281644  1  0  0.531694  0  1.427178  0  0  0.407399  0  1.880931  0  0  0.441647  0  1.821888  0  0  0.421533  0.383383  0  1.921946  0
Ag  Ag3  1  0.52266974  0.00238443  0.63281838  1  0  0.531647  0  1.427227  0  0  0.407433  0  1.880978  0  0  0.441676  0  1.821938  0  0  0.421587  0.383413  0  1.921989  0
H  H4  1  0.07295779  0.91343999  0.34873225  1  0  0.108963  0  0.929182  0  0  0.12036  0  0.995399  0  0  0.123215  0  0.993608  0  0  0.09981  0.118313  0  0.996755  0
H  H5  1  0.92705142  0.08655969  0.84873073  1  0  0.108919  0  0.929281  0  0  0.120298  0  0.995522  0  0  0.123156  0  0.993741  0  0  0.099775  0.11825  0  0.996879  0
H  H6  1  0.74691772  0.96676382  0.31597225  1  0  0.111248  0  0.935318  0  0  0.123029  0  0.99887  0  0  0.12519  0  0.998373  0  0  0.098312  0.121473  0  0.999269  0
H  H7  1  0.25309829  0.03324682  0.81597805  1  0  0.11123  0  0.935391  0  0  0.123024  0  0.998939  0  0  0.125201  0  0.998424  0  0  0.098292  0.121463  0  0.999353  0
H  H8  1  0.98670606  0.49676709  0.29523430  1  0  0.082679  0  0.942832  0  0  0.091259  0  1.006261  0  0  0.093566  0  1.004995  0  0  0.115788  0.089569  0  1.007275  0
H  H9  1  0.01331225  0.50324838  0.79523306  1  0  0.082642  0  0.942742  0  0  0.091205  0  1.006247  0  0  0.093508  0  1.004981  0  0  0.115781  0.089515  0  1.007263  0
H  H10  1  0.43954142  0.39320472  0.47468766  1  0  0.082508  0  0.948586  0  0  0.089153  0  1.012061  0  0  0.091994  0  1.009795  0  0  0.11683  0.087035  0  1.013852  0
H  H11  1  0.56045724  0.60679944  0.97469804  1  0  0.082445  0  0.948588  0  0  0.089112  0  1.012061  0  0  0.09195  0  1.0098  0  0  0.116809  0.086993  0  1.013853  0
H  H12  1  0.42386428  0.96101846  0.42947622  1  0  0.056173  0  0.928108  0  0  0.073417  0  0.992828  0  0  0.073703  0  0.99279  0  0  0.098457  0.073094  0  0.99303  0
H  H13  1  0.57611298  0.03897414  0.92947550  1  0  0.056212  0  0.928157  0  0  0.073417  0  0.992884  0  0  0.073705  0  0.992851  0  0  0.09844  0.073095  0  0.993086  0
H  H14  1  0.72745344  0.94793294  0.47839782  1  0  0.073289  0  0.928726  0  0  0.091901  0  0.988476  0  0  0.092503  0  0.988693  0  0  0.104735  0.091362  0  0.988444  0
H  H15  1  0.27252201  0.05205576  0.97839192  1  0  0.073272  0  0.928832  0  0  0.091878  0  0.988566  0  0  0.09249  0  0.988773  0  0  0.104704  0.091336  0  0.988541  0
H  H16  1  0.45417902  0.60695706  0.24469932  1  0  0.304996  0  0.922233  0  0  0.290738  0  0.982504  0  0  0.297698  0  0.978277  0  0  0.287907  0.285735  0  0.9856  0
H  H17  1  0.54583339  0.39305162  0.74470285  1  0  0.304951  0  0.922228  0  0  0.290679  0  0.982513  0  0  0.297645  0  0.978279  0  0  0.287893  0.285677  0  0.985612  0
H  H18  1  0.53751472  0.32671001  0.24107898  1  0  0.285916  0  0.932707  0  0  0.274327  0  0.991862  0  0  0.280032  0  0.988854  0  0  0.285592  0.270207  0  0.994098  0
H  H19  1  0.46250121  0.67330245  0.74107982  1  0  0.285842  0  0.932761  0  0  0.274264  0  0.991877  0  0  0.27997  0  0.988872  0  0  0.285564  0.270142  0  0.994116  0
H  H20  1  0.99127140  0.41268602  0.40476535  1  0  0.309736  0  0.910989  0  0  0.290223  0  0.978697  0  0  0.298447  0  0.972097  0  0  0.308448  0.284368  0  0.983516  0
H  H21  1  0.00873262  0.58730043  0.90476416  1  0  0.309717  0  0.911125  0  0  0.2902  0  0.978827  0  0  0.29842  0  0.97223  0  0  0.308433  0.284343  0  0.983652  0
H  H22  1  0.28902560  0.74730128  0.53270473  1  0  0.28527  0  0.935522  0  0  0.274412  0  0.993071  0  0  0.280186  0  0.989844  0  0  0.2852  0.270254  0  0.995464  0
H  H23  1  0.71095988  0.25270043  0.03269964  1  0  0.285374  0  0.935408  0  0  0.274395  0  0.993084  0  0  0.280167  0  0.989859  0  0  0.285168  0.270238  0  0.995474  0
H  H24  1  0.17805671  0.01497545  0.53179987  1  0  0.294263  0  0.923855  0  0  0.284265  0  0.979349  0  0  0.29029  0  0.976211  0  0  0.287316  0.279902  0  0.981746  0
H  H25  1  0.82192221  0.98502663  0.03180167  1  0  0.294263  0  0.923891  0  0  0.284185  0  0.979504  0  0  0.290214  0  0.976355  0  0  0.287281  0.279822  0  0.9819  0
C  C26  1  0.08575224  0.99521672  0.24546775  1  0  0.671172  0  3.893536  0  0  0.62256  0  4.190582  0  0  0.656168  0  4.185269  0  0  0.188287  0.599702  0  4.193316  0
C  C27  1  0.91426310  0.00478593  0.74546816  1  0  0.670873  0  3.893888  0  0  0.622458  0  4.190704  0  0  0.656073  0  4.185398  0  0  0.188301  0.5996  0  4.193441  0
C  C28  1  0.92348483  0.87600294  0.30677158  1  0  -0.285933  0  3.625983  0  0  -0.327596  0  3.87549  0  0  -0.333786  0  3.88275  0  0  -0.16445  -0.323195  0  3.870323  0
C  C29  1  0.07652833  0.12400473  0.80677433  1  0  -0.285851  0  3.626127  0  0  -0.32752  0  3.875577  0  0  -0.333749  0  3.882887  0  0  -0.164414  -0.32312  0  3.870412  0
C  C30  1  0.80672746  0.58657513  0.29996485  1  0  0.089406  0  3.61214  0  0  0.068403  0  3.845374  0  0  0.069428  0  3.859107  0  0  0.002268  0.067584  0  3.836139  0
C  C31  1  0.19328619  0.41343030  0.79996469  1  0  0.089504  0  3.611824  0  0  0.068444  0  3.84519  0  0  0.069495  0  3.858895  0  0  0.002229  0.067624  0  3.835965  0
C  C32  1  0.63272374  0.48706130  0.36197592  1  0  0.533612  0  3.769477  0  0  0.488756  0  4.066117  0  0  0.517112  0  4.065539  0  0  0.242868  0.469531  0  4.066015  0
C  C33  1  0.36728796  0.51294880  0.86198054  1  0  0.533594  0  3.769275  0  0  0.488725  0  4.065975  0  0  0.517083  0  4.065388  0  0  0.242853  0.469495  0  4.065879  0
C  C34  1  0.63251388  0.31988920  0.47315527  1  0  0.016654  0  3.633294  0  0  0.002196  0  3.866838  0  0  0.000978  0  3.879159  0  0  0.004205  0.003061  0  3.858406  0
C  C35  1  0.36747293  0.68010419  0.97315802  1  0  0.016897  0  3.632988  0  0  0.002386  0  3.866527  0  0  0.001168  0  3.878845  0  0  0.004157  0.003251  0  3.858098  0
C  C36  1  0.53992604  0.02904290  0.47548839  1  0  0.058619  0  3.611921  0  0  -0.007239  0  3.873943  0  0  -0.002572  0  3.886852  0  0  -0.072575  -0.010348  0  3.86512  0
C  C37  1  0.46005208  0.97095300  0.97548674  1  0  0.058305  0  3.612218  0  0  -0.007444  0  3.874081  0  0  -0.002791  0  3.887009  0  0  -0.072623  -0.010554  0  3.865257  0
C  C38  1  0.81805505  0.43445792  0.53245263  1  0  0.606162  0  3.914197  0  0  0.55471  0  4.214697  0  0  0.588014  0  4.208774  0  0  0.188476  0.532042  0  4.217989  0
C  C39  1  0.18192159  0.56553431  0.03245199  1  0  0.606294  0  3.914207  0  0  0.554833  0  4.214753  0  0  0.588135  0  4.208822  0  0  0.188584  0.532162  0  4.218048  0
N  N40  1  0.62164120  0.51978365  0.24156363  1  0  -0.612636  0  3.189541  0  0  -0.540243  0  3.427758  0  0  -0.564866  0  3.430022  0  0  -0.641075  -0.52307  0  3.425955  0
N  N41  1  0.37836912  0.48023039  0.74156657  1  0  -0.61257  0  3.189525  0  0  -0.54011  0  3.42775  0  0  -0.564745  0  3.430018  0  0  -0.641024  -0.522943  0  3.425956  0
N  N42  1  0.77863441  0.41023560  0.41163798  1  0  -0.439369  0  3.288431  0  0  -0.388935  0  3.540202  0  0  -0.410081  0  3.548351  0  0  -0.41491  -0.37448  0  3.534376  0
N  N43  1  0.22137022  0.58974928  0.91163900  1  0  -0.439533  0  3.28849  0  0  -0.389051  0  3.540239  0  0  -0.410189  0  3.548378  0  0  -0.414869  -0.374597  0  3.534418  0
N  N44  1  0.35591332  0.94177943  0.53326922  1  0  -0.602979  0  3.201866  0  0  -0.526605  0  3.446272  0  0  -0.550959  0  3.449206  0  0  -0.646443  -0.509644  0  3.443948  0
N  N45  1  0.64407026  0.05822197  0.03326821  1  0  -0.602983  0  3.202032  0  0  -0.52639  0  3.446424  0  0  -0.550756  0  3.44939  0  0  -0.646302  -0.509423  0  3.444075  0
O  O46  1  0.00493279  0.16269789  0.21405436  1  0  -0.62746  0  1.992454  0  0  -0.575258  0  2.253325  0  0  -0.600379  0  2.241553  0  0  -0.322562  -0.557573  0  2.260781  0
O  O47  1  0.99509019  0.83732454  0.71405636  1  0  -0.627393  0  1.992597  0  0  -0.575252  0  2.253364  0  0  -0.600371  0  2.241588  0  0  -0.322581  -0.557545  0  2.260768  0
O  O48  1  0.30984404  0.91143208  0.23068071  1  0  -0.648366  0  2.108083  0  0  -0.556242  0  2.369877  0  0  -0.589226  0  2.358866  0  0  -0.341423  -0.533191  0  2.376698  0
O  O49  1  0.69015787  0.08856079  0.73068142  1  0  -0.648121  0  2.108256  0  0  -0.55612  0  2.37003  0  0  -0.589105  0  2.359017  0  0  -0.341397  -0.533071  0  2.376852  0
O  O50  1  0.37171579  0.48252735  0.36560362  1  0  -0.572264  0  1.95227  0  0  -0.522894  0  2.177746  0  0  -0.543941  0  2.171247  0  0  -0.304343  -0.508408  0  2.181969  0
O  O51  1  0.62830057  0.51749425  0.86560953  1  0  -0.572106  0  1.952112  0  0  -0.522768  0  2.177625  0  0  -0.543818  0  2.17113  0  0  -0.304294  -0.508268  0  2.18184  0
O  O52  1  0.75274070  0.60683158  0.56497417  1  0  -0.614048  0  2.023837  0  0  -0.565394  0  2.291053  0  0  -0.59025  0  2.278796  0  0  -0.316017  -0.547999  0  2.298942  0
O  O53  1  0.24721988  0.39313071  0.06497345  1  0  -0.614187  0  2.024067  0  0  -0.565531  0  2.291295  0  0  -0.590386  0  2.27903  0  0  -0.316052  -0.548136  0  2.299191  0
O  O54  1  0.03871237  0.34214060  0.54375487  1  0  -0.640029  0  2.111356  0  0  -0.552914  0  2.374118  0  0  -0.584762  0  2.362231  0  0  -0.33829  -0.530737  0  2.381743  0
O  O55  1  0.96127815  0.65786127  0.04375320  1  0  -0.639985  0  2.111398  0  0  -0.552887  0  2.374172  0  0  -0.584727  0  2.362284  0  0  -0.338247  -0.530704  0  2.38179  0
