# generated using pymatgen
data_Zn4H47C55(N7O)3
_symmetry_space_group_name_H-M   'P 1'
_cell_length_a   14.69453516
_cell_length_b   15.13131777
_cell_length_c   14.89286634
_cell_angle_alpha   111.79826400
_cell_angle_beta   110.44857890
_cell_angle_gamma   105.69428433
_symmetry_Int_Tables_number   1
_chemical_formula_structural   Zn4H47C55(N7O)3
_chemical_formula_sum   'Zn4 H47 C55 N21 O3'
_cell_volume   2557.91029153
_cell_formula_units_Z   1
loop_
 _symmetry_equiv_pos_site_id
 _symmetry_equiv_pos_as_xyz
  1  'x, y, z'
loop_
 _atom_site_type_symbol
 _atom_site_label
 _atom_site_symmetry_multiplicity
 _atom_site_fract_x
 _atom_site_fract_y
 _atom_site_fract_z
 _atom_site_occupancy
 _atom_site_pbe_bader_charge
 _atom_site_pbe_bader_spin_density
 _atom_site_pbe_cm5_charge
 _atom_site_pbe_ddec_charge
 _atom_site_pbe_ddec_spin_density
 _atom_site_pbe_ddec_sum_bond_order
 _atom_site_pbe_magmom
Zn  Zn0  1  0.00325027  0.37190348  0.86306713  1  1.199634  0  0.745122  0.646025  0  2.380747  0
Zn  Zn1  1  0.99576059  0.63336579  0.13556420  1  1.197595  0  0.754364  0.622457  0  2.470456  0
Zn  Zn2  1  0.13233848  0.48964581  0.14082799  1  1.201634  0  0.753534  0.651103  0  2.391318  0
Zn  Zn3  1  0.85623129  0.50021393  0.86556401  1  1.186463  0  0.747782  0.599533  0  2.503106  0
H  H4  1  0.84451961  0.14437299  0.81099074  1  0.096559  0  0.115615  0.104446  0  1.015081  0
H  H5  1  0.36716650  0.99799097  0.23180733  1  0.051703  0  0.096998  0.102112  0  0.97869  0
H  H6  1  0.60052472  0.01397219  0.57334106  1  0.034228  0  0.095084  0.094844  0  0.979509  0
H  H7  1  0.51536350  0.07576735  0.57926089  1  0.010704  0  0.096035  0.09802  0  0.97236  0
H  H8  1  0.36321412  0.91133888  0.43559744  1  0.035016  0  0.097805  0.103883  0  0.969869  0
H  H9  1  0.44913784  0.85103672  0.42655734  1  0.033472  0  0.095273  0.097745  0  0.989336  0
H  H10  1  0.66917759  0.99861159  0.44268220  1  0.083811  0  0.124063  0.110924  0  0.935977  0
H  H11  1  0.52226485  0.84704840  0.29604372  1  0.094592  0  0.120533  0.113198  0  0.971507  0
H  H12  1  0.32029731  0.21390516  0.83298570  1  0.039048  0  0.098765  0.101956  0  0.994083  0
H  H13  1  0.21812280  0.55036437  0.41236572  1  0.084737  0  0.122178  0.116171  0  0.988314  0
H  H14  1  0.46464408  0.37928780  0.08512142  1  0.042792  0  0.098828  0.093238  0  1.010294  0
H  H15  1  0.16571501  0.83954263  0.16858075  1  0.123484  0  0.123753  0.115649  0  0.995183  0
H  H16  1  0.48747465  0.23742296  0.83054380  1  0.00567  0  0.09216  0.087751  0  1.002442  0
H  H17  1  0.60807001  0.36781829  0.08777108  1  0.048461  0  0.099302  0.098107  0  0.997168  0
H  H18  1  0.23390921  0.67748865  0.61358219  1  0.046319  0  0.100796  0.122141  0  1.013618  0
H  H19  1  0.07468352  0.76744359  0.74423546  1  0.05511  0  0.105069  0.112076  0  1.008697  0
H  H20  1  0.16098503  0.60245433  0.68834616  1  0.053999  0  0.102428  0.096816  0  0.995591  0
H  H21  1  0.89772927  0.99727880  0.16867040  1  0.074644  0  0.102544  0.104773  0  0.985582  0
H  H22  1  0.77379506  0.85834091  0.91181675  1  0.09678  0  0.102538  0.105333  0  1.018398  0
H  H23  1  0.88656272  0.14257312  0.14552168  1  0.057075  0  0.108345  0.109363  0  0.982316  0
H  H24  1  0.63179098  0.32301841  0.61633782  1  0.063316  0  0.114732  0.101398  0  1.007133  0
H  H25  1  0.82065557  0.14759100  0.61709310  1  0.06731  0  0.119646  0.107812  0  0.992083  0
H  H26  1  0.75037548  0.66204329  0.82608384  1  0.082251  0  0.122464  0.111576  0  0.984238  0
H  H27  1  0.65737768  0.30541031  0.82129450  1  0.062949  0  0.11343  0.097752  0  1.017893  0
H  H28  1  0.98307408  0.31687514  0.17086083  1  0.087453  0  0.11894  0.106337  0  0.99954  0
H  H29  1  0.16593355  0.50242214  0.80844792  1  0.106373  0  0.115829  0.101041  0  1.041203  0
H  H30  1  0.44687929  0.35866726  0.22249770  1  0.034469  0  0.102397  0.062642  0  0.968525  0
H  H31  1  0.30897887  0.25528279  0.14205641  1  0.054532  0  0.105448  0.06701  0  0.961373  0
H  H32  1  0.28854213  0.32233763  0.31199101  1  0.02306  0  0.090407  0.121574  0  1.000678  0
H  H33  1  0.40258577  0.29459669  0.34088881  1  0.031528  0  0.093586  0.127429  0  0.999836  0
H  H34  1  0.42436636  0.42963685  0.39132838  1  0.065808  0  0.094739  0.129764  0  0.991698  0
H  H35  1  0.35261389  0.37894633  0.83747275  1  0.054775  0  0.098436  0.063534  0  1.005728  0
H  H36  1  0.28908329  0.46401839  0.84637690  1  0.022227  0  0.098117  0.055179  0  0.987096  0
H  H37  1  0.95189555  0.84807346  0.18808101  1  0.111532  0  0.120616  0.114686  0  1.006758  0
H  H38  1  0.15819521  0.34720091  0.63684132  1  0.04109  0  0.092612  0.12587  0  0.999789  0
H  H39  1  0.29712497  0.39785350  0.66898220  1  0.046212  0  0.093313  0.124335  0  0.99611  0
H  H40  1  0.22266255  0.26259096  0.62956172  1  0.063736  0  0.095886  0.133127  0  0.988491  0
H  H41  1  0.97540250  0.82697207  0.64598839  1  0.043131  0  0.102966  0.065343  0  0.961449  0
H  H42  1  0.91727723  0.68398391  0.57082104  1  0.047208  0  0.100059  0.059263  0  0.97805  0
H  H43  1  0.84562595  0.67971198  0.38919803  1  0.038708  0  0.087576  0.117881  0  1.004492  0
H  H44  1  0.79834619  0.74862152  0.47357730  1  0.026598  0  0.096081  0.131633  0  0.991539  0
H  H45  1  0.90712424  0.82201653  0.46200435  1  0.067779  0  0.092967  0.137128  0  1.001567  0
H  H46  1  0.98436194  0.68503091  0.83184710  1  0.083697  0  0.120164  0.108724  0  0.996341  0
H  H47  1  0.52708272  0.15670216  0.37304551  1  0.037907  0  0.095282  0.097825  0  0.9842  0
H  H48  1  0.47510489  0.16421921  0.46463594  1  0.016011  0  0.092391  0.089627  0  0.987403  0
H  H49  1  0.32059551  0.00297166  0.32737189  1  0.030977  0  0.095625  0.096821  0  0.978472  0
H  H50  1  0.82598939  0.49416119  0.18391971  1  0.094933  0  0.119417  0.109935  0  0.993725  0
C  C51  1  0.88584624  0.20314098  0.89966468  1  0.425884  0  0.009056  -0.047839  0  3.956963  0
C  C52  1  0.21291766  0.34043994  0.91081659  1  1.032523  0  0.181316  0.301104  0  4.114399  0
C  C53  1  0.02305924  0.63362665  0.83554804  1  0.425455  0  0.0131  -0.043272  0  3.932583  0
C  C54  1  0.80041538  0.45710817  0.09552356  1  0.393618  0  0.010897  -0.051922  0  3.950895  0
C  C55  1  0.29739899  0.69960541  0.19740322  1  0.563426  0  0.093687  0.077991  0  4.094463  0
C  C56  1  0.09715592  0.61716667  0.79941986  1  0.046953  0  -0.03634  0.006425  0  4.106153  0
C  C57  1  0.30702139  0.80310925  0.22460857  1  -0.042266  0  -0.016036  -0.066999  0  3.961924  0
C  C58  1  0.29642241  0.34400912  0.99881126  1  0.050763  0  -0.056288  -0.219151  0  4.125596  0
C  C59  1  0.83891295  0.79273073  0.00695085  1  0.029132  0  -0.036877  0.004641  0  4.133925  0
C  C60  1  0.49439842  0.11223836  0.40782909  1  -0.026905  0  -0.159544  -0.197784  0  3.86963  0
C  C61  1  0.38983589  0.00531617  0.31376115  1  -0.052943  0  -0.159114  -0.196698  0  3.859546  0
C  C62  1  0.69846113  0.37358843  0.00216058  1  0.02775  0  -0.036686  0.013416  0  4.11584  0
C  C63  1  0.61329377  0.02132333  0.39565940  1  0.099051  0  -0.0403  -0.0661  0  3.814916  0
C  C64  1  0.53624877  0.02645075  0.52217459  1  -0.010512  0  -0.156875  -0.189098  0  3.872001  0
C  C65  1  0.58353944  0.09185362  0.47631139  1  0.073206  0  -0.001563  0.114083  0  3.828467  0
C  C66  1  0.17758592  0.59557417  0.39042241  1  0.406041  0  0.006697  -0.076167  0  3.956649  0
C  C67  1  0.40737392  0.90884847  0.31149353  1  0.080842  0  0.00081  0.115077  0  3.818614  0
C  C68  1  0.50763524  0.91424685  0.29493819  1  0.098923  0  -0.045133  -0.07703  0  3.815932  0
C  C69  1  0.43561553  0.91897502  0.42653195  1  -0.026119  0  -0.157772  -0.193636  0  3.857564  0
C  C70  1  0.39581591  0.26591824  0.91414416  1  0.004238  0  -0.108632  -0.113395  0  4.062927  0
C  C71  1  0.38989945  0.32775366  0.00332764  1  -0.06621  0  -0.099381  -0.091349  0  4.05488  0
C  C72  1  0.49611640  0.27406190  0.91366538  1  -0.008582  0  -0.109838  -0.10712  0  4.075522  0
C  C73  1  0.15736340  0.67322689  0.45791707  1  0.05314  0  -0.019406  0.043079  0  4.085863  0
C  C74  1  0.59866732  0.33384308  0.00424104  1  -0.060159  0  -0.096973  -0.120278  0  4.032982  0
C  C75  1  0.11514529  0.73015043  0.61179597  1  0.444549  0  0.078981  0.256823  0  4.099558  0
C  C76  1  0.17633086  0.69864190  0.56797936  1  0.052464  0  -0.135606  -0.308994  0  4.043012  0
C  C77  1  0.10831419  0.72093915  0.70328252  1  -0.028524  0  -0.109467  -0.217654  0  4.0373  0
C  C78  1  0.69269997  0.29453220  0.63230776  1  0.366437  0  -0.000587  -0.068719  0  4.024022  0
C  C79  1  0.12837481  0.64953030  0.73069731  1  -0.022208  0  -0.077825  -0.065502  0  4.020389  0
C  C80  1  0.85987511  0.97967503  0.08240494  1  0.01785  0  -0.104408  -0.112449  0  4.065631  0
C  C81  1  0.81982099  0.87796809  0.99780713  1  -0.089924  0  -0.083402  -0.094206  0  4.007846  0
C  C82  1  0.86526790  0.07072240  0.07073476  1  -0.025193  0  -0.074393  -0.095577  0  3.968644  0
C  C83  1  0.85949902  0.08340196  0.98234914  1  0.139522  0  -0.004999  0.002168  0  4.091587  0
C  C84  1  0.68386643  0.19313642  0.57285756  1  0.039902  0  -0.039063  -0.061351  0  4.049063  0
C  C85  1  0.10376484  0.70401723  0.38409701  1  0.517838  0  0.088044  0.056626  0  4.089367  0
C  C86  1  0.78868536  0.20514925  0.63291981  1  0.429856  0  0.004561  -0.061405  0  4.003296  0
C  C87  1  0.71363611  0.36051701  0.91041648  1  0.431348  0  0.009322  -0.043121  0  3.929942  0
C  C88  1  0.95568085  0.29053132  0.08337702  1  0.392224  0  0.009113  -0.051277  0  3.961576  0
C  C89  1  0.89272795  0.18645366  0.98830962  1  0.031887  0  -0.033143  -0.032206  0  4.099756  0
C  C90  1  0.36555782  0.33709442  0.21457304  1  0.410345  0  -0.060214  0.09918  0  3.884587  0
C  C91  1  0.37030641  0.34662557  0.32110035  1  -0.058558  0  -0.242937  -0.399438  0  3.988657  0
C  C92  1  0.27532622  0.38139297  0.79799086  1  0.408835  0  -0.067385  0.087692  0  3.89358  0
C  C93  1  0.23553380  0.34486780  0.67602399  1  -0.092204  0  -0.243714  -0.399492  0  3.989483  0
C  C94  1  0.38204651  0.67148691  0.23253429  1  0.779045  0  0.176097  0.214281  0  4.060726  0
C  C95  1  0.11517002  0.53973726  0.82352217  1  0.390128  0  0.015009  -0.042433  0  3.941527  0
C  C96  1  0.67270063  0.08234175  0.36055566  1  0.843237  0  0.169718  0.246973  0  3.993861  0
C  C97  1  0.48348640  0.89983819  0.18534126  1  0.817982  0  0.168342  0.247484  0  3.990051  0
C  C98  1  0.95200430  0.75634705  0.56774741  1  0.396499  0  -0.063202  0.086407  0  3.902315  0
C  C99  1  0.87121476  0.75160674  0.46711018  1  -0.056154  0  -0.244468  -0.397595  0  3.971497  0
C  C100  1  0.83555739  0.99766998  0.88014220  1  0.810042  0  0.175944  0.258349  0  4.044728  0
C  C101  1  0.07600877  0.78862949  0.39700261  1  0.835691  0  0.176333  0.232376  0  4.10104  0
C  C102  1  0.19847691  0.78368723  0.17112051  1  0.408398  0  0.011863  -0.052675  0  3.956141  0
C  C103  1  0.27575432  0.38625854  0.08760183  1  1.04315  0  0.184032  0.300624  0  4.13671  0
C  C104  1  0.80307384  0.69266031  0.91420717  1  0.417324  0  0.014582  -0.05183  0  3.986669  0
C  C105  1  0.90645510  0.78926496  0.09891928  1  0.411816  0  0.020069  -0.03684  0  3.922924  0
N  N106  1  0.94170799  0.30831389  0.93973869  1  -0.799365  0  -0.277043  -0.176769  0  3.600241  0
N  N107  1  0.13612251  0.57894913  0.28593100  1  -0.771325  0  -0.253629  -0.148571  0  3.578948  0
N  N108  1  0.79492135  0.36161412  0.72088416  1  -0.7766  0  -0.273812  -0.171376  0  3.557215  0
N  N109  1  0.09047467  0.64480111  0.28117722  1  -0.729044  0  -0.259304  -0.211853  0  3.533597  0
N  N110  1  0.85458106  0.30590636  0.72110619  1  -0.804086  0  -0.266699  -0.171685  0  3.529346  0
N  N111  1  0.81486696  0.43265071  0.94730318  1  -0.81497  0  -0.283987  -0.184772  0  3.641041  0
N  N112  1  0.98481912  0.36203625  0.05270834  1  -0.775172  0  -0.280345  -0.181974  0  3.61515  0
N  N113  1  0.05577076  0.51199792  0.86845155  1  -0.791719  0  -0.278514  -0.177862  0  3.607794  0
N  N114  1  0.45617838  0.65458929  0.26667738  1  -1.112307  0  -0.31484  -0.357212  0  2.69881  0
N  N115  1  0.72139788  0.13300984  0.33484107  1  -1.137163  0  -0.326204  -0.376144  0  2.690799  0
N  N116  1  0.46101201  0.88601386  0.09639199  1  -1.108609  0  -0.321418  -0.369823  0  2.690123  0
N  N117  1  0.13003564  0.67789755  0.11927353  1  -0.745826  0  -0.262145  -0.156503  0  3.591188  0
N  N118  1  0.81825739  0.93154149  0.79482122  1  -1.181602  0  -0.345493  -0.416002  0  2.679675  0
N  N119  1  0.05471249  0.85708565  0.39397631  1  -1.15724  0  -0.334381  -0.40265  0  2.731139  0
N  N120  1  0.18923559  0.40496279  0.05521971  1  -0.816062  0  -0.290568  -0.284273  0  3.557513  0
N  N121  1  0.84564697  0.63504425  0.94734032  1  -0.793745  0  -0.274487  -0.178104  0  3.556069  0
N  N122  1  0.91027482  0.69543738  0.06244980  1  -0.813235  0  -0.268509  -0.16857  0  3.537744  0
N  N123  1  0.15026489  0.37708368  0.94447378  1  -0.815848  0  -0.286216  -0.285131  0  3.539935  0
N  N124  1  0.99841259  0.56913259  0.87484290  1  -0.804743  0  -0.283762  -0.185842  0  3.647852  0
N  N125  1  0.18966904  0.62563468  0.13411442  1  -0.692795  0  -0.251719  -0.203663  0  3.510716  0
N  N126  1  0.86815752  0.49199084  0.06095954  1  -0.774647  0  -0.288895  -0.190605  0  3.662882  0
O  O127  1  0.32715546  0.41060326  0.19491764  1  -1.084129  0  -0.188464  -0.233834  0  2.533552  0
O  O128  1  0.19155897  0.30984439  0.80430393  1  -1.08262  0  -0.20329  -0.256467  0  2.480492  0
O  O129  1  0.04877175  0.76418215  0.55887245  1  -1.057102  0  -0.174318  -0.197422  0  2.530264  0
