# generated using pymatgen
data_Zn2H17C18N2O7
_symmetry_space_group_name_H-M   'P 1'
_cell_length_a   8.35266642
_cell_length_b   9.63722050
_cell_length_c   12.38547405
_cell_angle_alpha   92.19240151
_cell_angle_beta   105.35505180
_cell_angle_gamma   91.22868897
_symmetry_Int_Tables_number   1
_chemical_formula_structural   Zn2H17C18N2O7
_chemical_formula_sum   'Zn4 H34 C36 N4 O14'
_cell_volume   960.17856540
_cell_formula_units_Z   2
loop_
 _symmetry_equiv_pos_site_id
 _symmetry_equiv_pos_as_xyz
  1  'x, y, z'
loop_
 _atom_site_type_symbol
 _atom_site_label
 _atom_site_symmetry_multiplicity
 _atom_site_fract_x
 _atom_site_fract_y
 _atom_site_fract_z
 _atom_site_occupancy
 _atom_site_pbe_bader_charge
 _atom_site_pbe_bader_spin_density
 _atom_site_pbe_cm5_charge
 _atom_site_pbe_ddec_charge
 _atom_site_pbe_ddec_spin_density
 _atom_site_pbe_ddec_sum_bond_order
 _atom_site_pbe_magmom
Zn  Zn0  1  0.33861522  0.10545303  0.68635893  1  1.273364  0  0.673374  0.872692  0  2.297069  0
Zn  Zn1  1  0.66137261  0.89455813  0.31364207  1  1.273381  0  0.673268  0.872546  0  2.297223  0
Zn  Zn2  1  0.67412149  0.06214468  0.53756414  1  1.346793  0  0.66352  0.924464  0  2.328186  0
Zn  Zn3  1  0.32587861  0.93785603  0.46244576  1  1.346767  0  0.663529  0.924533  0  2.328195  0
H  H4  1  0.50175351  0.08336350  0.93973978  1  0.111844  0  0.120636  0.088739  0  0.991499  0
H  H5  1  0.49823836  0.91665349  0.06024534  1  0.111599  0  0.120676  0.088825  0  0.991244  0
H  H6  1  0.73962049  0.21086703  0.07267602  1  0.134487  0  0.110224  0.122929  0  1.017844  0
H  H7  1  0.26039285  0.78912208  0.92729415  1  0.134366  0  0.110279  0.123046  0  1.017889  0
H  H8  1  0.66461987  0.54244607  0.83741901  1  0.123093  0  0.1106  0.120694  0  1.01627  0
H  H9  1  0.33537739  0.45756277  0.16256368  1  0.123088  0  0.1106  0.120626  0  1.016166  0
H  H10  1  0.42784139  0.40212193  0.72054315  1  0.17258  0  0.121779  0.09119  0  1.040871  0
H  H11  1  0.57211678  0.59789670  0.27944856  1  0.172912  0  0.121781  0.09125  0  1.04101  0
H  H12  1  0.10603588  0.68707390  0.40902960  1  0.137479  0  0.119146  0.084806  0  1.030437  0
H  H13  1  0.89398056  0.31290897  0.59096962  1  0.137799  0  0.119211  0.084819  0  1.030394  0
H  H14  1  0.96884152  0.53603347  0.24240809  1  0.065301  0  0.102583  0.107544  0  1.048543  0
H  H15  1  0.03114753  0.46396107  0.75759150  1  0.065374  0  0.102612  0.107616  0  1.048513  0
H  H16  1  0.02971008  0.87688896  0.03838892  1  0.03439  0  0.103276  0.108483  0  1.006903  0
H  H17  1  0.97030814  0.12309935  0.96162812  1  0.034314  0  0.103234  0.108436  0  1.006647  0
H  H18  1  0.16671460  0.01316218  0.21700721  1  0.098063  0  0.120931  0.092873  0  0.982952  0
H  H19  1  0.83328453  0.98682499  0.78300207  1  0.098138  0  0.120917  0.092856  0  0.982824  0
H  H20  1  0.85627426  0.65197023  0.95363931  1  0.071179  0  0.1075  0.091651  0  0.972158  0
H  H21  1  0.14371270  0.34804845  0.04635985  1  0.07132  0  0.107467  0.091571  0  0.972325  0
H  H22  1  0.92368192  0.41473359  0.11502550  1  0.027992  0  0.100717  0.074476  0  1.035285  0
H  H23  1  0.07630004  0.58526637  0.88497276  1  0.027926  0  0.10074  0.074446  0  1.035327  0
H  H24  1  0.13845234  0.40858428  0.38735822  1  0.040452  0  0.101404  0.118008  0  0.987618  0
H  H25  1  0.86155287  0.59140703  0.61263125  1  0.040473  0  0.101427  0.118008  0  0.987412  0
H  H26  1  0.98980666  0.38478732  0.46412367  1  0.03853  0  0.097175  0.10957  0  1.007093  0
H  H27  1  0.01020796  0.61521469  0.53588281  1  0.038572  0  0.097164  0.109626  0  1.007165  0
H  H28  1  0.84169697  0.32935059  0.26789029  1  0.042976  0  0.098916  0.111477  0  0.986374  0
H  H29  1  0.15827915  0.67064899  0.73211195  1  0.04321  0  0.098962  0.111635  0  0.986627  0
H  H30  1  0.00682444  0.22778500  0.24588290  1  0.047631  0  0.096066  0.106593  0  0.998784  0
H  H31  1  0.99317406  0.77220245  0.75413361  1  0.046932  0  0.096009  0.106591  0  0.998656  0
H  H32  1  0.40200788  0.50945770  0.37653195  1  0.041658  0  0.090156  0.096586  0  1.02845  0
H  H33  1  0.59800213  0.49054457  0.62346252  1  0.041483  0  0.090129  0.096615  0  1.028562  0
H  H34  1  0.61867519  0.52942562  0.42798443  1  0.046366  0  0.095929  0.110679  0  1.005669  0
H  H35  1  0.38132844  0.47057248  0.57201033  1  0.046323  0  0.095848  0.11056  0  1.005316  0
H  H36  1  0.50989575  0.90943897  0.65062371  1  0.643623  0  0.267471  0.361188  0  0.998997  0
H  H37  1  0.49010171  0.09056317  0.34938270  1  0.643646  0  0.267476  0.36128  0  0.998858  0
C  C38  1  0.54266363  0.18610221  0.92179543  1  0.401866  0  0.050989  0.097825  0  3.958845  0
C  C39  1  0.45731804  0.81390163  0.07819586  1  0.401573  0  0.05106  0.097796  0  3.95882  0
C  C40  1  0.67606941  0.25826129  0.99487439  1  -0.02891  0  -0.081422  -0.181621  0  3.938397  0
C  C41  1  0.32392533  0.74173567  0.00510192  1  -0.02879  0  -0.081473  -0.181682  0  3.938836  0
C  C42  1  0.73265343  0.38576472  0.96424598  1  0.010046  0  0.013395  0.135998  0  3.94158  0
C  C43  1  0.26732760  0.61424007  0.03573638  1  0.009612  0  0.013178  0.135728  0  3.942215  0
C  C44  1  0.63601350  0.44165698  0.86633368  1  -0.028338  0  -0.080028  -0.175583  0  3.921675  0
C  C45  1  0.36398021  0.55835746  0.13364578  1  -0.026963  0  -0.08003  -0.175501  0  3.921574  0
C  C46  1  0.50177686  0.36400447  0.79900563  1  0.400303  0  0.056116  0.114745  0  3.9127  0
C  C47  1  0.49821177  0.63600847  0.20098836  1  0.399051  0  0.056151  0.114718  0  3.912953  0
C  C48  1  0.08588899  0.72436958  0.32502800  1  0.537749  0  0.058081  0.129398  0  3.945681  0
C  C49  1  0.91412010  0.27561450  0.67497027  1  0.53716  0  0.058061  0.129271  0  3.945252  0
C  C50  1  0.01001666  0.64078629  0.23065911  1  -0.028472  0  -0.091526  -0.193  0  3.957951  0
C  C51  1  0.98998155  0.35921194  0.76934460  1  -0.027998  0  -0.091524  -0.193077  0  3.957828  0
C  C52  1  0.99403493  0.69097383  0.12428654  1  -0.086449  0  0.004004  0.127246  0  3.971057  0
C  C53  1  0.00594624  0.30903292  0.87572685  1  -0.086312  0  0.003965  0.127199  0  3.971289  0
C  C54  1  0.04335632  0.83037030  0.11911074  1  -0.011421  0  -0.093057  -0.196857  0  3.977302  0
C  C55  1  0.95664706  0.16962980  0.88089472  1  -0.011786  0  -0.092945  -0.196704  0  3.977092  0
C  C56  1  0.11927094  0.90686673  0.21737849  1  0.549079  0  0.05329  0.110079  0  3.950839  0
C  C57  1  0.88073144  0.09313650  0.78262712  1  0.549038  0  0.053304  0.109962  0  3.951257  0
C  C58  1  0.94677532  0.59977849  0.01921046  1  -0.008565  0  -0.066813  -0.060713  0  3.742474  0
C  C59  1  0.05323451  0.40022916  0.98079261  1  -0.008751  0  -0.066793  -0.060454  0  3.742438  0
C  C60  1  0.89951005  0.44542170  0.02817628  1  0.015206  0  -0.072335  -0.078197  0  3.755372  0
C  C61  1  0.10048414  0.55458283  0.97181772  1  0.015511  0  -0.072207  -0.077842  0  3.755453  0
C  C62  1  0.17130642  0.22591051  0.48131941  1  1.57285  0  0.222045  0.659917  0  4.102437  0
C  C63  1  0.82869723  0.77409494  0.51868498  1  1.573054  0  0.222184  0.660111  0  4.10233  0
C  C64  1  0.05817332  0.33030888  0.41198340  1  -0.007123  0  -0.164085  -0.276567  0  3.922723  0
C  C65  1  0.94183205  0.66970109  0.58800789  1  -0.00726  0  -0.164148  -0.276705  0  3.922405  0
C  C66  1  0.94010725  0.25885136  0.30793424  1  -0.037885  0  -0.16513  -0.279808  0  3.94991  0
C  C67  1  0.05990546  0.74113838  0.69208943  1  -0.036436  0  -0.165029  -0.279938  0  3.949913  0
C  C68  1  0.85200126  0.13060182  0.33625945  1  1.571042  0  0.211264  0.647043  0  4.114492  0
C  C69  1  0.14799741  0.86939394  0.66376762  1  1.570012  0  0.211182  0.646931  0  4.114047  0
C  C70  1  0.52969273  0.32127888  0.42734300  1  1.585407  0  0.196814  0.630271  0  4.146603  0
C  C71  1  0.47031666  0.67869786  0.57266515  1  1.584927  0  0.196911  0.630151  0  4.146426  0
C  C72  1  0.50826873  0.47666927  0.44241535  1  -0.037857  0  -0.175044  -0.282146  0  3.95614  0
C  C73  1  0.49176454  0.52332714  0.55758357  1  -0.059248  0  -0.175095  -0.282169  0  3.956123  0
N  N74  1  0.46010585  0.23513429  0.82269529  1  -1.249896  0  -0.329501  -0.249145  0  3.551415  0
N  N75  1  0.53987581  0.76488157  0.17730121  1  -1.249843  0  -0.329529  -0.249144  0  3.55153  0
N  N76  1  0.14514095  0.85308657  0.31877287  1  -1.2413  0  -0.318093  -0.217594  0  3.496576  0
N  N77  1  0.85488457  0.14688861  0.68123912  1  -1.241364  0  -0.318214  -0.217489  0  3.496657  0
O  O78  1  0.58842808  0.25934335  0.51852942  1  -1.196201  0  -0.331088  -0.570273  0  2.339802  0
O  O79  1  0.41157705  0.74065662  0.48146736  1  -1.195805  0  -0.33121  -0.570327  0  2.339407  0
O  O80  1  0.49252697  0.26578488  0.32925105  1  -1.195072  0  -0.352828  -0.583173  0  2.091358  0
O  O81  1  0.50747889  0.73419971  0.67075247  1  -1.195242  0  -0.352788  -0.583042  0  2.091378  0
O  O82  1  0.21446276  0.24744418  0.58852437  1  -1.169551  0  -0.325945  -0.571699  0  2.335276  0
O  O83  1  0.78554514  0.75256452  0.41146878  1  -1.169407  0  -0.326023  -0.571805  0  2.334892  0
O  O84  1  0.21657318  0.12808118  0.42741599  1  -1.18172  0  -0.302769  -0.538809  0  2.373943  0
O  O85  1  0.78341460  0.87191460  0.57258191  1  -1.181958  0  -0.302806  -0.538827  0  2.374131  0
O  O86  1  0.85271852  0.11663037  0.43671626  1  -1.176597  0  -0.298892  -0.543582  0  2.305982  0
O  O87  1  0.14729648  0.88336368  0.56328626  1  -1.176117  0  -0.298943  -0.543641  0  2.305186  0
O  O88  1  0.78164873  0.04406154  0.25412710  1  -1.177916  0  -0.344569  -0.585886  0  2.242848  0
O  O89  1  0.21836550  0.95594387  0.74588694  1  -1.178248  0  -0.344487  -0.58577  0  2.242883  0
O  O90  1  0.49443524  0.00544487  0.62089182  1  -1.266992  0  -0.574183  -0.862539  0  2.284342  0
O  O91  1  0.50556252  0.99455684  0.37911865  1  -1.267124  0  -0.574174  -0.86261  0  2.284292  0
