# generated using pymatgen
data_La2H24(CO)15
_symmetry_space_group_name_H-M   'P 1'
_cell_length_a   8.93506992
_cell_length_b   9.86473458
_cell_length_c   16.32792626
_cell_angle_alpha   104.05443397
_cell_angle_beta   103.67059347
_cell_angle_gamma   98.31284109
_symmetry_Int_Tables_number   1
_chemical_formula_structural   La2H24(CO)15
_chemical_formula_sum   'La4 H48 C30 O30'
_cell_volume   1325.03805060
_cell_formula_units_Z   2
loop_
 _symmetry_equiv_pos_site_id
 _symmetry_equiv_pos_as_xyz
  1  'x, y, z'
loop_
 _atom_site_type_symbol
 _atom_site_label
 _atom_site_symmetry_multiplicity
 _atom_site_fract_x
 _atom_site_fract_y
 _atom_site_fract_z
 _atom_site_occupancy
 _atom_site_pbe_bader_charge
 _atom_site_pbe_bader_spin_density
 _atom_site_pbe_cm5_charge
 _atom_site_pbe_ddec_charge
 _atom_site_pbe_ddec_spin_density
 _atom_site_pbe_ddec_sum_bond_order
 _atom_site_pbe_magmom
La  La0  1  0.68951200  0.45596316  0.59112512  1  2.247705  0  1.396329  1.884254  0  2.335212  0
La  La1  1  0.85456151  0.42425271  0.86411487  1  2.257435  0  1.409232  1.905257  0  2.379111  0
La  La2  1  0.31048864  0.54403725  0.40887571  1  2.247719  0  1.396302  1.884168  0  2.33528  0
La  La3  1  0.14543723  0.57574450  0.13588525  1  2.257491  0  1.409221  1.905251  0  2.37905  0
H  H4  1  0.98098269  0.74386855  0.87476708  1  0.603185  0  0.336638  0.413827  0  0.865952  0
H  H5  1  0.10933011  0.71960471  0.95423265  1  0.66052  0  0.301039  0.401025  0  0.935854  0
H  H6  1  0.84477064  0.18756038  0.59113162  1  0.622933  0  0.336861  0.410533  0  0.872757  0
H  H7  1  0.85602188  0.23603820  0.50811693  1  0.635723  0  0.335519  0.414346  0  0.870894  0
H  H8  1  0.37036073  0.03159324  0.59952632  1  0.032867  0  0.09606  0.111383  0  1.002847  0
H  H9  1  0.39096278  0.06693422  0.71379503  1  0.056917  0  0.105141  0.121678  0  0.979642  0
H  H10  1  0.60647064  0.93491596  0.73238275  1  0.073562  0  0.095305  0.089635  0  0.979668  0
H  H11  1  0.43578754  0.82520316  0.64974297  1  0.034014  0  0.093611  0.083088  0  1.020699  0
H  H12  1  0.56292429  0.90379379  0.53619426  1  0.042212  0  0.10589  0.122179  0  0.994078  0
H  H13  1  0.73997364  0.97709993  0.62590216  1  0.070383  0  0.10147  0.116888  0  0.982496  0
H  H14  1  0.52915229  0.12303261  0.99317456  1  0.019228  0  0.098186  0.110034  0  0.992124  0
H  H15  1  0.51547980  0.03209347  0.88427582  1  0.056652  0  0.101558  0.113952  0  0.983925  0
H  H16  1  0.31104439  0.17455891  0.83155970  1  0.049922  0  0.094158  0.087616  0  1.003218  0
H  H17  1  0.24680083  0.05109635  0.88430574  1  0.04036  0  0.090126  0.083266  0  0.974919  0
H  H18  1  0.28546962  0.24396597  0.02077614  1  0.045537  0  0.105664  0.112366  0  0.99383  0
H  H19  1  0.39237925  0.36767763  0.98331761  1  0.072913  0  0.110161  0.129076  0  0.985038  0
H  H20  1  0.52579010  0.77183888  0.85124315  1  0.037181  0  0.103004  0.111716  0  0.988408  0
H  H21  1  0.47787964  0.60573149  0.87131338  1  0.088062  0  0.108297  0.126544  0  0.986897  0
H  H22  1  0.28148693  0.69791271  0.72010573  1  0.035754  0  0.093874  0.082991  0  1.012852  0
H  H23  1  0.23830755  0.70555921  0.82100504  1  0.058412  0  0.091159  0.088805  0  1.0127  0
H  H24  1  0.26059560  0.42890346  0.69398538  1  0.068951  0  0.109131  0.128711  0  0.971999  0
H  H25  1  0.20408954  0.44322078  0.79242813  1  0.074218  0  0.108104  0.12583  0  0.995139  0
H  H26  1  0.66023465  0.42216879  0.39636980  1  0.647862  0  0.299913  0.386616  0  0.961282  0
H  H27  1  0.84869876  0.45772748  0.42992570  1  0.662217  0  0.296714  0.398799  0  0.934465  0
H  H28  1  0.01901721  0.25612864  0.12523136  1  0.602964  0  0.336612  0.413836  0  0.865901  0
H  H29  1  0.89066747  0.28039249  0.04576793  1  0.660515  0  0.301027  0.40099  0  0.935903  0
H  H30  1  0.15523458  0.81244007  0.40887411  1  0.622265  0  0.336822  0.410643  0  0.872715  0
H  H31  1  0.14398143  0.76395904  0.49188809  1  0.635637  0  0.335536  0.414329  0  0.870826  0
H  H32  1  0.62963685  0.96840397  0.40047487  1  0.032876  0  0.096077  0.111428  0  1.002811  0
H  H33  1  0.60904963  0.93306727  0.28620874  1  0.05669  0  0.10513  0.121616  0  0.979732  0
H  H34  1  0.39354002  0.06508762  0.26761497  1  0.073695  0  0.095325  0.089694  0  0.97963  0
H  H35  1  0.56422705  0.17480259  0.35025925  1  0.034829  0  0.09361  0.083092  0  1.020654  0
H  H36  1  0.43708535  0.09620553  0.46380455  1  0.042143  0  0.105901  0.122207  0  0.994086  0
H  H37  1  0.26003575  0.02289831  0.37409584  1  0.07047  0  0.101496  0.116963  0  0.982477  0
H  H38  1  0.47084309  0.87696996  0.00682772  1  0.019433  0  0.098168  0.110044  0  0.99216  0
H  H39  1  0.48451865  0.96790269  0.11572840  1  0.056747  0  0.101593  0.114069  0  0.983883  0
H  H40  1  0.68895512  0.82544149  0.16843915  1  0.049932  0  0.094184  0.087644  0  1.003229  0
H  H41  1  0.75319866  0.94890406  0.11569494  1  0.04034  0  0.09012  0.083259  0  0.974909  0
H  H42  1  0.71452668  0.75603550  0.97922366  1  0.045578  0  0.105653  0.112376  0  0.993809  0
H  H43  1  0.60762114  0.63232172  0.01668427  1  0.072751  0  0.110178  0.12909  0  0.985041  0
H  H44  1  0.47420560  0.22816469  0.14875197  1  0.037185  0  0.10299  0.111686  0  0.988467  0
H  H45  1  0.52211471  0.39427641  0.12868831  1  0.087922  0  0.108345  0.126637  0  0.986876  0
H  H46  1  0.71850940  0.30208874  0.27989040  1  0.035848  0  0.093882  0.082971  0  1.012922  0
H  H47  1  0.76168557  0.29444333  0.17899265  1  0.058478  0  0.091143  0.08879  0  1.012668  0
H  H48  1  0.73940184  0.57109803  0.30601580  1  0.068933  0  0.109118  0.128646  0  0.972023  0
H  H49  1  0.79590881  0.55677963  0.20757179  1  0.074207  0  0.108098  0.125805  0  0.995118  0
H  H50  1  0.33975986  0.57782521  0.60363052  1  0.647599  0  0.299919  0.386626  0  0.96128  0
H  H51  1  0.15129451  0.54226115  0.57007063  1  0.662135  0  0.296689  0.398769  0  0.934518  0
C  C52  1  0.57663756  0.18714011  0.68396929  1  1.562241  0  0.230329  0.678405  0  4.130295  0
C  C53  1  0.45575422  0.04968761  0.66373851  1  -0.019747  0  -0.163427  -0.30153  0  3.913796  0
C  C54  1  0.53027107  0.92012476  0.66590234  1  -0.034655  0  -0.158335  -0.09603  0  3.911203  0
C  C55  1  0.62932038  0.89610434  0.60013127  1  -0.028449  0  -0.158565  -0.299321  0  3.887519  0
C  C56  1  0.66657573  0.74990327  0.58702404  1  1.526738  0  0.21546  0.666563  0  4.114232  0
C  C57  1  0.62545880  0.25008317  0.92154604  1  1.543869  0  0.203722  0.635036  0  4.139052  0
C  C58  1  0.49953142  0.13235142  0.92558058  1  -0.01983  0  -0.160047  -0.292434  0  3.927226  0
C  C59  1  0.33060219  0.15155724  0.89530665  1  -0.018652  0  -0.166242  -0.101285  0  3.968046  0
C  C60  1  0.29522392  0.27271565  0.96088385  1  -0.049686  0  -0.160473  -0.304613  0  3.930133  0
C  C61  1  0.14829445  0.32360909  0.92653862  1  1.541544  0  0.216104  0.654639  0  4.122038  0
C  C62  1  0.56138675  0.59696423  0.75958902  1  1.572405  0  0.237987  0.678599  0  4.102592  0
C  C63  1  0.46555165  0.65879360  0.81892441  1  -0.049906  0  -0.15763  -0.304771  0  3.928016  0
C  C64  1  0.29250231  0.64738088  0.77358048  1  -0.016047  0  -0.164079  -0.103595  0  3.935549  0
C  C65  1  0.20239983  0.49037225  0.73804443  1  -0.06994  0  -0.161301  -0.301765  0  3.889928  0
C  C66  1  0.03376315  0.47455280  0.68677735  1  1.538112  0  0.224775  0.658435  0  4.109347  0
C  C67  1  0.42336057  0.81286880  0.31602508  1  1.562522  0  0.230236  0.678338  0  4.130643  0
C  C68  1  0.54425437  0.95031706  0.33626154  1  -0.019356  0  -0.163432  -0.301522  0  3.914015  0
C  C69  1  0.46973844  0.07987882  0.33409583  1  -0.036058  0  -0.158331  -0.096083  0  3.911167  0
C  C70  1  0.37068862  0.10389711  0.39986653  1  -0.028338  0  -0.158592  -0.299454  0  3.887507  0
C  C71  1  0.33343208  0.25009821  0.41297729  1  1.526582  0  0.21554  0.666727  0  4.114385  0
C  C72  1  0.37453827  0.74991190  0.07845478  1  1.544007  0  0.203798  0.635108  0  4.139088  0
C  C73  1  0.50046459  0.86764902  0.07442271  1  -0.020152  0  -0.160067  -0.292593  0  3.927395  0
C  C74  1  0.66939667  0.84844531  0.10469303  1  -0.018622  0  -0.166289  -0.10129  0  3.968082  0
C  C75  1  0.70477469  0.72728582  0.03911625  1  -0.049562  0  -0.160473  -0.30465  0  3.930101  0
C  C76  1  0.85170530  0.67639239  0.07346102  1  1.541517  0  0.216149  0.654741  0  4.121894  0
C  C77  1  0.43860825  0.40303192  0.24041290  1  1.571614  0  0.238021  0.678603  0  4.10256  0
C  C78  1  0.53444581  0.34120786  0.18107370  1  -0.049956  0  -0.157686  -0.304853  0  3.928049  0
C  C79  1  0.70749514  0.35262059  0.22641885  1  -0.016  0  -0.164044  -0.103522  0  3.935621  0
C  C80  1  0.79759649  0.50962921  0.26195353  1  -0.069975  0  -0.161272  -0.301663  0  3.889952  0
C  C81  1  0.96623430  0.52544867  0.31322260  1  1.538145  0  0.224775  0.658393  0  4.109327  0
O  O82  1  0.03700097  0.67401764  0.89313873  1  -1.249456  0  -0.599835  -0.796278  0  2.021335  0
O  O83  1  0.70242694  0.20977245  0.74606460  1  -1.208659  0  -0.393239  -0.636429  0  2.248778  0
O  O84  1  0.78211387  0.20598110  0.53899915  1  -1.2275  0  -0.576001  -0.761438  0  2.011352  0
O  O85  1  0.54640727  0.27227884  0.63790653  1  -1.202699  0  -0.397566  -0.645755  0  2.258318  0
O  O86  1  0.78780656  0.72778464  0.63598955  1  -1.182849  0  -0.370665  -0.598006  0  2.079831  0
O  O87  1  0.75117184  0.42222677  0.44543141  1  -1.317066  0  -0.640082  -0.839529  0  2.070413  0
O  O88  1  0.56583731  0.64372081  0.52695830  1  -1.219728  0  -0.435274  -0.677528  0  2.315149  0
O  O89  1  0.77084628  0.24095384  0.94598602  1  -1.211041  0  -0.372285  -0.643285  0  2.203128  0
O  O90  1  0.58663848  0.35044885  0.89069565  1  -1.185935  0  -0.364782  -0.592332  0  2.153568  0
O  O91  1  0.11359725  0.42679306  0.97987170  1  -1.222283  0  -0.428983  -0.703686  0  2.329231  0
O  O92  1  0.06224635  0.27072225  0.84813075  1  -1.188061  0  -0.352703  -0.574181  0  2.123172  0
O  O93  1  0.69584443  0.57556029  0.79510214  1  -1.238097  0  -0.388843  -0.675658  0  2.257164  0
O  O94  1  0.50807007  0.57051013  0.67650149  1  -1.20104  0  -0.342596  -0.599952  0  2.299658  0
O  O95  1  0.92074423  0.44049280  0.71894975  1  -1.22214  0  -0.399675  -0.683706  0  2.33367  0
O  O96  1  0.00150321  0.49368456  0.61033331  1  -1.196207  0  -0.338862  -0.598905  0  2.184817  0
O  O97  1  0.96299661  0.32597956  0.10686123  1  -1.249231  0  -0.599811  -0.796271  0  2.021278  0
O  O98  1  0.29759091  0.79024178  0.25393070  1  -1.20887  0  -0.393188  -0.636358  0  2.249178  0
O  O99  1  0.21789453  0.79401829  0.46100869  1  -1.226711  0  -0.575979  -0.761552  0  2.011306  0
O  O100  1  0.45357404  0.72772265  0.36209251  1  -1.202667  0  -0.397555  -0.645723  0  2.258056  0
O  O101  1  0.21219456  0.27220834  0.36401702  1  -1.182993  0  -0.370683  -0.598039  0  2.079954  0
O  O102  1  0.24882282  0.57776294  0.55456710  1  -1.316668  0  -0.640092  -0.839512  0  2.070413  0
O  O103  1  0.43417451  0.35628277  0.47303957  1  -1.219492  0  -0.435333  -0.677664  0  2.315295  0
O  O104  1  0.22915069  0.75903587  0.05401218  1  -1.211074  0  -0.372369  -0.643313  0  2.203142  0
O  O105  1  0.41336113  0.64954730  0.10930689  1  -1.18608  0  -0.364757  -0.592353  0  2.153573  0
O  O106  1  0.88640225  0.57320735  0.02012898  1  -1.222228  0  -0.429017  -0.70377  0  2.32925  0
O  O107  1  0.93775634  0.72928670  0.15186912  1  -1.188069  0  -0.352707  -0.574227  0  2.123107  0
O  O108  1  0.30413999  0.42442516  0.20489624  1  -1.237012  0  -0.388892  -0.675716  0  2.257088  0
O  O109  1  0.49192574  0.42948920  0.32349671  1  -1.201355  0  -0.342585  -0.599908  0  2.29973  0
O  O110  1  0.07925244  0.55951509  0.28105041  1  -1.222107  0  -0.399697  -0.683697  0  2.333547  0
O  O111  1  0.99849504  0.50631048  0.38966399  1  -1.196152  0  -0.338842  -0.598884  0  2.184855  0
