# generated using pymatgen
data_ZnH24PtC24(NO3)4
_symmetry_space_group_name_H-M   'P 1'
_cell_length_a   7.77765805
_cell_length_b   9.10495820
_cell_length_c   9.63748926
_cell_angle_alpha   85.09928128
_cell_angle_beta   80.45221221
_cell_angle_gamma   80.63356540
_symmetry_Int_Tables_number   1
_chemical_formula_structural   ZnH24PtC24(NO3)4
_chemical_formula_sum   'Zn1 H24 Pt1 C24 N4 O12'
_cell_volume   662.85559593
_cell_formula_units_Z   1
loop_
 _symmetry_equiv_pos_site_id
 _symmetry_equiv_pos_as_xyz
  1  'x, y, z'
loop_
 _atom_site_type_symbol
 _atom_site_label
 _atom_site_symmetry_multiplicity
 _atom_site_fract_x
 _atom_site_fract_y
 _atom_site_fract_z
 _atom_site_occupancy
 _atom_site_hle17_bader_spin_density
 _atom_site_hle17_ddec_charge
 _atom_site_hle17_ddec_spin_density
 _atom_site_hle17_ddec_sum_bond_order
 _atom_site_hle17_magmom
 _atom_site_hse06_10hf_bader_spin_density
 _atom_site_hse06_10hf_ddec_charge
 _atom_site_hse06_10hf_ddec_spin_density
 _atom_site_hse06_10hf_ddec_sum_bond_order
 _atom_site_hse06_10hf_magmom
 _atom_site_hse06_bader_spin_density
 _atom_site_hse06_ddec_charge
 _atom_site_hse06_ddec_spin_density
 _atom_site_hse06_ddec_sum_bond_order
 _atom_site_hse06_magmom
 _atom_site_pbe_bader_spin_density
 _atom_site_pbe_cm5_charge
 _atom_site_pbe_ddec_charge
 _atom_site_pbe_ddec_spin_density
 _atom_site_pbe_ddec_sum_bond_order
 _atom_site_pbe_magmom
Zn  Zn0  1  0.50000166  0.49999780  0.50000495  1  0  1.192292  0  1.692892  0  0  1.04605  0  2.127836  0  0  1.092985  0  2.067427  0  0  0.654676  1.012008  0  2.170719  0
H  H1  1  0.94372364  0.26065310  0.79211130  1  0  0.095595  0  0.981749  0  0  0.099647  0  1.054726  0  0  0.103398  0  1.050087  0  0  0.117731  0.09652  0  1.05862  0
H  H2  1  0.05628130  0.73935057  0.20788024  1  0  0.095605  0  0.981782  0  0  0.099676  0  1.054744  0  0  0.10342  0  1.050101  0  0  0.117751  0.096553  0  1.058631  0
H  H3  1  0.07270313  0.32245708  0.53946632  1  0  0.112885  0  0.949121  0  0  0.125146  0  1.003308  0  0  0.128913  0  1.00096  0  0  0.113762  0.122052  0  1.005785  0
H  H4  1  0.92729537  0.67754657  0.46052388  1  0  0.112805  0  0.949222  0  0  0.125057  0  1.003421  0  0  0.128823  0  1.001076  0  0  0.113722  0.121964  0  1.005896  0
H  H5  1  0.25807100  0.11924564  0.39890546  1  0  0.103313  0  0.954949  0  0  0.11379  0  1.015677  0  0  0.116171  0  1.014437  0  0  0.110476  0.111615  0  1.017786  0
H  H6  1  0.74192305  0.88075346  0.60108866  1  0  0.103384  0  0.9549  0  0  0.113846  0  1.015653  0  0  0.116228  0  1.014412  0  0  0.110471  0.111669  0  1.017763  0
H  H7  1  0.19262159  0.81973461  0.76841450  1  0  0.112434  0  0.943917  0  0  0.110691  0  1.024659  0  0  0.115252  0  1.018586  0  0  0.122695  0.107355  0  1.029078  0
H  H8  1  0.80738861  0.18026245  0.23157376  1  0  0.112564  0  0.943777  0  0  0.110785  0  1.024563  0  0  0.115341  0  1.018492  0  0  0.122752  0.107447  0  1.028983  0
H  H9  1  0.57048202  0.69724441  0.31282298  1  0  0.412342  0  0.893567  0  0  0.380086  0  0.959907  0  0  0.391802  0  0.94298  0  0  0.284134  0.371741  0  0.971848  0
H  H10  1  0.42951437  0.30275458  0.68718022  1  0  0.412386  0  0.89353  0  0  0.380118  0  0.959867  0  0  0.391828  0  0.942948  0  0  0.284182  0.371771  0  0.97181  0
H  H11  1  0.68462225  0.54716223  0.23714056  1  0  0.428192  0  0.874275  0  0  0.395005  0  0.941405  0  0  0.406407  0  0.925016  0  0  0.283586  0.386276  0  0.95395  0
H  H12  1  0.31537581  0.45283329  0.76287202  1  0  0.428207  0  0.874246  0  0  0.395043  0  0.941323  0  0  0.406431  0  0.924962  0  0  0.283588  0.386314  0  0.953867  0
H  H13  1  0.71346327  0.47038295  0.71827819  1  0  0.418569  0  0.892853  0  0  0.384311  0  0.962592  0  0  0.396061  0  0.945768  0  0  0.279476  0.375508  0  0.975082  0
H  H14  1  0.28653645  0.52961822  0.28172968  1  0  0.418587  0  0.892837  0  0  0.3843  0  0.962616  0  0  0.396049  0  0.945797  0  0  0.27947  0.375496  0  0.975107  0
H  H15  1  0.80336353  0.42507964  0.56511426  1  0  0.398977  0  0.864651  0  0  0.378061  0  0.929933  0  0  0.385957  0  0.921085  0  0  0.302884  0.372369  0  0.936562  0
H  H16  1  0.19663483  0.57491481  0.43489524  1  0  0.398951  0  0.864669  0  0  0.37804  0  0.929964  0  0  0.385931  0  0.92112  0  0  0.302836  0.372351  0  0.93659  0
H  H17  1  0.06677856  0.31761954  0.96291926  1  0  0.095664  0  0.958491  0  0  0.09873  0  1.034148  0  0  0.101697  0  1.030524  0  0  0.119671  0.096119  0  1.037283  0
H  H18  1  0.93321604  0.68237495  0.03708547  1  0  0.09564  0  0.958503  0  0  0.098725  0  1.034122  0  0  0.10169  0  1.030492  0  0  0.119664  0.096118  0  1.037251  0
H  H19  1  0.51982312  0.32930712  0.16421087  1  0  0.120935  0  0.951127  0  0  0.128362  0  1.013614  0  0  0.13174  0  1.011066  0  0  0.116331  0.125629  0  1.015827  0
H  H20  1  0.48017049  0.67069176  0.83579888  1  0  0.120932  0  0.951082  0  0  0.128329  0  1.013593  0  0  0.131706  0  1.011046  0  0  0.116319  0.125599  0  1.015801  0
H  H21  1  0.53563840  0.05122603  0.21361714  1  0  0.111464  0  0.966162  0  0  0.118219  0  1.029198  0  0  0.121267  0  1.028963  0  0  0.10778  0.11606  0  1.029447  0
H  H22  1  0.46435986  0.94877628  0.78638874  1  0  0.111491  0  0.966234  0  0  0.118252  0  1.029247  0  0  0.121304  0  1.029009  0  0  0.107821  0.116086  0  1.029514  0
H  H23  1  0.31676761  0.92110326  0.13615601  1  0  0.102419  0  0.936798  0  0  0.105349  0  1.009716  0  0  0.109092  0  1.00516  0  0  0.120641  0.103455  0  1.011837  0
H  H24  1  0.68323679  0.07889468  0.86384634  1  0  0.102415  0  0.936848  0  0  0.105353  0  1.009752  0  0  0.109088  0  1.005195  0  0  0.12066  0.103457  0  1.011877  0
Pt  Pt25  1  0.99999974  0.00000166  0.99999738  1  0  0.35841  0  3.052797  0  0  0.272642  0  3.603959  0  0  0.29627  0  3.576531  0  0  0.784373  0.260829  0  3.622858  0
C  C26  1  0.16748599  0.92937158  0.71395031  1  0  0.092604  0  3.620831  0  0  0.047131  0  3.876276  0  0  0.057866  0  3.889289  0  0  0.046844  0.04017  0  3.868728  0
C  C27  1  0.83252210  0.07062995  0.28603686  1  0  0.092421  0  3.621018  0  0  0.046913  0  3.876582  0  0  0.057682  0  3.889538  0  0  0.046661  0.039949  0  3.869036  0
C  C28  1  0.23601288  0.95408798  0.57235301  1  0  -0.099514  0  3.726564  0  0  -0.074547  0  3.965487  0  0  -0.087421  0  3.988967  0  0  -0.009275  -0.066454  0  3.950529  0
C  C29  1  0.76398655  0.04591794  0.42763486  1  0  -0.099345  0  3.726719  0  0  -0.074321  0  3.965562  0  0  -0.0872  0  3.989053  0  0  -0.009142  -0.066232  0  3.950605  0
C  C30  1  0.20112205  0.09698298  0.50823771  1  0  0.016272  0  3.645131  0  0  -0.016181  0  3.893258  0  0  -0.009056  0  3.90962  0  0  -0.051642  -0.022146  0  3.884273  0
C  C31  1  0.79887826  0.90301727  0.49175666  1  0  0.016048  0  3.645172  0  0  -0.016427  0  3.893308  0  0  -0.009307  0  3.909675  0  0  -0.051652  -0.022389  0  3.884319  0
C  C32  1  0.09591518  0.20925573  0.58626221  1  0  -0.088454  0  3.704865  0  0  -0.098701  0  3.956374  0  0  -0.106455  0  3.975861  0  0  -0.071271  -0.093161  0  3.943766  0
C  C33  1  0.90408238  0.79074565  0.41373032  1  0  -0.088238  0  3.704984  0  0  -0.098434  0  3.956425  0  0  -0.106188  0  3.975917  0  0  -0.071218  -0.092891  0  3.943813  0
C  C34  1  0.03023584  0.17786779  0.72681719  1  0  0.109212  0  3.626143  0  0  0.070058  0  3.882445  0  0  0.078836  0  3.898314  0  0  0.04504  0.063455  0  3.872909  0
C  C35  1  0.96975902  0.82213352  0.27317877  1  0  0.109117  0  3.626314  0  0  0.069945  0  3.88263  0  0  0.078735  0  3.898494  0  0  0.044989  0.063307  0  3.873151  0
C  C36  1  0.35099222  0.82698061  0.49502479  1  0  0.640854  0  3.947076  0  0  0.589438  0  4.243103  0  0  0.623302  0  4.23842  0  0  0.206892  0.566861  0  4.24494  0
C  C37  1  0.64901111  0.17302534  0.50496264  1  0  0.640637  0  3.947408  0  0  0.58922  0  4.24343  0  0  0.62308  0  4.238759  0  0  0.206761  0.566644  0  4.245262  0
C  C38  1  0.43634704  0.11558381  0.15663260  1  0  -0.107776  0  3.7319  0  0  -0.117097  0  3.987478  0  0  -0.12506  0  4.006723  0  0  -0.079617  -0.112034  0  3.974597  0
C  C39  1  0.56364828  0.88441406  0.84336975  1  0  -0.107866  0  3.732201  0  0  -0.117218  0  3.987762  0  0  -0.125183  0  4.007002  0  0  -0.079735  -0.112155  0  3.974879  0
C  C40  1  0.17481439  0.26275076  0.01611956  1  0  0.098391  0  3.630046  0  0  0.05261  0  3.879451  0  0  0.063295  0  3.89374  0  0  0.046385  0.046227  0  3.869386  0
C  C41  1  0.82518049  0.73724811  0.98389109  1  0  0.098329  0  3.630114  0  0  0.052542  0  3.879592  0  0  0.063236  0  3.89387  0  0  0.046336  0.046158  0  3.869519  0
C  C42  1  0.31412103  0.04060592  0.11427376  1  0  0.105187  0  3.65705  0  0  0.064711  0  3.916574  0  0  0.074311  0  3.931934  0  0  0.040473  0.058008  0  3.906557  0
C  C43  1  0.68587603  0.95939642  0.88572915  1  0  0.105221  0  3.657014  0  0  0.064771  0  3.916547  0  0  0.074383  0  3.931893  0  0  0.040487  0.05807  0  3.906528  0
C  C44  1  0.42549705  0.26918270  0.13007050  1  0  0.007956  0  3.635699  0  0  -0.023373  0  3.882251  0  0  -0.016186  0  3.896877  0  0  -0.052498  -0.027434  0  3.872101  0
C  C45  1  0.57450006  0.73081845  0.86993767  1  0  0.007979  0  3.635949  0  0  -0.023269  0  3.882424  0  0  -0.016086  0  3.897055  0  0  -0.052425  -0.027336  0  3.872276  0
C  C46  1  0.29268168  0.34430501  0.05702869  1  0  -0.089992  0  3.713897  0  0  -0.058889  0  3.941128  0  0  -0.070438  0  3.963266  0  0  -0.003191  -0.051588  0  3.926204  0
C  C47  1  0.70731501  0.65569169  0.94297877  1  0  -0.089804  0  3.714092  0  0  -0.058712  0  3.941271  0  0  -0.070257  0  3.963411  0  0  -0.003081  -0.051405  0  3.926351  0
C  C48  1  0.27004759  0.51105560  0.02313337  1  0  0.649057  0  3.938466  0  0  0.593243  0  4.245996  0  0  0.626489  0  4.240035  0  0  0.205308  0.570252  0  4.249743  0
C  C49  1  0.72995930  0.48894230  0.97687285  1  0  0.648681  0  3.938929  0  0  0.592857  0  4.246484  0  0  0.626101  0  4.240535  0  0  0.20516  0.569861  0  4.250233  0
N  N50  1  0.18449263  0.11406348  0.04548457  1  0  -0.207824  0  3.492703  0  0  -0.132371  0  3.775097  0  0  -0.150616  0  3.796005  0  0  -0.346394  -0.120908  0  3.760857  0
N  N51  1  0.81550497  0.88593548  0.95452161  1  0  -0.207822  0  3.492727  0  0  -0.132435  0  3.775175  0  0  -0.150678  0  3.796077  0  0  -0.346425  -0.120971  0  3.760936  0
N  N52  1  0.07000538  0.04054618  0.78982283  1  0  -0.201288  0  3.485159  0  0  -0.127444  0  3.768072  0  0  -0.14575  0  3.789214  0  0  -0.34158  -0.116047  0  3.754677  0
N  N53  1  0.92999599  0.95945518  0.21017238  1  0  -0.201264  0  3.485214  0  0  -0.127449  0  3.768162  0  0  -0.145764  0  3.789308  0  0  -0.341576  -0.116041  0  3.754748  0
O  O54  1  0.42079010  0.85248944  0.36949068  1  0  -0.615507  0  1.96407  0  0  -0.561892  0  2.185416  0  0  -0.587373  0  2.17868  0  0  -0.310074  -0.544179  0  2.189213  0
O  O55  1  0.57921774  0.14751987  0.63049809  1  0  -0.615364  0  1.964242  0  0  -0.561762  0  2.185575  0  0  -0.587235  0  2.178836  0  0  -0.310032  -0.544048  0  2.189374  0
O  O56  1  0.36597875  0.70256709  0.56784119  1  0  -0.653378  0  2.047819  0  0  -0.582636  0  2.30026  0  0  -0.612362  0  2.289155  0  0  -0.32112  -0.561946  0  2.3073  0
O  O57  1  0.63402770  0.29743670  0.43214291  1  0  -0.653303  0  2.047821  0  0  -0.582527  0  2.300177  0  0  -0.612253  0  2.289079  0  0  -0.321026  -0.56184  0  2.307215  0
O  O58  1  0.64752149  0.60015583  0.32671782  1  0  -0.855172  0  1.928644  0  0  -0.789297  0  2.127382  0  0  -0.813102  0  2.092644  0  0  -0.583913  -0.772058  0  2.15296  0
O  O59  1  0.35247345  0.39984307  0.67329074  1  0  -0.855216  0  1.928539  0  0  -0.7893  0  2.127304  0  0  -0.813097  0  2.092584  0  0  -0.583964  -0.772081  0  2.152926  0
O  O60  1  0.72637384  0.50573315  0.61462566  1  0  -0.822446  0  1.860103  0  0  -0.769943  0  2.054297  0  0  -0.790049  0  2.025703  0  0  -0.576629  -0.755252  0  2.075302  0
O  O61  1  0.27362210  0.49426137  0.38537788  1  0  -0.822428  0  1.860154  0  0  -0.769906  0  2.054317  0  0  -0.790004  0  2.02574  0  0  -0.576579  -0.755217  0  2.075314  0
O  O62  1  0.23405055  0.55743595  0.90197572  1  0  -0.627965  0  1.937997  0  0  -0.576438  0  2.165698  0  0  -0.601687  0  2.156015  0  0  -0.317924  -0.557555  0  2.172362  0
O  O63  1  0.76595892  0.44255527  0.09803064  1  0  -0.627814  0  1.937939  0  0  -0.576231  0  2.165607  0  0  -0.601497  0  2.155941  0  0  -0.317865  -0.557352  0  2.172277  0
O  O64  1  0.28704390  0.59293073  0.11917612  1  0  -0.638394  0  1.951262  0  0  -0.585191  0  2.181045  0  0  -0.610993  0  2.171074  0  0  -0.324493  -0.565363  0  2.186872  0
O  O65  1  0.71296329  0.40707279  0.88082764  1  0  -0.638248  0  1.951575  0  0  -0.585066  0  2.181357  0  0  -0.61087  0  2.171393  0  0  -0.324448  -0.56524  0  2.187188  0
