# generated using pymatgen
data_ZnH16C28(N2O3)2
_symmetry_space_group_name_H-M   'P 1'
_cell_length_a   16.48889365
_cell_length_b   17.79247275
_cell_length_c   23.78792182
_cell_angle_alpha   90.23900301
_cell_angle_beta   90.02845657
_cell_angle_gamma   89.91020254
_symmetry_Int_Tables_number   1
_chemical_formula_structural   ZnH16C28(N2O3)2
_chemical_formula_sum   'Zn2 H32 C56 N8 O12'
_cell_volume   6978.78734195
_cell_formula_units_Z   2
loop_
 _symmetry_equiv_pos_site_id
 _symmetry_equiv_pos_as_xyz
  1  'x, y, z'
loop_
 _atom_site_type_symbol
 _atom_site_label
 _atom_site_symmetry_multiplicity
 _atom_site_fract_x
 _atom_site_fract_y
 _atom_site_fract_z
 _atom_site_occupancy
 _atom_site_pbe_bader_charge
 _atom_site_pbe_bader_spin_density
 _atom_site_pbe_cm5_charge
 _atom_site_pbe_ddec_charge
 _atom_site_pbe_ddec_spin_density
 _atom_site_pbe_ddec_sum_bond_order
 _atom_site_pbe_magmom
Zn  Zn0  1  0.41551973  0.50144650  0.50185977  1  1.268391  0  0.662077  0.806828  0  2.454036  0
Zn  Zn1  1  0.58260627  0.50077260  0.50193472  1  1.290103  0  0.662166  0.808414  0  2.455839  0
H  H2  1  0.56141715  0.68007223  0.05562763  1  0.156062  0  0.119201  0.124942  0  0.975779  0
H  H3  1  0.43879404  0.31943917  0.94798850  1  0.114382  0  0.119401  0.125221  0  0.975318  0
H  H4  1  0.28581522  0.58315950  0.56310796  1  0.100954  0  0.133891  0.109901  0  0.962449  0
H  H5  1  0.71028938  0.41741952  0.44103832  1  0.127357  0  0.132717  0.109394  0  0.966874  0
H  H6  1  0.28824256  0.41890085  0.43984250  1  0.142282  0  0.132884  0.10857  0  0.967334  0
H  H7  1  0.71245901  0.58489756  0.56194001  1  0.139759  0  0.134849  0.111473  0  0.959997  0
H  H8  1  0.56143261  0.68009408  0.94931187  1  0.131609  0  0.119306  0.125422  0  0.975492  0
H  H9  1  0.43872280  0.31940894  0.05431600  1  0.121878  0  0.119047  0.124848  0  0.976162  0
H  H10  1  0.63005399  0.49714522  0.78711555  1  0.07057  0  0.108596  0.115055  0  0.980767  0
H  H11  1  0.63024940  0.49651682  0.21607146  1  0.096351  0  0.107957  0.114413  0  0.982888  0
H  H12  1  0.62946622  0.50000486  0.68132424  1  0.089538  0  0.105003  0.106686  0  1.002238  0
H  H13  1  0.62992831  0.49471285  0.32200777  1  0.084883  0  0.104232  0.106263  0  1.003473  0
H  H14  1  0.36979219  0.50665402  0.68150482  1  0.088089  0  0.104743  0.106493  0  1.00275  0
H  H15  1  0.37030770  0.50069992  0.32220691  1  0.085739  0  0.104836  0.107157  0  1.002608  0
H  H16  1  0.36943335  0.50372531  0.78733832  1  0.067605  0  0.108266  0.114733  0  0.982145  0
H  H17  1  0.36966631  0.50251233  0.21626252  1  0.09635  0  0.108094  0.114367  0  0.981635  0
H  H18  1  0.36741581  0.26418791  0.48375001  1  0.068508  0  0.096491  0.114389  0  1.021418  0
H  H19  1  0.62911175  0.73599786  0.48465746  1  0.071027  0  0.097247  0.116197  0  1.020036  0
H  H20  1  0.36911505  0.74067409  0.49212509  1  0.075943  0  0.096582  0.115043  0  1.021537  0
H  H21  1  0.62761440  0.26449777  0.48893553  1  0.044192  0  0.097004  0.115612  0  1.020481  0
H  H22  1  0.13312910  0.58681364  0.56496774  1  0.098857  0  0.118481  0.127747  0  0.978687  0
H  H23  1  0.86292584  0.41321532  0.43691932  1  0.092026  0  0.117884  0.126489  0  0.97916  0
H  H24  1  0.13557452  0.41481756  0.43566886  1  0.097515  0  0.11787  0.126982  0  0.978834  0
H  H25  1  0.86509759  0.58871141  0.56353394  1  0.098102  0  0.119133  0.128379  0  0.977263  0
H  H26  1  0.30263382  0.14615976  0.45718077  1  0.421293  0  0.3034  0.295869  0  0.943847  0
H  H27  1  0.35574788  0.06630553  0.44516057  1  0.414444  0  0.294147  0.284529  0  0.974785  0
H  H28  1  0.69747753  0.85511522  0.46314948  1  0.435168  0  0.306721  0.300265  0  0.942379  0
H  H29  1  0.64621467  0.93828893  0.46098891  1  0.410753  0  0.290282  0.277811  0  0.998083  0
H  H30  1  0.30559107  0.86432898  0.49822812  1  0.444032  0  0.304111  0.297752  0  0.94204  0
H  H31  1  0.35947026  0.94528819  0.49476627  1  0.418762  0  0.29148  0.28312  0  0.986119  0
H  H32  1  0.69512901  0.14568858  0.46380957  1  0.417264  0  0.30534  0.29779  0  0.943022  0
H  H33  1  0.64255243  0.06428364  0.45602527  1  0.427257  0  0.289377  0.27477  0  0.997997  0
C  C34  1  0.49816124  0.64807958  0.49526598  1  1.546881  0  0.214226  0.595688  0  4.147742  0
C  C35  1  0.49726391  0.35401587  0.49764926  1  1.565641  0  0.214518  0.596362  0  4.148399  0
C  C36  1  0.57333399  0.49926395  0.76362086  1  0.095038  0  -0.084881  -0.152958  0  3.977584  0
C  C37  1  0.57362935  0.49702816  0.23970012  1  0.087555  0  -0.085669  -0.155046  0  3.985137  0
C  C38  1  0.57307131  0.50108280  0.70512332  1  -0.041638  0  -0.078258  -0.072755  0  3.968052  0
C  C39  1  0.57353217  0.49604864  0.29818203  1  -0.082539  0  -0.079378  -0.073748  0  3.973111  0
C  C40  1  0.49962114  0.50407062  0.67558293  1  0.035994  0  -0.013229  -0.028025  0  3.950049  0
C  C41  1  0.50014013  0.49709148  0.32779297  1  -0.052253  0  -0.013974  -0.028702  0  3.954012  0
C  C42  1  0.42624932  0.50493029  0.70524344  1  -0.045685  0  -0.078989  -0.074225  0  3.970883  0
C  C43  1  0.42662749  0.49950783  0.29832221  1  0.074262  0  -0.079058  -0.074286  0  3.971561  0
C  C44  1  0.42608669  0.50330730  0.76375823  1  0.010884  0  -0.084834  -0.153417  0  3.979206  0
C  C45  1  0.42633509  0.50071689  0.23983073  1  -0.070674  0  -0.084867  -0.152605  0  3.982035  0
C  C46  1  0.49976786  0.50060448  0.79249936  1  0.267942  0  0.089515  0.199313  0  4.014614  0
C  C47  1  0.49992682  0.49926119  0.21100618  1  0.200267  0  0.089089  0.198712  0  4.020364  0
C  C48  1  0.42368844  0.15471557  0.47303538  1  0.412183  0  0.09319  0.272119  0  4.094863  0
C  C49  1  0.57540255  0.84692553  0.47784899  1  0.398876  0  0.094588  0.276256  0  4.103215  0
C  C50  1  0.42614409  0.84975908  0.48288270  1  0.397303  0  0.095026  0.277238  0  4.091793  0
C  C51  1  0.57293202  0.15499425  0.47625804  1  0.351598  0  0.094571  0.274679  0  4.099712  0
C  C52  1  0.42395676  0.23247282  0.48152614  1  -0.049174  0  -0.12141  -0.264027  0  3.99831  0
C  C53  1  0.57330194  0.76883265  0.48355516  1  0.021543  0  -0.121363  -0.263149  0  3.998722  0
C  C54  1  0.42581787  0.77156225  0.48809488  1  -0.021856  0  -0.121943  -0.265033  0  3.999427  0
C  C55  1  0.57151054  0.23274928  0.48438413  1  0.043637  0  -0.120883  -0.262443  0  3.998717  0
C  C56  1  0.49746003  0.27082302  0.48787270  1  0.004845  0  -0.021548  0.010984  0  4.041288  0
C  C57  1  0.49901507  0.73172271  0.48855010  1  -0.04587  0  -0.021634  0.010583  0  4.043786  0
C  C58  1  0.49855715  0.11474301  0.47213137  1  0.200119  0  -0.028525  -0.084322  0  4.070789  0
C  C59  1  0.50136001  0.88826332  0.47684245  1  0.149706  0  -0.029227  -0.087996  0  4.065102  0
C  C60  1  0.49965809  0.50544318  0.61246096  1  1.504966  0  0.216003  0.594059  0  4.170632  0
C  C61  1  0.50035720  0.49640665  0.39087335  1  1.599936  0  0.213824  0.591451  0  4.175931  0
C  C62  1  0.49951168  0.03581364  0.46926636  1  -0.464661  0  -0.058438  -0.111138  0  4.192615  0
C  C63  1  0.50176100  0.96688269  0.47157541  1  -0.053263  0  -0.05427  -0.100742  0  4.18962  0
C  C64  1  0.16519868  0.54891019  0.53663321  1  -0.052253  0  -0.069632  -0.171911  0  3.909895  0
C  C65  1  0.83184582  0.45190102  0.46519914  1  0.00542  0  -0.070662  -0.170959  0  3.912967  0
C  C66  1  0.16659241  0.45279124  0.46446939  1  -0.022825  0  -0.070123  -0.172189  0  3.910017  0
C  C67  1  0.83305430  0.54991917  0.53590415  1  -0.011866  0  -0.069862  -0.170341  0  3.908205  0
C  C68  1  0.24935606  0.54717436  0.53583265  1  0.581173  0  0.065452  0.106659  0  3.919401  0
C  C69  1  0.74774704  0.45388170  0.46728919  1  0.456016  0  0.065222  0.1056  0  3.920913  0
C  C70  1  0.25069532  0.45479580  0.46650929  1  0.493103  0  0.06596  0.108574  0  3.917635  0
C  C71  1  0.74890276  0.54807980  0.53522711  1  0.482315  0  0.066336  0.106554  0  3.917872  0
C  C72  1  0.12192137  0.50072723  0.50025530  1  0.057703  0  0.021522  0.176398  0  4.105355  0
C  C73  1  0.87643969  0.50076450  0.50025803  1  0.199316  0  0.021514  0.174234  0  4.108991  0
C  C74  1  0.03615814  0.50054657  0.49981210  1  -0.214809  0  -0.028074  -0.090423  0  4.082181  0
C  C75  1  0.96221984  0.50057201  0.49979397  1  -0.153289  0  -0.028193  -0.09036  0  4.08299  0
C  C76  1  0.47705463  0.43229850  0.12302715  1  1.274985  0  0.243567  0.437961  0  4.101658  0
C  C77  1  0.52287326  0.56728950  0.88057821  1  1.317354  0  0.24389  0.438448  0  4.099427  0
C  C78  1  0.52286348  0.56699263  0.12358457  1  1.377506  0  0.243525  0.437794  0  4.100217  0
C  C79  1  0.47724271  0.43258285  0.87998588  1  1.286163  0  0.243537  0.43783  0  4.099388  0
C  C80  1  0.52258857  0.56580451  0.06122810  1  -0.114571  0  -0.003406  -0.057721  0  3.982848  0
C  C81  1  0.47762019  0.43371363  0.94238342  1  0.023479  0  -0.002977  -0.056652  0  3.981644  0
C  C82  1  0.50004794  0.49974884  0.03177140  1  0.025102  0  0.004245  0.029968  0  4.003182  0
C  C83  1  0.50012321  0.49977495  0.97184770  1  0.019559  0  0.003673  0.027994  0  4.004795  0
C  C84  1  0.47744618  0.43362962  0.06069124  1  0.010619  0  -0.004003  -0.059006  0  3.986554  0
C  C85  1  0.52267101  0.56588014  0.94291731  1  0.025885  0  -0.003647  -0.057286  0  3.983659  0
C  C86  1  0.54444361  0.63000820  0.03183305  1  -0.084317  0  -0.061557  -0.068534  0  3.930006  0
C  C87  1  0.45577304  0.36950263  0.97177299  1  -0.01185  0  -0.061571  -0.068917  0  3.930113  0
C  C88  1  0.54447988  0.63003369  0.97279258  1  0.016732  0  -0.0617  -0.069958  0  3.930485  0
C  C89  1  0.45571496  0.36945243  0.03082391  1  -0.010445  0  -0.061486  -0.068889  0  3.931573  0
N  N90  1  0.49979915  0.49964362  0.15032797  1  -1.151114  0  -0.230307  -0.226269  0  3.588006  0
N  N91  1  0.50002798  0.50000169  0.85321783  1  -1.177913  0  -0.229922  -0.22714  0  3.58403  0
N  N92  1  0.29106157  0.50106398  0.50147136  1  -1.204891  0  -0.312038  -0.18124  0  3.50156  0
N  N93  1  0.70723475  0.50092548  0.50166300  1  -1.248823  0  -0.312032  -0.182407  0  3.50061  0
N  N94  1  0.35154531  0.11467597  0.46793252  1  -1.199255  0  -0.600249  -0.619749  0  3.304609  0
N  N95  1  0.64851818  0.88506667  0.47594416  1  -1.215175  0  -0.599509  -0.616106  0  3.331331  0
N  N96  1  0.35447364  0.89090207  0.48185536  1  -1.207643  0  -0.602078  -0.622363  0  3.309472  0
N  N97  1  0.64554811  0.11554730  0.47476065  1  -1.214076  0  -0.600423  -0.613528  0  3.323084  0
O  O98  1  0.42918890  0.61586724  0.49775295  1  -1.162328  0  -0.322211  -0.550081  0  2.32444  0
O  O99  1  0.56602409  0.38657604  0.50116869  1  -1.164286  0  -0.322407  -0.552214  0  2.327823  0
O  O100  1  0.42856137  0.38665822  0.50162912  1  -1.167668  0  -0.322061  -0.550928  0  2.325245  0
O  O101  1  0.56666567  0.61479501  0.49799002  1  -1.166456  0  -0.322032  -0.551772  0  2.331546  0
O  O102  1  0.43087597  0.50655870  0.58803633  1  -1.16627  0  -0.319092  -0.55177  0  2.31988  0
O  O103  1  0.56929228  0.49627205  0.41503641  1  -1.168305  0  -0.319844  -0.552984  0  2.321353  0
O  O104  1  0.43158689  0.49629954  0.41523100  1  -1.164399  0  -0.319015  -0.552482  0  2.322523  0
O  O105  1  0.56852543  0.50498606  0.58820073  1  -1.16714  0  -0.319579  -0.551836  0  2.320639  0
O  O106  1  0.45839682  0.37628018  0.15012091  1  -1.095867  0  -0.277227  -0.433638  0  2.062402  0
O  O107  1  0.54144492  0.62336752  0.85354596  1  -1.095627  0  -0.27573  -0.432018  0  2.061178  0
O  O108  1  0.54175563  0.62283827  0.15113960  1  -1.092779  0  -0.275904  -0.431784  0  2.059316  0
O  O109  1  0.45844460  0.37670683  0.85244719  1  -1.094802  0  -0.274876  -0.430301  0  2.059755  0
