# generated using pymatgen
data_TbH13(C4O3)4
_symmetry_space_group_name_H-M   'P 1'
_cell_length_a   7.18712158
_cell_length_b   10.86610814
_cell_length_c   11.14231187
_cell_angle_alpha   85.77480606
_cell_angle_beta   78.56841823
_cell_angle_gamma   78.19181504
_symmetry_Int_Tables_number   1
_chemical_formula_structural   TbH13(C4O3)4
_chemical_formula_sum   'Tb2 H26 C32 O24'
_cell_volume   834.36141694
_cell_formula_units_Z   2
loop_
 _symmetry_equiv_pos_site_id
 _symmetry_equiv_pos_as_xyz
  1  'x, y, z'
loop_
 _atom_site_type_symbol
 _atom_site_label
 _atom_site_symmetry_multiplicity
 _atom_site_fract_x
 _atom_site_fract_y
 _atom_site_fract_z
 _atom_site_occupancy
 _atom_site_hle17_bader_spin_density
 _atom_site_hle17_ddec_charge
 _atom_site_hle17_ddec_spin_density
 _atom_site_hle17_ddec_sum_bond_order
 _atom_site_hle17_magmom
 _atom_site_hse06_10hf_bader_spin_density
 _atom_site_hse06_10hf_ddec_charge
 _atom_site_hse06_10hf_ddec_spin_density
 _atom_site_hse06_10hf_ddec_sum_bond_order
 _atom_site_hse06_10hf_magmom
 _atom_site_hse06_bader_spin_density
 _atom_site_hse06_ddec_charge
 _atom_site_hse06_ddec_spin_density
 _atom_site_hse06_ddec_sum_bond_order
 _atom_site_hse06_magmom
 _atom_site_pbe_bader_spin_density
 _atom_site_pbe_cm5_charge
 _atom_site_pbe_ddec_charge
 _atom_site_pbe_ddec_spin_density
 _atom_site_pbe_ddec_sum_bond_order
 _atom_site_pbe_magmom
Tb  Tb0  1  0.16957328  0.74414164  0.93476528  1  0  2.143584  0  1.724022  0  0  2.065663  0  2.065205  0  0  2.112135  0  2.025198  0  0  1.478793  2.030501  0  2.096837  0
Tb  Tb1  1  0.83043093  0.25585341  0.06522408  1  0  2.143612  0  1.724018  0  0  2.065615  0  2.065295  0  0  2.112088  0  2.025281  0  0  1.478759  2.030449  0  2.096918  0
H  H2  1  0.43216301  0.79805708  0.51116484  1  0  0.122453  0  0.936318  0  0  0.129746  0  1.001749  0  0  0.133065  0  0.999486  0  0  0.115321  0.127356  0  1.003062  0
H  H3  1  0.56785692  0.20194641  0.48883373  1  0  0.12243  0  0.93634  0  0  0.129723  0  1.00179  0  0  0.133026  0  0.999544  0  0  0.11529  0.127335  0  1.003102  0
H  H4  1  0.02735670  0.13232171  0.64251159  1  0  0.1333  0  0.924435  0  0  0.140364  0  0.989297  0  0  0.144293  0  0.986415  0  0  0.115829  0.137441  0  0.991607  0
H  H5  1  0.97263252  0.86768093  0.35747989  1  0  0.133287  0  0.924499  0  0  0.140348  0  0.989363  0  0  0.144279  0  0.986474  0  0  0.115803  0.137423  0  0.99167  0
H  H6  1  0.28292850  0.11119521  0.26028648  1  0  0.136102  0  0.932837  0  0  0.140185  0  1.001387  0  0  0.145028  0  0.996626  0  0  0.119429  0.136608  0  1.005106  0
H  H7  1  0.71708394  0.88880076  0.73970273  1  0  0.136186  0  0.932742  0  0  0.140253  0  1.001303  0  0  0.14512  0  0.99649  0  0  0.119462  0.13668  0  1.005026  0
H  H8  1  0.31271234  0.66757744  0.35923411  1  0  0.09686  0  0.975594  0  0  0.101633  0  1.049101  0  0  0.104955  0  1.046735  0  0  0.099145  0.099215  0  1.050824  0
H  H9  1  0.68731769  0.33241187  0.64075172  1  0  0.096777  0  0.975601  0  0  0.101541  0  1.049143  0  0  0.104864  0  1.046772  0  0  0.0991  0.099124  0  1.050863  0
H  H10  1  0.33557511  0.53514409  0.55138416  1  0  0.106048  0  0.940156  0  0  0.116165  0  0.997137  0  0  0.119438  0  0.995532  0  0  0.108089  0.113805  0  0.998482  0
H  H11  1  0.66444932  0.46484433  0.44860957  1  0  0.105965  0  0.940183  0  0  0.116093  0  0.997175  0  0  0.119372  0  0.995554  0  0  0.108065  0.113733  0  0.998521  0
H  H12  1  0.22239361  0.33209338  0.57466333  1  0  0.11036  0  0.970123  0  0  0.117728  0  1.036642  0  0  0.121084  0  1.034754  0  0  0.103979  0.115297  0  1.038061  0
H  H13  1  0.77761222  0.66789603  0.42532714  1  0  0.110272  0  0.970335  0  0  0.117629  0  1.036849  0  0  0.120979  0  1.034967  0  0  0.103961  0.115204  0  1.03825  0
H  H14  1  0.66826014  0.73313941  0.20719128  1  0  0.438974  0  0.748278  0  0  0.41982  0  0.800154  0  0  0.429806  0  0.79001  0  0  0.3658  0.412603  0  0.807689  0
H  H15  1  0.33175591  0.26687255  0.79280714  1  0  0.438947  0  0.748528  0  0  0.419779  0  0.800408  0  0  0.429767  0  0.790263  0  0  0.365796  0.412561  0  0.807941  0
H  H16  1  0.62096721  0.66404008  0.91114914  1  0  0.453811  0  0.827491  0  0  0.424053  0  0.888108  0  0  0.43518  0  0.871781  0  0  0.30741  0.416125  0  0.899743  0
H  H17  1  0.37903211  0.33597752  0.08883019  1  0  0.453936  0  0.827348  0  0  0.424169  0  0.887978  0  0  0.435297  0  0.871647  0  0  0.307458  0.41624  0  0.899614  0
H  H18  1  0.52888578  0.54788312  0.89768040  1  0  0.438338  0  0.822638  0  0  0.416597  0  0.885405  0  0  0.424481  0  0.874393  0  0  0.328471  0.41103  0  0.891683  0
H  H19  1  0.47109893  0.45207595  0.10249157  1  0  0.438455  0  0.822719  0  0  0.416715  0  0.885468  0  0  0.424597  0  0.874294  0  0  0.328504  0.411147  0  0.891747  0
H  H20  1  0.42778279  0.94032904  0.90828156  1  0  0.444785  0  0.847131  0  0  0.417277  0  0.903664  0  0  0.427118  0  0.889308  0  0  0.315929  0.410334  0  0.913783  0
H  H21  1  0.57222157  0.05966979  0.09171469  1  0  0.444708  0  0.847189  0  0  0.417222  0  0.903688  0  0  0.427058  0  0.889338  0  0  0.315924  0.41028  0  0.913801  0
H  H22  1  0.39438891  0.89140989  0.04721109  1  0  0.457447  0  0.832794  0  0  0.427779  0  0.892442  0  0  0.438053  0  0.877366  0  0  0.314183  0.420653  0  0.90294  0
H  H23  1  0.60562593  0.10858232  0.95278261  1  0  0.457443  0  0.83283  0  0  0.427786  0  0.892459  0  0  0.438059  0  0.877383  0  0  0.314162  0.420661  0  0.902955  0
H  H24  1  0.82545671  0.93532791  0.02543459  1  0  0.436066  0  0.847265  0  0  0.410945  0  0.90782  0  0  0.421339  0  0.892447  0  0  0.312333  0.403586  0  0.918712  0
H  H25  1  0.17454397  0.06467376  0.97456279  1  0  0.436078  0  0.847275  0  0  0.410941  0  0.907841  0  0  0.421334  0  0.892469  0  0  0.312336  0.40358  0  0.918736  0
H  H26  1  0.95051596  0.92371946  0.12461679  1  0  0.447344  0  0.844534  0  0  0.418838  0  0.904574  0  0  0.429417  0  0.889146  0  0  0.307564  0.411447  0  0.915319  0
H  H27  1  0.04948461  0.07627752  0.87538273  1  0  0.447388  0  0.844464  0  0  0.418918  0  0.904459  0  0  0.429499  0  0.889027  0  0  0.307594  0.411524  0  0.91521  0
C  C28  1  0.49099071  0.87969683  0.26565947  1  0  0.693331  0  3.75234  0  0  0.633345  0  4.05649  0  0  0.668723  0  4.045422  0  0  0.258031  0.609547  0  4.063251  0
C  C29  1  0.50900601  0.12030861  0.73433900  1  0  0.69352  0  3.75234  0  0  0.633471  0  4.056577  0  0  0.668855  0  4.045505  0  0  0.25802  0.609666  0  4.063346  0
C  C30  1  0.37373693  0.94648347  0.37351782  1  0  -0.092519  0  3.806589  0  0  -0.066628  0  4.048212  0  0  -0.079156  0  4.073964  0  0  -0.017875  -0.0589  0  4.030783  0
C  C31  1  0.62625400  0.05351731  0.62648346  1  0  -0.092478  0  3.80646  0  0  -0.066564  0  4.048071  0  0  -0.079091  0  4.073818  0  0  -0.017852  -0.058832  0  4.030649  0
C  C32  1  0.35519793  0.89245325  0.49219849  1  0  -0.048347  0  3.652623  0  0  -0.091189  0  3.90619  0  0  -0.087039  0  3.925623  0  0  -0.066186  -0.092157  0  3.891239  0
C  C33  1  0.64479676  0.10754938  0.50780042  1  0  -0.048327  0  3.652586  0  0  -0.091188  0  3.906179  0  0  -0.087032  0  3.925625  0  0  -0.066197  -0.092162  0  3.891225  0
C  C34  1  0.12808842  0.08119533  0.56778042  1  0  -0.132753  0  3.644287  0  0  -0.173129  0  3.902878  0  0  -0.17182  0  3.920324  0  0  -0.073103  -0.174237  0  3.891388  0
C  C35  1  0.87191209  0.91880256  0.43221097  1  0  -0.132797  0  3.644057  0  0  -0.173142  0  3.90266  0  0  -0.171829  0  3.920106  0  0  -0.073059  -0.174253  0  3.891164  0
C  C36  1  0.15237510  0.13468242  0.44918525  1  0  0.258144  0  3.778585  0  0  0.25493  0  4.044137  0  0  0.259537  0  4.061527  0  0  0.089237  0.251421  0  4.032784  0
C  C37  1  0.84761024  0.86531837  0.55081310  1  0  0.258538  0  3.778421  0  0  0.255202  0  4.04412  0  0  0.259799  0  4.061523  0  0  0.089316  0.251697  0  4.032774  0
C  C38  1  0.27329906  0.06850945  0.35213253  1  0  -0.105352  0  3.644343  0  0  -0.149542  0  3.90633  0  0  -0.146531  0  3.92139  0  0  -0.066557  -0.15219  0  3.897373  0
C  C39  1  0.72669639  0.93149128  0.64785835  1  0  -0.105611  0  3.644448  0  0  -0.149725  0  3.906431  0  0  -0.146718  0  3.921498  0  0  -0.066603  -0.152361  0  3.897438  0
C  C40  1  0.21057101  0.89715218  0.71389812  1  0  0.641653  0  3.918104  0  0  0.591779  0  4.21886  0  0  0.625753  0  4.211295  0  0  0.193554  0.569175  0  4.222735  0
C  C41  1  0.78945123  0.10283906  0.28609387  1  0  0.641611  0  3.9177  0  0  0.591721  0  4.218488  0  0  0.6257  0  4.210926  0  0  0.193521  0.569112  0  4.222362  0
C  C42  1  0.12926297  0.35438855  0.40136548  1  0  0.248741  0  3.757256  0  0  0.235404  0  4.01722  0  0  0.243246  0  4.034268  0  0  0.087575  0.229971  0  4.005745  0
C  C43  1  0.87072668  0.64561221  0.59863057  1  0  0.248616  0  3.757198  0  0  0.235285  0  4.017158  0  0  0.24312  0  4.034212  0  0  0.087504  0.229852  0  4.00569  0
C  C44  1  0.11333415  0.42734939  0.29370777  1  0  -0.136951  0  3.675513  0  0  -0.128445  0  3.910545  0  0  -0.132938  0  3.928009  0  0  -0.00586  -0.125494  0  3.898835  0
C  C45  1  0.88664953  0.57265705  0.70629127  1  0  -0.136785  0  3.675612  0  0  -0.128287  0  3.910605  0  0  -0.132778  0  3.928073  0  0  -0.005907  -0.12534  0  3.898892  0
C  C46  1  0.18193370  0.54124477  0.27972390  1  0  -0.083279  0  3.769102  0  0  -0.067854  0  4.002234  0  0  -0.074407  0  4.02392  0  0  -0.022557  -0.063711  0  3.987805  0
C  C47  1  0.81805596  0.45876070  0.72027360  1  0  -0.083338  0  3.769288  0  0  -0.067839  0  4.00231  0  0  -0.074394  0  4.024003  0  0  -0.022491  -0.063695  0  3.987879  0
C  C48  1  0.26333510  0.57870058  0.37179740  1  0  -0.063847  0  3.723821  0  0  -0.096471  0  3.987057  0  0  -0.095085  0  4.004179  0  0  -0.087832  -0.097283  0  3.975743  0
C  C49  1  0.73667362  0.42129823  0.62819475  1  0  -0.06366  0  3.723642  0  0  -0.096292  0  3.98686  0  0  -0.094904  0  4.003981  0  0  -0.087777  -0.097104  0  3.975544  0
C  C50  1  0.27926036  0.50388358  0.47752565  1  0  -0.037502  0  3.751367  0  0  -0.051022  0  4.007916  0  0  -0.05196  0  4.026208  0  0  -0.082756  -0.050743  0  3.995876  0
C  C51  1  0.72074611  0.49611335  0.52246510  1  0  -0.03745  0  3.75144  0  0  -0.050999  0  4.007991  0  0  -0.051933  0  4.026278  0  0  -0.082775  -0.050721  0  3.995953  0
C  C52  1  0.21410502  0.39065657  0.49173189  1  0  -0.151011  0  3.735205  0  0  -0.177033  0  3.994996  0  0  -0.179679  0  4.013938  0  0  -0.090154  -0.175106  0  3.982229  0
C  C53  1  0.78587560  0.60934139  0.50826184  1  0  -0.150874  0  3.735406  0  0  -0.176873  0  3.995187  0  0  -0.179515  0  4.014128  0  0  -0.090087  -0.17495  0  3.982435  0
C  C54  1  0.17089287  0.62168182  0.16566072  1  0  0.607613  0  3.97706  0  0  0.566129  0  4.270145  0  0  0.599651  0  4.262779  0  0  0.181634  0.5436  0  4.274117  0
C  C55  1  0.82909018  0.37832180  0.83433949  1  0  0.607416  0  3.97754  0  0  0.565896  0  4.270621  0  0  0.599417  0  4.263261  0  0  0.181559  0.543366  0  4.27459  0
C  C56  1  0.02347924  0.37984056  0.19940608  1  0  0.697876  0  3.890173  0  0  0.641577  0  4.207955  0  0  0.677962  0  4.194693  0  0  0.201057  0.616892  0  4.216144  0
C  C57  1  0.97651264  0.62016209  0.80059226  1  0  0.697633  0  3.890262  0  0  0.641297  0  4.208141  0  0  0.677679  0  4.19489  0  0  0.201008  0.616629  0  4.216305  0
C  C58  1  0.23174864  0.95979097  0.58895087  1  0  -0.054068  0  3.749529  0  0  -0.026682  0  3.984236  0  0  -0.036344  0  4.007907  0  0  -0.015079  -0.020529  0  3.967799  0
C  C59  1  0.76824379  0.04021450  0.41104899  1  0  -0.054042  0  3.749457  0  0  -0.026649  0  3.984183  0  0  -0.036316  0  4.007858  0  0  -0.015031  -0.020477  0  3.967713  0
O  O60  1  0.33753458  0.80179643  0.73373373  1  0  -0.667061  0  1.974641  0  0  -0.627989  0  2.212246  0  0  -0.652686  0  2.205873  0  0  -0.372472  -0.610759  0  2.215971  0
O  O61  1  0.66247607  0.19820610  0.26625073  1  0  -0.667158  0  1.974233  0  0  -0.628111  0  2.211932  0  0  -0.652772  0  2.205472  0  0  -0.37256  -0.610877  0  2.215656  0
O  O62  1  0.06518544  0.93853297  0.79817809  1  0  -0.704468  0  1.972155  0  0  -0.653677  0  2.204122  0  0  -0.678808  0  2.194969  0  0  -0.358972  -0.635969  0  2.209729  0
O  O63  1  0.93482617  0.06144989  0.20182743  1  0  -0.704366  0  1.972247  0  0  -0.653571  0  2.204244  0  0  -0.678701  0  2.195089  0  0  -0.358879  -0.635866  0  2.209852  0
O  O64  1  0.59475216  0.76586238  0.28644374  1  0  -0.513528  0  2.078257  0  0  -0.455418  0  2.287799  0  0  -0.476623  0  2.272623  0  0  -0.293123  -0.440777  0  2.298102  0
O  O65  1  0.40525419  0.23413366  0.71356235  1  0  -0.513418  0  2.078801  0  0  -0.45527  0  2.28838  0  0  -0.476483  0  2.273205  0  0  -0.293007  -0.440624  0  2.298683  0
O  O66  1  0.49589749  0.92562747  0.16002211  1  0  -0.596382  0  2.076789  0  0  -0.536208  0  2.297796  0  0  -0.557671  0  2.284218  0  0  -0.277588  -0.521569  0  2.306921  0
O  O67  1  0.50412264  0.07437419  0.83999002  1  0  -0.596675  0  2.076637  0  0  -0.536483  0  2.297682  0  0  -0.557956  0  2.284108  0  0  -0.277663  -0.52185  0  2.306822  0
O  O68  1  0.04057048  0.24988369  0.42238199  1  0  -0.313185  0  2.342545  0  0  -0.246315  0  2.569734  0  0  -0.263234  0  2.575217  0  0  -0.159414  -0.234462  0  2.565726  0
O  O69  1  0.95941582  0.75011897  0.57761252  1  0  -0.313345  0  2.342563  0  0  -0.246442  0  2.56979  0  0  -0.263351  0  2.575269  0  0  -0.159479  -0.234601  0  2.565805  0
O  O70  1  0.13141680  0.29723272  0.12527737  1  0  -0.701423  0  1.906486  0  0  -0.654106  0  2.134624  0  0  -0.679228  0  2.122486  0  0  -0.361716  -0.636187  0  2.142438  0
O  O71  1  0.86857504  0.70276432  0.87473125  1  0  -0.701247  0  1.906364  0  0  -0.654022  0  2.134653  0  0  -0.679145  0  2.12252  0  0  -0.361682  -0.636104  0  2.142459  0
O  O72  1  0.84268045  0.41237541  0.20251429  1  0  -0.662277  0  1.91446  0  0  -0.625179  0  2.144383  0  0  -0.649189  0  2.13428  0  0  -0.381375  -0.608267  0  2.151078  0
O  O73  1  0.15730768  0.58762158  0.79747324  1  0  -0.662164  0  1.914361  0  0  -0.625043  0  2.144294  0  0  -0.649046  0  2.134197  0  0  -0.381316  -0.608136  0  2.15098  0
O  O74  1  0.11456264  0.57850591  0.07764369  1  0  -0.676352  0  2.000566  0  0  -0.634693  0  2.234438  0  0  -0.659034  0  2.226653  0  0  -0.386899  -0.617438  0  2.239064  0
O  O75  1  0.88541278  0.42150433  0.92235875  1  0  -0.676313  0  2.000706  0  0  -0.634599  0  2.234547  0  0  -0.658939  0  2.226762  0  0  -0.386906  -0.617343  0  2.23917  0
O  O76  1  0.22169247  0.72841318  0.15488220  1  0  -0.66996  0  1.945433  0  0  -0.627117  0  2.178489  0  0  -0.651633  0  2.170514  0  0  -0.372719  -0.609701  0  2.183309  0
O  O77  1  0.77830122  0.27159321  0.84511297  1  0  -0.669801  0  1.94566  0  0  -0.626952  0  2.178729  0  0  -0.651466  0  2.170759  0  0  -0.372629  -0.609537  0  2.183546  0
O  O78  1  0.49831374  0.63120976  0.93171744  1  0  -0.886307  0  1.866612  0  0  -0.846874  0  2.051939  0  0  -0.864271  0  2.022803  0  0  -0.622264  -0.834336  0  2.070884  0
O  O79  1  0.50166765  0.36882865  0.06828405  1  0  -0.886526  0  1.866527  0  0  -0.84706  0  2.051848  0  0  -0.864464  0  2.022549  0  0  -0.622239  -0.83452  0  2.070795  0
O  O80  1  0.33930051  0.90091559  0.97152655  1  0  -0.907842  0  1.925167  0  0  -0.857948  0  2.109185  0  0  -0.878012  0  2.078639  0  0  -0.635321  -0.843664  0  2.13025  0
O  O81  1  0.66070565  0.09908699  0.02846742  1  0  -0.907798  0  1.925193  0  0  -0.857931  0  2.109236  0  0  -0.877996  0  2.078703  0  0  -0.635336  -0.84365  0  2.1303  0
O  O82  1  0.91686757  0.87269148  0.06426840  1  0  -0.908499  0  1.919161  0  0  -0.876452  0  2.115737  0  0  -0.894949  0  2.083884  0  0  -0.653589  -0.863146  0  2.137829  0
O  O83  1  0.08313546  0.12730735  0.93572441  1  0  -0.908561  0  1.919212  0  0  -0.876546  0  2.115695  0  0  -0.895044  0  2.083839  0  0  -0.65362  -0.863236  0  2.137788  0
