# generated using pymatgen
data_CuH20C26S8(NO)14
_symmetry_space_group_name_H-M   'P 1'
_cell_length_a   8.57213685
_cell_length_b   11.39733536
_cell_length_c   11.68828722
_cell_angle_alpha   66.70846857
_cell_angle_beta   71.49208730
_cell_angle_gamma   75.15273998
_symmetry_Int_Tables_number   1
_chemical_formula_structural   CuH20C26S8(NO)14
_chemical_formula_sum   'Cu1 H20 C26 S8 N14 O14'
_cell_volume   983.36289464
_cell_formula_units_Z   1
loop_
 _symmetry_equiv_pos_site_id
 _symmetry_equiv_pos_as_xyz
  1  'x, y, z'
loop_
 _atom_site_type_symbol
 _atom_site_label
 _atom_site_symmetry_multiplicity
 _atom_site_fract_x
 _atom_site_fract_y
 _atom_site_fract_z
 _atom_site_occupancy
 _atom_site_hle17_ddec_charge
 _atom_site_hle17_ddec_spin_density
 _atom_site_hle17_ddec_sum_bond_order
 _atom_site_hle17_magmom
 _atom_site_hse06_10hf_ddec_charge
 _atom_site_hse06_10hf_ddec_spin_density
 _atom_site_hse06_10hf_ddec_sum_bond_order
 _atom_site_hse06_10hf_magmom
 _atom_site_hse06_ddec_charge
 _atom_site_hse06_ddec_spin_density
 _atom_site_hse06_ddec_sum_bond_order
 _atom_site_hse06_magmom
 _atom_site_pbe_cm5_charge
 _atom_site_pbe_ddec_charge
 _atom_site_pbe_ddec_spin_density
 _atom_site_pbe_ddec_sum_bond_order
 _atom_site_pbe_magmom
Cu  Cu0  1  0.50000040  0.00000035  0.49999953  1  0.788149  0.6974  1.883489  0.523  0.744338  0.774151  2.266455  0.624  0.81933  0.839463  2.216468  0.706  0.811576  0.701808  0.726874  2.29869  0.568
H  H1  1  0.13330413  0.14019097  0.48167038  1  0.141471  0.000221  0.938422  0.001  0.140392  8.2e-05  1.013747  0.0  0.143719  6.6e-05  1.009422  0.0  0.133866  0.137951  9.8e-05  1.016836  0.0
H  H2  1  0.86669429  0.85980974  0.51832980  1  0.141453  0.000222  0.938467  0.001  0.140405  8.2e-05  1.01372  0.0  0.143732  6.6e-05  1.009395  0.0  0.133867  0.137963  9.8e-05  1.016809  0.0
H  H3  1  0.20560305  0.65441546  0.89547028  1  0.095793  1.4e-05  0.943571  0.0  0.108343  1.7e-05  1.009017  0.0  0.109168  1.2e-05  1.008986  0.0  0.094084  0.107722  2.8e-05  1.009054  0.0
H  H4  1  0.79439536  0.34558524  0.10452821  1  0.095752  1.4e-05  0.943649  0.0  0.108304  1.7e-05  1.009099  0.0  0.109128  1.3e-05  1.00907  0.0  0.094063  0.107684  2.8e-05  1.009135  0.0
H  H5  1  0.27135084  0.73284507  0.97418804  1  0.096442  3e-05  0.937999  0.0  0.10759  -5e-06  1.003743  0.0  0.108215  -9e-06  1.004358  0.0  0.092966  0.107171  2.6e-05  1.003289  0.0
H  H6  1  0.72864616  0.26715660  0.02581125  1  0.096442  3e-05  0.937977  0.0  0.10758  -5e-06  1.003731  0.0  0.108206  -9e-06  1.004343  0.0  0.092963  0.107162  2.6e-05  1.003276  0.0
H  H7  1  0.00247941  0.55336670  0.10412240  1  0.076647  -4e-06  0.938844  0.0  0.091059  2e-06  1.005594  0.0  0.092062  3e-06  1.0055  0.0  0.088839  0.09033  4e-06  1.005625  0.0
H  H8  1  0.99752062  0.44663208  0.89587731  1  0.076632  -8e-06  0.93888  0.0  0.091045  2e-06  1.005636  0.0  0.092048  3e-06  1.005541  0.0  0.088813  0.090315  4e-06  1.005667  0.0
H  H9  1  0.06266766  0.63621803  0.17950062  1  0.096186  1.9e-05  0.923042  0.0  0.114495  1e-05  0.978887  0.0  0.114621  4e-06  0.97969  0.0  0.097943  0.114278  1.1e-05  0.978505  0.0
H  H10  1  0.93733340  0.36378172  0.82049761  1  0.096172  1.6e-05  0.923086  0.0  0.114471  1e-05  0.97891  0.0  0.114597  5e-06  0.979712  0.0  0.097937  0.114257  1.1e-05  0.978523  0.0
H  H11  1  0.50394995  0.90398644  0.29378140  1  0.155987  0.000187  0.955661  0.001  0.161824  0.000115  1.016536  0.0  0.164283  8.9e-05  1.013992  0.0  0.136319  0.159552  0.000133  1.018941  0.0
H  H12  1  0.49604969  0.09601428  0.70621764  1  0.155966  0.00019  0.955686  0.001  0.161802  0.000115  1.016555  0.0  0.164261  8.9e-05  1.01401  0.0  0.136308  0.159532  0.000133  1.018962  0.0
H  H13  1  0.19711810  0.41735223  0.24537170  1  0.110182  9.6e-05  0.976277  0.0  0.11613  2.5e-05  1.050512  0.0  0.117763  5e-06  1.04989  0.0  0.101267  0.115029  6.3e-05  1.050952  0.0
H  H14  1  0.80288156  0.58264849  0.75462819  1  0.110214  9.6e-05  0.976144  0.0  0.11615  2.4e-05  1.050462  0.0  0.117783  5e-06  1.04984  0.0  0.101286  0.115049  6.3e-05  1.050905  0.0
H  H15  1  0.35604919  0.51298413  0.13951275  1  0.079787  1.5e-05  0.959927  0.0  0.091979  -8e-06  1.027982  0.0  0.091881  -2e-06  1.030109  0.0  0.087074  0.092135  4e-06  1.026398  0.0
H  H16  1  0.64395027  0.48701756  0.86048681  1  0.079744  1.5e-05  0.959958  0.0  0.091934  -8e-06  1.028028  0.0  0.091842  -2e-06  1.03015  0.0  0.08707  0.092092  4e-06  1.026446  0.0
H  H17  1  0.73934801  0.54928905  0.25117523  1  0.137344  -3e-06  0.947608  0.0  0.138174  -4e-06  1.021862  0.0  0.143207  -3e-06  1.015771  0.0  0.121646  0.134636  0.0  1.025952  0.0
H  H18  1  0.26065393  0.45071266  0.74882543  1  0.137381  -2e-06  0.947628  0.0  0.138199  -4e-06  1.021858  0.0  0.143233  -3e-06  1.015765  0.0  0.121655  0.134663  0.0  1.025937  0.0
H  H19  1  0.20232540  0.60928056  0.35817724  1  0.142981  1e-06  0.937532  0.0  0.138736  -1e-05  1.01747  0.0  0.144533  -6e-06  1.010225  0.0  0.121072  0.134535  -1.3e-05  1.02268  0.0
H  H20  1  0.79767587  0.39071824  0.64182302  1  0.142927  2e-06  0.937714  0.0  0.138729  -9e-06  1.01743  0.0  0.144528  -6e-06  1.010184  0.0  0.121066  0.134528  -1.3e-05  1.022646  0.0
C  C21  1  0.13274206  0.06447600  0.57449720  1  0.024119  -0.016273  3.611019  -0.009  -0.0208  -0.005155  3.916674  -0.002  -0.00678  -0.00748  3.924716  -0.004  0.05484  -0.02971  -0.003397  3.91136  -0.001
C  C22  1  0.86725901  0.93552376  0.42550272  1  0.024038  -0.016283  3.611154  -0.009  -0.020835  -0.005155  3.916709  -0.002  -0.006818  -0.00748  3.924754  -0.004  0.054822  -0.029753  -0.003396  3.911422  -0.001
C  C23  1  0.07982514  0.91398499  0.78838282  1  0.069149  0.00408  3.799217  0.006  0.066643  0.002358  4.108648  0.003  0.078398  0.0019  4.121926  0.003  0.119111  0.058722  0.002823  4.099301  0.004
C  C24  1  0.92017489  0.08601379  0.21161689  1  0.069176  0.00408  3.799155  0.006  0.066679  0.002358  4.108575  0.003  0.078433  0.0019  4.121854  0.003  0.119135  0.058758  0.002823  4.099225  0.004
C  C25  1  0.16769687  0.69253823  0.97467384  1  -0.131671  0.000143  3.615572  0.0  -0.165036  0.000134  3.876142  0.0  -0.163553  7.2e-05  3.886902  0.0  -0.146683  -0.165911  0.000184  3.868395  0.0
C  C26  1  0.83230193  0.30746054  0.02532616  1  -0.131608  0.000145  3.615522  0.0  -0.164966  0.000133  3.876098  0.0  -0.163484  7.3e-05  3.886859  0.0  -0.146673  -0.165846  0.000184  3.868363  0.0
C  C27  1  0.10791544  0.59126896  0.10475255  1  -0.09693  -3e-05  3.66893  0.0  -0.132122  8e-06  3.918321  0.0  -0.133245  2e-06  3.932224  0.0  -0.167472  -0.131094  3.1e-05  3.908626  0.0
C  C28  1  0.89208315  0.40873076  0.89524542  1  -0.096933  -1.1e-05  3.66897  0.0  -0.132136  8e-06  3.918341  0.0  -0.133256  2e-06  3.932239  0.0  -0.167443  -0.131109  3.1e-05  3.908651  0.0
C  C29  1  0.45677730  0.00651131  0.26034930  1  0.020065  -0.013055  3.610797  -0.007  -0.024889  -0.004258  3.909303  -0.001  -0.011033  -0.006722  3.91633  -0.003  0.052873  -0.033547  -0.002426  3.904849  0.0
C  C30  1  0.54322113  0.99348941  0.73965088  1  0.020099  -0.013094  3.610774  -0.007  -0.024859  -0.004257  3.909258  -0.001  -0.011005  -0.00672  3.916285  -0.003  0.052898  -0.033521  -0.002425  3.904815  0.0
C  C31  1  0.36311584  0.22869091  0.15665076  1  0.074125  0.004878  3.775457  0.007  0.07221  0.002841  4.088099  0.004  0.083842  0.002175  4.101315  0.003  0.122524  0.06452  0.00345  4.078814  0.005
C  C32  1  0.63688294  0.77130785  0.84334754  1  0.074085  0.004877  3.775561  0.007  0.072161  0.002841  4.088231  0.004  0.083796  0.002175  4.101439  0.003  0.122521  0.064481  0.00345  4.078912  0.005
C  C33  1  0.24351772  0.47893864  0.14630226  1  -0.134058  0.0002  3.60547  0.0  -0.163747  0.00019  3.854647  0.0  -0.163302  0.0001  3.866629  0.0  -0.14841  -0.164006  0.000288  3.846225  0.0
C  C34  1  0.75648211  0.52106111  0.85369711  1  -0.134041  0.000194  3.605406  0.0  -0.163685  0.00019  3.85465  0.0  -0.163245  0.000101  3.866629  0.0  -0.148405  -0.163948  0.000288  3.846237  0.0
C  C35  1  0.47491551  0.32475952  0.45804237  1  0.347701  -0.001138  3.857919  -0.001  0.325734  -0.001021  4.13594  -0.001  0.349899  -0.000815  4.144937  -0.001  0.125071  0.309715  -0.001052  4.129146  -0.001
C  C36  1  0.52508415  0.67524120  0.54195752  1  0.347272  -0.00117  3.85969  -0.001  0.3258  -0.001012  4.135809  -0.001  0.349959  -0.000826  4.144812  -0.001  0.125082  0.309782  -0.001052  4.129014  -0.001
C  C37  1  0.62555209  0.38265082  0.38265051  1  -0.035457  0.000209  3.62663  0.0  -0.049552  2.2e-05  3.884051  0.0  -0.061183  -2.6e-05  3.90469  0.0  0.064089  -0.041427  2.2e-05  3.869542  0.0
C  C38  1  0.37444859  0.61735086  0.61734790  1  -0.035497  0.000236  3.626282  0.0  -0.049618  1.7e-05  3.883886  0.0  -0.061241  -1.6e-05  3.904523  0.0  0.064048  -0.041491  2.2e-05  3.869371  0.0
C  C39  1  0.62360747  0.51053404  0.30427663  1  -0.099602  -0.000165  3.744303  0.0  -0.14635  -2.1e-05  4.02408  0.0  -0.134882  -1.2e-05  4.03672  0.0  -0.070252  -0.153083  -3.7e-05  4.014103  0.0
C  C40  1  0.37639324  0.48946766  0.69572433  1  -0.099691  -0.000205  3.744147  0.0  -0.14643  -1.7e-05  4.024034  0.0  -0.134967  -2.1e-05  4.036672  0.0  -0.070255  -0.153161  -3.7e-05  4.01406  0.0
C  C41  1  0.47172337  0.59116157  0.29488815  1  0.035226  0.00052  3.755377  0.001  0.026422  2.7e-05  4.022286  0.0  0.013898  -5.6e-05  4.046533  0.0  0.06043  0.034607  8.5e-05  4.005407  0.0
C  C42  1  0.52827528  0.40883821  0.70511577  1  0.035278  0.00054  3.755265  0.001  0.026484  2.6e-05  4.022229  0.0  0.013963  -5.1e-05  4.046474  0.0  0.060362  0.034669  8.5e-05  4.005359  0.0
C  C43  1  0.31995556  0.54494202  0.36480067  1  -0.0901  -0.000577  3.718492  0.0  -0.132107  -0.000256  3.992668  0.0  -0.12161  -0.000176  4.006126  0.0  -0.066827  -0.138648  -0.000234  3.983042  0.0
C  C44  1  0.68004326  0.45505677  0.63520103  1  -0.090834  -0.00062  3.721406  0.0  -0.132117  -0.000245  3.992628  0.0  -0.121627  -0.000185  4.006099  0.0  -0.06685  -0.13866  -0.000234  3.983011  0.0
C  C45  1  0.32385485  0.41844837  0.44455066  1  -0.035156  0.000539  3.642315  0.001  -0.050859  0.000121  3.893696  0.0  -0.063419  5.7e-05  3.914326  0.0  0.066753  -0.042875  0.000233  3.87997  0.0
C  C46  1  0.67614541  0.58154948  0.55545279  1  -0.045366  0.000564  3.63619  0.001  -0.050927  0.000113  3.893624  0.0  -0.063489  6.4e-05  3.914256  0.0  0.066817  -0.04294  0.000233  3.8799  0.0
S  S47  1  0.95648719  0.03661617  0.69474382  1  0.204615  0.003107  2.574477  0.006  0.208154  0.002428  2.912277  0.004  0.205794  0.000981  2.9103  0.003  0.149629  0.209012  0.003759  2.914018  0.005
S  S48  1  0.04351265  0.96338358  0.30525641  1  0.204641  0.003109  2.574425  0.006  0.208173  0.002428  2.912256  0.004  0.205812  0.000982  2.910281  0.003  0.149632  0.209033  0.00376  2.913995  0.005
S  S49  1  0.99482083  0.82291837  0.94440706  1  0.055199  0.002326  2.412375  0.003  0.046633  0.001063  2.747476  0.001  0.038476  0.000752  2.748028  0.001  0.041954  0.052712  0.001473  2.74673  0.002
S  S50  1  0.00517776  0.17708136  0.05559091  1  0.055164  0.002323  2.41237  0.003  0.046592  0.001065  2.747454  0.001  0.038434  0.000751  2.748005  0.001  0.041954  0.052672  0.001473  2.746709  0.002
S  S51  1  0.42475713  0.09155557  0.11109837  1  0.170723  0.003646  2.615082  0.006  0.162846  0.002804  2.968109  0.004  0.162264  0.001238  2.963567  0.003  0.135535  0.162253  0.004317  2.972048  0.006
S  S52  1  0.57524187  0.90844224  0.88890197  1  0.170689  0.00365  2.615074  0.006  0.162817  0.002803  2.968111  0.004  0.162233  0.001239  2.96357  0.003  0.13551  0.162225  0.004318  2.972051  0.006
S  S53  1  0.30143717  0.37648928  0.04840174  1  0.049064  0.003461  2.421907  0.004  0.046369  0.001257  2.765271  0.001  0.036626  0.000844  2.768842  0.001  0.039692  0.052408  0.001848  2.763865  0.002
S  S54  1  0.69856369  0.62351142  0.95159530  1  0.049065  0.003465  2.422026  0.004  0.046372  0.001257  2.765371  0.001  0.036628  0.000841  2.768941  0.001  0.039682  0.052412  0.001849  2.763961  0.002
N  N55  1  0.26607485  0.98681494  0.60664221  1  -0.154493  0.076956  3.346792  0.1  -0.119264  0.052204  3.665774  0.072  -0.14433  0.042929  3.689461  0.063  -0.247438  -0.104858  0.058028  3.651463  0.076
N  N56  1  0.73392727  0.01318579  0.39335794  1  -0.154561  0.076959  3.346888  0.1  -0.119308  0.052207  3.665868  0.072  -0.144375  0.042929  3.689556  0.063  -0.247455  -0.104905  0.05803  3.651556  0.076
N  N57  1  0.23842434  0.89914345  0.72826483  1  -0.209082  0.002348  2.998226  0.003  -0.192721  0.002128  3.281407  0.002  -0.202274  0.000754  3.30182  0.001  -0.222253  -0.185733  0.003394  3.267763  0.003
N  N58  1  0.76157514  0.10085825  0.27173643  1  -0.209038  0.00235  2.998222  0.003  -0.192676  0.002128  3.281375  0.002  -0.202229  0.000754  3.301789  0.001  -0.222232  -0.185686  0.003394  3.267731  0.003
N  N59  1  0.42300238  0.07728437  0.33290285  1  -0.156402  0.076447  3.326337  0.099  -0.119737  0.053377  3.643759  0.073  -0.144838  0.043228  3.667493  0.064  -0.240641  -0.105267  0.058834  3.629046  0.077
N  N60  1  0.57699934  0.92271828  0.66709493  1  -0.156405  0.07647  3.326219  0.099  -0.119748  0.053379  3.643667  0.073  -0.144849  0.043231  3.6674  0.064  -0.240651  -0.105278  0.058834  3.628961  0.077
N  N61  1  0.36930285  0.20509803  0.27547225  1  -0.208681  0.004449  2.97346  0.005  -0.194144  0.003905  3.261584  0.004  -0.203165  0.002015  3.279647  0.002  -0.216857  -0.187676  0.005525  3.24957  0.006
N  N62  1  0.63069555  0.79490266  0.72452539  1  -0.208635  0.004449  2.973358  0.005  -0.194076  0.003904  3.261453  0.004  -0.203098  0.002015  3.279515  0.002  -0.21683  -0.187608  0.005524  3.24944  0.006
N  N63  1  0.78694422  0.30425680  0.38890863  1  0.487287  -5.5e-05  3.947196  0.0  0.535102  -3.1e-05  4.221649  0.0  0.554096  -1.2e-05  4.231843  0.0  0.049321  0.520315  -8.3e-05  4.215453  0.0
N  N64  1  0.21305401  0.69574487  0.61109037  1  0.48749  -6e-05  3.946764  0.0  0.53528  -3.1e-05  4.221316  0.0  0.554271  -1.3e-05  4.231501  0.0  0.049402  0.52049  -8.3e-05  4.215117  0.0
N  N65  1  0.47093832  0.72219103  0.20972385  1  0.487971  -0.000287  3.927003  0.0  0.520132  -0.000116  4.221229  0.0  0.542299  -5.4e-05  4.231374  0.0  0.03276  0.504912  -0.00014  4.214606  0.0
N  N66  1  0.52906173  0.27780776  0.79027756  1  0.487847  -0.00028  3.927113  0.0  0.519989  -0.000116  4.221382  0.0  0.542156  -5.4e-05  4.231525  0.0  0.032717  0.504772  -0.00014  4.214768  0.0
N  N67  1  0.16657320  0.37160650  0.51889560  1  0.49516  -0.000111  3.950481  0.0  0.554089  -5.6e-05  4.198798  0.0  0.5775  -3.9e-05  4.205492  0.0  0.05317  0.538152  -8.5e-05  4.194442  0.0
N  N68  1  0.83342745  0.62838941  0.48110937  1  0.532709  -0.000103  3.890331  0.0  0.554263  -5.6e-05  4.198598  0.0  0.577676  -3.8e-05  4.205291  0.0  0.053279  0.538325  -8.5e-05  4.194242  0.0
O  O69  1  0.79937081  0.21486451  0.49152332  1  -0.348237  -0.000131  1.809525  0.0  -0.342706  -0.000101  2.034622  0.0  -0.352973  -0.000109  2.031827  0.0  -0.131711  -0.334642  -9e-05  2.036463  0.0
O  O70  1  0.20063110  0.78513718  0.50847480  1  -0.348334  -0.000112  1.809405  0.0  -0.342774  -0.000105  2.034541  0.0  -0.353039  -9.9e-05  2.031743  0.0  -0.131766  -0.334712  -9e-05  2.036378  0.0
O  O71  1  0.90511336  0.33073450  0.29209718  1  -0.357383  0.000103  1.763523  0.0  -0.347993  1.6e-05  1.97517  0.0  -0.357684  9e-06  1.972067  0.0  -0.135656  -0.340536  -3.1e-05  1.977371  0.0
O  O72  1  0.09488609  0.66926718  0.70790152  1  -0.357431  9.2e-05  1.763462  0.0  -0.348023  1.8e-05  1.975116  0.0  -0.35772  3e-06  1.972017  0.0  -0.13564  -0.340572  -3.1e-05  1.977319  0.0
O  O73  1  0.60609244  0.76639452  0.16050249  1  -0.39388  0.000257  1.777022  0.0  -0.376061  9.4e-05  2.0006  0.0  -0.38744  3.5e-05  1.995958  0.0  -0.151652  -0.368365  0.00037  2.004331  0.0
O  O74  1  0.39390598  0.23360618  0.83949685  1  -0.393839  0.000254  1.777151  0.0  -0.37599  9.5e-05  2.000687  0.0  -0.387371  3.4e-05  1.996054  0.0  -0.151594  -0.368293  0.00037  2.004416  0.0
O  O75  1  0.33574407  0.78683048  0.18598310  1  -0.395521  -0.00024  1.764342  0.0  -0.384503  -0.000173  1.987453  0.0  -0.396079  -0.000153  1.984364  0.0  -0.156333  -0.376988  -0.000134  1.990076  0.0
O  O76  1  0.66425597  0.21316831  0.81401746  1  -0.395423  -0.000253  1.764382  0.0  -0.384446  -0.000173  1.987521  0.0  -0.39602  -0.000157  1.984433  0.0  -0.156307  -0.376918  -0.000134  1.990123  0.0
O  O77  1  0.05865624  0.39047714  0.46039150  1  -0.353708  0.000108  1.789709  0.0  -0.347518  3.2e-05  1.994188  0.0  -0.362685  2.1e-05  1.992354  0.0  -0.12673  -0.337371  4e-06  1.995629  0.0
O  O78  1  0.94134640  0.60951490  0.53961280  1  -0.366306  0.000112  1.770973  0.0  -0.347545  3.3e-05  1.994235  0.0  -0.362709  2.1e-05  1.992398  0.0  -0.126751  -0.337397  4e-06  1.995676  0.0
O  O79  1  0.14955375  0.31427817  0.63596279  1  -0.326258  -7e-05  1.757622  0.0  -0.324302  -6.8e-05  1.949352  0.0  -0.335666  -6.9e-05  1.945115  0.0  -0.115933  -0.316482  -3.6e-05  1.952247  0.0
O  O80  1  0.85045078  0.68571680  0.36404162  1  -0.339113  -8.2e-05  1.738845  0.0  -0.324463  -7.1e-05  1.949174  0.0  -0.335823  -6.7e-05  1.944925  0.0  -0.116049  -0.316647  -3.6e-05  1.952075  0.0
O  O81  1  0.47112891  0.20754269  0.52303678  1  -0.520843  -0.000899  2.091392  0.001  -0.510791  -0.001057  2.364589  0.001  -0.536039  -0.00128  2.358864  0.0  -0.303769  -0.493337  -0.000715  2.367753  0.001
O  O82  1  0.52887568  0.79245806  0.47696363  1  -0.521094  -0.00089  2.092053  0.001  -0.510802  -0.001058  2.364554  0.001  -0.536049  -0.001278  2.358829  0.0  -0.303778  -0.493335  -0.000715  2.367687  0.001
