# generated using pymatgen
data_CdH3C2N4Cl
_symmetry_space_group_name_H-M   'P 1'
_cell_length_a   18.32914403
_cell_length_b   18.32917068
_cell_length_c   18.32916863
_cell_angle_alpha   61.38037321
_cell_angle_beta   74.89991368
_cell_angle_gamma   105.09988881
_symmetry_Int_Tables_number   1
_chemical_formula_structural   CdH3C2N4Cl
_chemical_formula_sum   'Cd24 H72 C48 N96 Cl24'
_cell_volume   4648.36657414
_cell_formula_units_Z   24
loop_
 _symmetry_equiv_pos_site_id
 _symmetry_equiv_pos_as_xyz
  1  'x, y, z'
loop_
 _atom_site_type_symbol
 _atom_site_label
 _atom_site_symmetry_multiplicity
 _atom_site_fract_x
 _atom_site_fract_y
 _atom_site_fract_z
 _atom_site_occupancy
 _atom_site_pbe_bader_charge
 _atom_site_pbe_bader_spin_density
 _atom_site_pbe_cm5_charge
 _atom_site_pbe_ddec_charge
 _atom_site_pbe_ddec_spin_density
 _atom_site_pbe_ddec_sum_bond_order
 _atom_site_pbe_magmom
Cd  Cd0  1  0.48557821  0.78435491  0.09207927  1  1.200335  0  0.687719  0.667988  0  2.527349  0
Cd  Cd1  1  0.51442395  0.42234391  0.70122462  1  1.202067  0  0.687716  0.668034  0  2.527321  0
Cd  Cd2  1  0.12356749  0.70122577  0.78435384  1  1.20115  0  0.687712  0.668028  0  2.52726  0
Cd  Cd3  1  0.87643117  0.09207807  0.42234136  1  1.202695  0  0.687711  0.668039  0  2.527228  0
Cd  Cd4  1  0.37800822  0.84807332  0.93700921  1  1.201219  0  0.689529  0.716615  0  2.44294  0
Cd  Cd5  1  0.62199259  0.68498280  0.52993629  1  1.201856  0  0.689537  0.716632  0  2.44292  0
Cd  Cd6  1  0.21491945  0.52993674  0.84807212  1  1.201145  0  0.68953  0.716609  0  2.442989  0
Cd  Cd7  1  0.78507945  0.93701017  0.68498235  1  1.200458  0  0.689552  0.716633  0  2.44294  0
Cd  Cd8  1  0.20653424  0.87698588  0.86499602  1  1.193884  0  0.688002  0.652014  0  2.5817  0
Cd  Cd9  1  0.79346648  0.92847048  0.32954589  1  1.192161  0  0.688013  0.652022  0  2.581665  0
Cd  Cd10  1  0.25802121  0.32954889  0.87698583  1  1.194156  0  0.687992  0.651956  0  2.581742  0
Cd  Cd11  1  0.74198100  0.86499610  0.92847019  1  1.196134  0  0.688009  0.651986  0  2.581725  0
Cd  Cd12  1  0.25847087  0.12299250  0.67015507  1  1.193621  0  0.688328  0.652003  0  2.588167  0
Cd  Cd13  1  0.74153070  0.07137589  0.13547649  1  1.194904  0  0.688321  0.651976  0  2.588147  0
Cd  Cd14  1  0.20685498  0.13547778  0.12299192  1  1.193143  0  0.688331  0.652068  0  2.588115  0
Cd  Cd15  1  0.79314561  0.67015495  0.07137812  1  1.192573  0  0.688301  0.65201  0  2.588137  0
Cd  Cd16  1  0.21471776  0.15123484  0.47038092  1  1.19927  0  0.688762  0.717621  0  2.448837  0
Cd  Cd17  1  0.78528274  0.31490189  0.06348203  1  1.199426  0  0.688768  0.717651  0  2.448803  0
Cd  Cd18  1  0.37838422  0.06348259  0.15123448  1  1.20018  0  0.688765  0.717615  0  2.448859  0
Cd  Cd19  1  0.62161517  0.47038023  0.31490265  1  1.199611  0  0.688765  0.717633  0  2.448812  0
Cd  Cd20  1  0.12404260  0.21560079  0.29890342  1  1.199814  0  0.686278  0.666358  0  2.530606  0
Cd  Cd21  1  0.87595657  0.57705448  0.90844213  1  1.201621  0  0.686277  0.666342  0  2.530703  0
Cd  Cd22  1  0.48549418  0.90844354  0.21559984  1  1.199498  0  0.686291  0.666346  0  2.530669  0
Cd  Cd23  1  0.51450812  0.29890520  0.57705206  1  1.200739  0  0.686275  0.666368  0  2.530672  0
H  H24  1  0.42999082  0.47887672  0.34677866  1  0.053428  0  0.100061  0.151162  0  1.004782  0
H  H25  1  0.57001010  0.22322841  0.95111246  1  0.053846  0  0.100068  0.151194  0  1.004737  0
H  H26  1  0.17434658  0.95111480  0.47887650  1  0.061998  0  0.100069  0.151171  0  1.0048  0
H  H27  1  0.82564897  0.34677419  0.22323376  1  0.062894  0  0.100082  0.151193  0  1.004739  0
H  H28  1  0.38521329  0.51071558  0.26741282  1  0.073603  0  0.105516  0.162218  0  0.975027  0
H  H29  1  0.61478868  0.34737277  0.87449748  1  0.086645  0  0.105513  0.162213  0  0.975012  0
H  H30  1  0.22187460  0.87449988  0.51071465  1  0.076408  0  0.105487  0.16215  0  0.975072  0
H  H31  1  0.77812132  0.26740590  0.34737697  1  0.086842  0  0.105488  0.162132  0  0.975131  0
H  H32  1  0.41222535  0.57957102  0.30738913  1  0.112612  0  0.096519  0.165705  0  1.01212  0
H  H33  1  0.58777467  0.28038586  0.83265340  1  0.097703  0  0.096513  0.165678  0  1.012155  0
H  H34  1  0.11304296  0.83265592  0.57957265  1  0.134278  0  0.096515  0.165651  0  1.012231  0
H  H35  1  0.88695365  0.30738357  0.28038875  1  0.106345  0  0.096554  0.165718  0  1.012134  0
H  H36  1  0.49732175  0.91555615  0.71822545  1  0.064521  0  0.100624  0.151242  0  1.00369  0
H  H37  1  0.50267662  0.78445477  0.58176026  1  0.06111  0  0.100606  0.151202  0  1.003765  0
H  H38  1  0.36621960  0.58176725  0.91555779  1  0.069159  0  0.100624  0.151259  0  1.003645  0
H  H39  1  0.63377874  0.71822185  0.78445214  1  0.062659  0  0.100651  0.151302  0  1.003635  0
H  H40  1  0.55359891  0.85761922  0.69347374  1  0.043989  0  0.096497  0.138671  0  1.013677  0
H  H41  1  0.44639906  0.75292961  0.69597488  1  0.045767  0  0.09651  0.138686  0  1.013565  0
H  H42  1  0.44890835  0.69598097  0.85762030  1  0.031836  0  0.096494  0.138704  0  1.013723  0
H  H43  1  0.55109023  0.69347008  0.75292631  1  0.034084  0  0.096506  0.138726  0  1.013636  0
H  H44  1  0.61000261  0.97694886  0.64447662  1  0.112177  0  0.098018  0.159477  0  1.008783  0
H  H45  1  0.38999531  0.74551987  0.63304990  1  0.102079  0  0.098007  0.159459  0  1.008725  0
H  H46  1  0.37857509  0.63305509  0.97694909  1  0.113702  0  0.098042  0.159518  0  1.008784  0
H  H47  1  0.62142572  0.64447753  0.74551672  1  0.10299  0  0.098044  0.159505  0  1.008845  0
H  H48  1  0.34660876  0.10118896  0.96139642  1  0.069417  0  0.0945  0.147475  0  1.023519  0
H  H49  1  0.65339223  0.69199366  0.24542260  1  0.078549  0  0.094504  0.147508  0  1.023546  0
H  H50  1  0.93741429  0.24542105  0.10118523  1  0.082197  0  0.094474  0.147482  0  1.023556  0
H  H51  1  0.06258486  0.96140319  0.69199151  1  0.081417  0  0.094489  0.147515  0  1.023508  0
H  H52  1  0.31431862  0.01912639  0.93663248  1  0.102309  0  0.09658  0.158724  0  1.009962  0
H  H53  1  0.68568265  0.74904731  0.29519619  1  0.123459  0  0.096572  0.158706  0  1.009937  0
H  H54  1  0.04424150  0.29519570  0.01912060  1  0.102761  0  0.096582  0.158747  0  1.009901  0
H  H55  1  0.95575770  0.93664060  0.74904396  1  0.116026  0  0.096572  0.158727  0  1.00995  0
H  H56  1  0.41588538  0.11930422  0.85904826  1  0.091886  0  0.094081  0.146163  0  1.005015  0
H  H57  1  0.58411543  0.72506360  0.29658735  1  0.084115  0  0.094096  0.146205  0  1.005014  0
H  H58  1  0.02164909  0.29658573  0.11929806  1  0.084712  0  0.094065  0.146144  0  1.005093  0
H  H59  1  0.97834993  0.85905579  0.72506191  1  0.084799  0  0.09406  0.146142  0  1.005011  0
H  H60  1  0.14355387  0.27636164  0.77349720  1  0.109369  0  0.100879  0.167473  0  0.988061  0
H  H61  1  0.85644931  0.08295348  0.86718960  1  0.1038  0  0.100909  0.167515  0  0.988013  0
H  H62  1  0.95014389  0.86718471  0.27636314  1  0.111401  0  0.100906  0.167492  0  0.988025  0
H  H63  1  0.04985749  0.77348981  0.08295975  1  0.107401  0  0.100894  0.167467  0  0.988014  0
H  H64  1  0.12678786  0.16112894  0.85264962  1  0.125902  0  0.099582  0.168637  0  0.988924  0
H  H65  1  0.87321473  0.02056593  0.96565667  1  0.106895  0  0.099584  0.168654  0  0.988915  0
H  H66  1  0.98622477  0.96565260  0.16112961  1  0.103677  0  0.099574  0.168631  0  0.98894  0
H  H67  1  0.01377885  0.85264452  0.02057288  1  0.115132  0  0.099569  0.168603  0  0.988969  0
H  H68  1  0.13934703  0.20005616  0.73834377  1  0.08123  0  0.096117  0.163302  0  1.004664  0
H  H69  1  0.86065494  0.12231170  0.93929015  1  0.070621  0  0.096112  0.163317  0  1.004638  0
H  H70  1  0.06160421  0.93928562  0.20005668  1  0.06531  0  0.096106  0.163276  0  1.004598  0
H  H71  1  0.93839765  0.73833753  0.12231915  1  0.097072  0  0.096088  0.163237  0  1.004648  0
H  H72  1  0.37753762  0.10263908  0.40732958  1  0.074249  0  0.099482  0.147995  0  1.007003  0
H  H73  1  0.62246272  0.21513679  0.27489327  1  0.078406  0  0.099467  0.148004  0  1.007019  0
H  H74  1  0.49002513  0.27489104  0.10264602  1  0.084323  0  0.099444  0.147971  0  1.00702  0
H  H75  1  0.50997344  0.40732957  0.21513680  1  0.066842  0  0.099473  0.14798  0  1.007018  0
H  H76  1  0.44836472  0.12971986  0.29979207  1  0.054619  0  0.09885  0.146998  0  1.003016  0
H  H77  1  0.55163579  0.25184703  0.31863966  1  0.084964  0  0.098831  0.146978  0  1.003043  0
H  H78  1  0.57048222  0.31863982  0.12972533  1  0.044737  0  0.098844  0.147014  0  1.002995  0
H  H79  1  0.42951549  0.29979398  0.25184530  1  0.06487  0  0.098855  0.147024  0  1.002967  0
H  H80  1  0.36607008  0.01545073  0.38608492  1  0.093392  0  0.101883  0.161741  0  0.995712  0
H  H81  1  0.63392813  0.24784685  0.35061647  1  0.088476  0  0.101868  0.161701  0  0.995743  0
H  H82  1  0.59845769  0.35061391  0.01545655  1  0.108928  0  0.101905  0.161735  0  0.995734  0
H  H83  1  0.40153932  0.38608617  0.24784631  1  0.095195  0  0.101917  0.161771  0  0.995651  0
H  H84  1  0.22855055  0.49795083  0.11487483  1  0.061082  0  0.105113  0.163609  0  0.973646  0
H  H85  1  0.77144338  0.65657308  0.73060451  1  0.064648  0  0.105136  0.163623  0  0.97371  0
H  H86  1  0.38717413  0.73059930  0.49795147  1  0.056258  0  0.105099  0.163574  0  0.973685  0
H  H87  1  0.61282755  0.11487283  0.65657092  1  0.061989  0  0.105134  0.163628  0  0.973784  0
H  H88  1  0.11897639  0.42156103  0.17078214  1  0.118618  0  0.096504  0.165029  0  1.013717  0
H  H89  1  0.88101962  0.71024010  0.69741569  1  0.116446  0  0.096503  0.164965  0  1.013674  0
H  H90  1  0.40765414  0.69741363  0.42156344  1  0.110922  0  0.096516  0.165014  0  1.013695  0
H  H91  1  0.59234679  0.17078123  0.71023655  1  0.112355  0  0.096503  0.165008  0  1.013727  0
H  H92  1  0.16902503  0.51801164  0.05054348  1  0.054306  0  0.101041  0.153099  0  0.997935  0
H  H93  1  0.83096959  0.78042988  0.65101644  1  0.066748  0  0.101034  0.153074  0  0.998003  0
H  H94  1  0.43144320  0.65101166  0.51801367  1  0.076396  0  0.101055  0.153085  0  0.997993  0
H  H95  1  0.56855542  0.05054119  0.78042841  1  0.076016  0  0.101039  0.153096  0  0.997988  0
C  C96  1  0.51838840  0.59609009  0.20781966  1  0.969048  0  0.228516  0.373308  0  3.967157  0
C  C97  1  0.48161290  0.27379135  0.92229914  1  0.946391  0  0.228588  0.373415  0  3.967047  0
C  C98  1  0.19609662  0.92230080  0.59608776  1  0.949123  0  0.228535  0.373294  0  3.967345  0
C  C99  1  0.80390350  0.20781683  0.27379211  1  0.955191  0  0.228609  0.3734  0  3.967166  0
C  C100  1  0.43171845  0.53768173  0.28697633  1  -0.027634  0  -0.229643  -0.45934  0  3.901304  0
C  C101  1  0.56828289  0.28130471  0.89403592  1  -0.024556  0  -0.229639  -0.459371  0  3.901222  0
C  C102  1  0.17534600  0.89403932  0.53768095  1  -0.053743  0  -0.229676  -0.459293  0  3.90151  0
C  C103  1  0.82465107  0.28697099  0.28130808  1  -0.041964  0  -0.229717  -0.459351  0  3.90143  0
C  C104  1  0.57203877  0.88553578  0.78958547  1  0.950176  0  0.226803  0.365339  0  3.983168  0
C  C105  1  0.42796057  0.63837657  0.68650033  1  0.95532  0  0.226709  0.36524  0  3.983361  0
C  C106  1  0.32488023  0.68650528  0.88553591  1  0.950233  0  0.22676  0.365312  0  3.983056  0
C  C107  1  0.67511952  0.78958547  0.63837509  1  0.951075  0  0.226771  0.365299  0  3.983145  0
C  C108  1  0.55690735  0.91041797  0.70692820  1  -0.045138  0  -0.232124  -0.458783  0  3.914816  0
C  C109  1  0.44309120  0.73616527  0.64648482  1  -0.03139  0  -0.23208  -0.458695  0  3.91472  0
C  C110  1  0.38265518  0.64649013  0.91041953  1  -0.042337  0  -0.23214  -0.458893  0  3.914863  0
C  C111  1  0.61734415  0.70692571  0.73616428  1  -0.033699  0  -0.232208  -0.458962  0  3.914844  0
C  C112  1  0.40627852  0.01259304  0.98700924  1  0.970388  0  0.234188  0.393698  0  3.92807  0
C  C113  1  0.59372332  0.60671033  0.39368866  1  0.966044  0  0.234195  0.393765  0  3.928023  0
C  C114  1  0.00039769  0.39368822  0.01258766  1  0.991371  0  0.234184  0.393665  0  3.928217  0
C  C115  1  0.99960210  0.98701676  0.60670814  1  0.986847  0  0.234212  0.393759  0  3.928135  0
C  C116  1  0.36885357  0.06635590  0.93270251  1  -0.059354  0  -0.234655  -0.453836  0  3.892928  0
C  C117  1  0.63114615  0.69844101  0.30250228  1  -0.084644  0  -0.234644  -0.453913  0  3.893001  0
C  C118  1  0.00094181  0.30250144  0.06634994  1  -0.071538  0  -0.234571  -0.453803  0  3.892986  0
C  C119  1  0.99905673  0.93271012  0.69843919  1  -0.086864  0  -0.234595  -0.453878  0  3.893006  0
C  C120  1  0.25309996  0.25476178  0.74511275  1  0.940109  0  0.237183  0.392961  0  3.947166  0
C  C121  1  0.74690236  0.00179087  0.99833581  1  0.998412  0  0.23724  0.393046  0  3.947078  0
C  C122  1  0.00012672  0.99833287  0.25476170  1  0.970549  0  0.237166  0.392987  0  3.947099  0
C  C123  1  0.99987215  0.74510844  0.00179546  1  0.992252  0  0.237168  0.392946  0  3.947141  0
C  C124  1  0.16034473  0.22134041  0.77886992  1  -0.073974  0  -0.233527  -0.472978  0  3.897058  0
C  C125  1  0.83965717  0.06078846  0.93900346  1  -0.055531  0  -0.233603  -0.473115  0  3.897024  0
C  C126  1  0.99979297  0.93900001  0.22134124  1  -0.051873  0  -0.233585  -0.473005  0  3.897004  0
C  C127  1  0.00020890  0.77886416  0.06079284  1  -0.090914  0  -0.233534  -0.472885  0  3.896985  0
C  C128  1  0.32495807  0.11427458  0.31386306  1  0.954039  0  0.226078  0.362032  0  3.987048  0
C  C129  1  0.67504151  0.36118219  0.21067976  1  0.962303  0  0.225995  0.361835  0  3.987252  0
C  C130  1  0.57185956  0.21067963  0.11427829  1  0.957581  0  0.226001  0.361934  0  3.987014  0
C  C131  1  0.42813886  0.31386127  0.36118199  1  0.964746  0  0.22596  0.36182  0  3.98738  0
C  C132  1  0.38245080  0.08941894  0.35439478  1  -0.047331  0  -0.230662  -0.459631  0  3.917668  0
C  C133  1  0.61754840  0.26315777  0.29302820  1  -0.080278  0  -0.230634  -0.459575  0  3.917761  0
C  C134  1  0.55618244  0.29302676  0.08942362  1  -0.058422  0  -0.230642  -0.459612  0  3.917662  0
C  C135  1  0.44381458  0.35439311  0.26315842  1  -0.047127  0  -0.230742  -0.459695  0  3.917717  0
C  C136  1  0.19620295  0.40433560  0.07727394  1  0.938592  0  0.227462  0.369379  0  3.970439  0
C  C137  1  0.80379567  0.72652384  0.79186909  1  0.960088  0  0.22743  0.369231  0  3.970731  0
C  C138  1  0.51838985  0.79186552  0.40433600  1  0.963193  0  0.227484  0.369339  0  3.970491  0
C  C139  1  0.48161110  0.07727505  0.72651931  1  0.95387  0  0.22747  0.369428  0  3.970453  0
C  C140  1  0.17716505  0.46400310  0.10459444  1  -0.033637  0  -0.229767  -0.461204  0  3.897067  0
C  C141  1  0.82282923  0.71823908  0.71316568  1  -0.047144  0  -0.229776  -0.461117  0  3.897161  0
C  C142  1  0.43140095  0.71316130  0.46400497  1  -0.037884  0  -0.229792  -0.46114  0  3.897129  0
C  C143  1  0.56859965  0.10459323  0.71823598  1  -0.031633  0  -0.229786  -0.461233  0  3.897268  0
N  N144  1  0.54512239  0.68101025  0.12942787  1  -0.721532  0  -0.231722  -0.247019  0  3.383184  0
N  N145  1  0.45487831  0.32544940  0.86411360  1  -0.712361  0  -0.231755  -0.247094  0  3.383335  0
N  N146  1  0.18956478  0.86411589  0.68100835  1  -0.699901  0  -0.231699  -0.246927  0  3.383349  0
N  N147  1  0.81043477  0.12942517  0.32544838  1  -0.720069  0  -0.231775  -0.247115  0  3.383256  0
N  N148  1  0.62678329  0.71032806  0.07626323  1  -0.152902  0  -0.10265  -0.051981  0  3.408981  0
N  N149  1  0.37321819  0.29695523  0.91645571  1  -0.163796  0  -0.10262  -0.051927  0  3.409008  0
N  N150  1  0.21341249  0.91645655  0.71032748  1  -0.161445  0  -0.102669  -0.052066  0  3.408893  0
N  N151  1  0.78658833  0.07625941  0.29695405  1  -0.148252  0  -0.10263  -0.051961  0  3.409006  0
N  N152  1  0.64902210  0.64605660  0.11990003  1  -0.181282  0  -0.114928  -0.053385  0  3.493327  0
N  N153  1  0.35097978  0.23107977  0.00296651  1  -0.161967  0  -0.115018  -0.053597  0  3.493367  0
N  N154  1  0.23404748  0.00296755  0.64605528  1  -0.17713  0  -0.114962  -0.053401  0  3.493188  0
N  N155  1  0.76595290  0.11989729  0.23107800  1  -0.174635  0  -0.114939  -0.053363  0  3.493119  0
N  N156  1  0.58303846  0.57360348  0.20251542  1  -0.71704  0  -0.230001  -0.27628  0  3.346091  0
N  N157  1  0.41696404  0.21444801  0.00943523  1  -0.71464  0  -0.229967  -0.276135  0  3.345854  0
N  N158  1  0.22388455  0.00943719  0.57360207  1  -0.720465  0  -0.229934  -0.276175  0  3.345887  0
N  N159  1  0.77611492  0.20251296  0.21444697  1  -0.717233  0  -0.229988  -0.276267  0  3.345893  0
N  N160  1  0.51777481  0.86435834  0.87040202  1  -0.677389  0  -0.229657  -0.265754  0  3.375152  0
N  N161  1  0.48222608  0.61182497  0.65341522  1  -0.68  0  -0.22963  -0.265692  0  3.375154  0
N  N162  1  0.26524179  0.65341794  0.86435747  1  -0.671369  0  -0.22962  -0.265702  0  3.374968  0
N  N163  1  0.73475768  0.87040172  0.61182221  1  -0.712737  0  -0.229596  -0.265661  0  3.37503  0
N  N164  1  0.55658505  0.84738302  0.92526766  1  -0.200218  0  -0.104081  -0.045639  0  3.417531  0
N  N165  1  0.44341640  0.51814766  0.70920254  1  -0.196656  0  -0.104102  -0.045733  0  3.417484  0
N  N166  1  0.22735050  0.70920374  0.84738237  1  -0.200775  0  -0.104081  -0.045609  0  3.417538  0
N  N167  1  0.77264971  0.92526777  0.51814596  1  -0.159496  0  -0.104075  -0.045618  0  3.417595  0
N  N168  1  0.63096877  0.85744654  0.88023742  1  -0.150649  0  -0.103721  -0.034277  0  3.447362  0
N  N169  1  0.36903179  0.48879434  0.77352259  1  -0.163426  0  -0.103653  -0.034065  0  3.447215  0
N  N170  1  0.26231642  0.77352303  0.85744731  1  -0.154573  0  -0.103707  -0.03431  0  3.447423  0
N  N171  1  0.73768345  0.88023774  0.48879260  1  -0.159052  0  -0.103709  -0.034252  0  3.447503  0
N  N172  1  0.64283278  0.88128339  0.79506435  1  -0.699037  0  -0.23049  -0.262729  0  3.350384  0
N  N173  1  0.35716773  0.56210413  0.76154596  1  -0.69586  0  -0.230507  -0.262856  0  3.350465  0
N  N174  1  0.32365253  0.76155033  0.88128460  1  -0.697485  0  -0.23048  -0.262723  0  3.350243  0
N  N175  1  0.67634659  0.79506509  0.56210063  1  -0.689034  0  -0.230493  -0.262778  0  3.350392  0
N  N176  1  0.42609755  0.94903616  0.98097091  1  -0.703675  0  -0.228965  -0.261244  0  3.337552  0
N  N177  1  0.57390418  0.59292867  0.47706508  1  -0.710359  0  -0.228928  -0.261171  0  3.337338  0
N  N178  1  0.06999289  0.47706420  0.94903178  1  -0.713349  0  -0.228969  -0.261147  0  3.337491  0
N  N179  1  0.93000595  0.98097627  0.59292770  1  -0.697847  0  -0.228963  -0.261168  0  3.33737  0
N  N180  1  0.45806012  0.91748755  0.04099139  1  -0.187899  0  -0.109593  -0.042748  0  3.477393  0
N  N181  1  0.54194170  0.50094580  0.54057608  1  -0.119031  0  -0.109671  -0.042838  0  3.47747  0
N  N182  1  0.04152105  0.54057625  0.91748559  1  -0.123523  0  -0.109634  -0.042862  0  3.477455  0
N  N183  1  0.95847803  0.04099523  0.50094415  1  -0.206094  0  -0.109626  -0.04284  0  3.477513  0
N  N184  1  0.45831784  0.95937528  0.08204234  1  -0.147076  0  -0.110404  -0.045465  0  3.474804  0
N  N185  1  0.54168373  0.45963710  0.49894598  1  -0.202058  0  -0.110439  -0.045551  0  3.474751  0
N  N186  1  0.95858231  0.49894565  0.95937397  1  -0.234355  0  -0.110357  -0.045417  0  3.474689  0
N  N187  1  0.04141649  0.08204696  0.45963619  1  -0.144766  0  -0.110381  -0.045452  0  3.474832  0
N  N188  1  0.42651091  0.01949856  0.04993175  1  -0.705501  0  -0.227981  -0.260481  0  3.338994  0
N  N189  1  0.57349190  0.52355604  0.40701408  1  -0.705903  0  -0.227982  -0.260467  0  3.338853  0
N  N190  1  0.93056804  0.40701418  0.01949617  1  -0.688607  0  -0.228077  -0.260562  0  3.338948  0
N  N191  1  0.06943125  0.04993856  0.52355318  1  -0.703723  0  -0.228075  -0.260565  0  3.339045  0
N  N192  1  0.30227388  0.23771498  0.69284661  1  -0.70345  0  -0.236012  -0.246623  0  3.391304  0
N  N193  1  0.69772785  0.00488250  0.06455605  1  -0.723073  0  -0.236045  -0.246681  0  3.391343  0
N  N194  1  0.06943861  0.06455161  0.23771667  1  -0.706064  0  -0.23606  -0.246744  0  3.391257  0
N  N195  1  0.93056226  0.69284480  0.00488633  1  -0.723391  0  -0.23607  -0.246766  0  3.3914  0
N  N196  1  0.38141336  0.27904624  0.67921947  1  -0.095758  0  -0.105874  -0.05087  0  3.434062  0
N  N197  1  0.61858872  0.93937088  0.10236368  1  -0.095611  0  -0.105773  -0.050719  0  3.43402  0
N  N198  1  0.04173405  0.10235973  0.27904860  1  -0.231969  0  -0.10577  -0.05066  0  3.433869  0
N  N199  1  0.95826503  0.67921846  0.93937319  1  -0.092952  0  -0.105791  -0.050689  0  3.433931  0
N  N200  1  0.38139530  0.32028958  0.72106423  1  -0.234397  0  -0.104707  -0.048508  0  3.434554  0
N  N201  1  0.61860649  0.89754378  0.06110278  1  -0.236256  0  -0.104816  -0.048619  0  3.4346  0
N  N202  1  0.95864615  0.06109928  0.32028989  1  -0.093559  0  -0.104798  -0.048626  0  3.434639  0
N  N203  1  0.04135359  0.72106375  0.89754558  1  -0.231617  0  -0.104802  -0.048641  0  3.434641  0
N  N204  1  0.30228988  0.30648832  0.76266935  1  -0.701352  0  -0.236061  -0.246383  0  3.391785  0
N  N205  1  0.69771269  0.93504362  0.99579887  1  -0.722803  0  -0.236015  -0.246365  0  3.391718  0
N  N206  1  0.93084298  0.99579464  0.30648865  1  -0.721164  0  -0.236011  -0.2464  0  3.391864  0
N  N207  1  0.06915704  0.76266745  0.93504776  1  -0.726408  0  -0.235985  -0.246297  0  3.391844  0
N  N208  1  0.26485976  0.13483418  0.34719117  1  -0.676184  0  -0.230762  -0.268137  0  3.380543  0
N  N209  1  0.73514135  0.38795270  0.13002249  1  -0.676446  0  -0.230719  -0.268066  0  3.380703  0
N  N210  1  0.51797385  0.13002274  0.13483608  1  -0.679879  0  -0.230756  -0.268121  0  3.380593  0
N  N211  1  0.48202581  0.34719082  0.38795286  1  -0.684631  0  -0.230687  -0.26802  0  3.380724  0
N  N212  1  0.22698093  0.15164148  0.29142975  1  -0.190288  0  -0.102676  -0.041152  0  3.417601  0
N  N213  1  0.77301992  0.48159313  0.07533690  1  -0.197979  0  -0.102672  -0.041108  0  3.417694  0
N  N214  1  0.55693063  0.07533877  0.15164028  1  -0.193819  0  -0.102715  -0.041193  0  3.417804  0
N  N215  1  0.44307092  0.29142799  0.48159330  1  -0.182144  0  -0.102695  -0.041176  0  3.417671  0
N  N216  1  0.26237232  0.14208988  0.22684951  1  -0.16185  0  -0.105657  -0.038615  0  3.452252  0
N  N217  1  0.73762735  0.51078074  0.12028099  1  -0.156447  0  -0.105681  -0.038672  0  3.452388  0
N  N218  1  0.63106141  0.12028320  0.14208788  1  -0.148807  0  -0.105613  -0.038489  0  3.452355  0
N  N219  1  0.36893947  0.22684778  0.51078077  1  -0.168487  0  -0.105638  -0.038538  0  3.452259  0
N  N220  1  0.32404488  0.11880475  0.23858979  1  -0.70063  0  -0.228793  -0.261301  0  3.351458  0
N  N221  1  0.67595510  0.43736825  0.20523760  1  -0.704114  0  -0.228748  -0.261172  0  3.35164  0
N  N222  1  0.64260461  0.20523907  0.11880563  1  -0.714232  0  -0.228764  -0.261331  0  3.351481  0
N  N223  1  0.35739599  0.23858887  0.43736764  1  -0.710584  0  -0.228728  -0.261226  0  3.351694  0
N  N224  1  0.18959074  0.31941968  0.13569459  1  -0.698647  0  -0.230923  -0.247946  0  3.382966  0
N  N225  1  0.81040817  0.67471537  0.87017212  1  -0.715587  0  -0.230928  -0.247905  0  3.382956  0
N  N226  1  0.54488455  0.87016978  0.31942037  1  -0.713247  0  -0.230948  -0.247983  0  3.382909  0
N  N227  1  0.45511583  0.13569558  0.67471113  1  -0.722912  0  -0.230969  -0.248068  0  3.383003  0
N  N228  1  0.21231529  0.28936765  0.08373705  1  -0.179957  0  -0.103783  -0.053298  0  3.411092  0
N  N229  1  0.78768507  0.70394948  0.92294733  1  -0.157831  0  -0.103847  -0.053371  0  3.411062  0
N  N230  1  0.62689429  0.92294540  0.28936855  1  -0.162199  0  -0.103749  -0.05319  0  3.411045  0
N  N231  1  0.37310496  0.08373753  0.70394761  1  -0.145975  0  -0.10377  -0.05319  0  3.411142  0
N  N232  1  0.23226281  0.35311405  0.99733215  1  -0.159283  0  -0.112373  -0.04723  0  3.490554  0
N  N233  1  0.76773819  0.77040756  0.87914898  1  -0.161231  0  -0.112292  -0.047174  0  3.490422  0
N  N234  1  0.64955379  0.87914745  0.35311303  1  -0.170845  0  -0.112314  -0.047265  0  3.490475  0
N  N235  1  0.35044590  0.99733355  0.77040509  1  -0.171434  0  -0.112339  -0.047287  0  3.490645  0
N  N236  1  0.22279854  0.42594828  0.99047175  1  -0.689839  0  -0.229297  -0.27487  0  3.345506  0
N  N237  1  0.77720159  0.78673195  0.79684989  1  -0.716177  0  -0.229258  -0.274775  0  3.345638  0
N  N238  1  0.58357947  0.79684812  0.42594745  1  -0.712944  0  -0.229361  -0.274862  0  3.345475  0
N  N239  1  0.41642038  0.99047215  0.78672886  1  -0.722474  0  -0.229289  -0.274838  0  3.34547  0
Cl  Cl240  1  0.35519693  0.69620219  0.08697603  1  -0.621023  0  -0.320974  -0.46535  0  1.199055  0
Cl  Cl241  1  0.64480513  0.55782930  0.65899617  1  -0.620711  0  -0.320971  -0.465359  0  1.199043  0
Cl  Cl242  1  0.21682225  0.65899474  0.69620209  1  -0.620852  0  -0.32096  -0.465363  0  1.199051  0
Cl  Cl243  1  0.78317459  0.08697590  0.55782703  1  -0.620366  0  -0.320983  -0.465372  0  1.199011  0
Cl  Cl244  1  0.22793981  0.83013394  0.01106300  1  -0.605482  0  -0.302639  -0.4448  0  1.254763  0
Cl  Cl245  1  0.77206021  0.76099610  0.39780905  1  -0.606401  0  -0.302637  -0.444797  0  1.254745  0
Cl  Cl246  1  0.15880812  0.39780957  0.83013036  1  -0.606162  0  -0.302605  -0.444771  0  1.254765  0
Cl  Cl247  1  0.84119265  0.01106442  0.76099589  1  -0.60651  0  -0.302633  -0.444792  0  1.254749  0
Cl  Cl248  1  0.15612443  0.00070575  0.84479674  1  -0.610079  0  -0.30105  -0.436445  0  1.274898  0
Cl  Cl249  1  0.84387489  0.99907812  0.15541671  1  -0.608841  0  -0.301055  -0.436438  0  1.274912  0
Cl  Cl250  1  0.15449895  0.15541997  0.00070611  1  -0.609894  0  -0.301054  -0.436447  0  1.274923  0
Cl  Cl251  1  0.84550499  0.84479777  0.99907461  1  -0.609033  0  -0.30105  -0.436439  0  1.274904  0
Cl  Cl252  1  0.15762826  0.16710206  0.60349650  1  -0.604536  0  -0.304402  -0.441503  0  1.251233  0
Cl  Cl253  1  0.84237416  0.23887783  0.99052305  1  -0.604812  0  -0.304408  -0.441503  0  1.251225  0
Cl  Cl254  1  0.22940271  0.99052454  0.16710187  1  -0.603961  0  -0.304405  -0.441504  0  1.251237  0
Cl  Cl255  1  0.77059677  0.60349442  0.23888002  1  -0.604915  0  -0.304393  -0.441486  0  1.251222  0
Cl  Cl256  1  0.21735074  0.30325220  0.34126900  1  -0.618585  0  -0.323991  -0.464553  0  1.193484  0
Cl  Cl257  1  0.78265221  0.44138173  0.91409549  1  -0.61853  0  -0.323992  -0.464543  0  1.193484  0
Cl  Cl258  1  0.35547827  0.91409878  0.30325349  1  -0.619418  0  -0.32401  -0.46455  0  1.193521  0
Cl  Cl259  1  0.64452423  0.34126900  0.44138030  1  -0.618825  0  -0.323991  -0.464542  0  1.193496  0
Cl  Cl260  1  0.00047703  0.25981962  0.31700283  1  -0.623758  0  -0.296087  -0.457676  0  1.294833  0
Cl  Cl261  1  0.99952083  0.68251761  0.74065920  1  -0.62355  0  -0.296094  -0.457655  0  1.294862  0
Cl  Cl262  1  0.42317393  0.74066082  0.25982002  1  -0.622804  0  -0.296118  -0.45767  0  1.294854  0
Cl  Cl263  1  0.57682758  0.31700595  0.68251572  1  -0.622764  0  -0.296106  -0.457673  0  1.294792  0
