# generated using pymatgen
data_ZnH16C20(NO2)2
_symmetry_space_group_name_H-M   'P 1'
_cell_length_a   9.55171328
_cell_length_b   11.32698375
_cell_length_c   22.19393048
_cell_angle_alpha   102.44392023
_cell_angle_beta   89.99161101
_cell_angle_gamma   114.94900527
_symmetry_Int_Tables_number   1
_chemical_formula_structural   ZnH16C20(NO2)2
_chemical_formula_sum   'Zn4 H64 C80 N8 O16'
_cell_volume   2114.79276427
_cell_formula_units_Z   4
loop_
 _symmetry_equiv_pos_site_id
 _symmetry_equiv_pos_as_xyz
  1  'x, y, z'
loop_
 _atom_site_type_symbol
 _atom_site_label
 _atom_site_symmetry_multiplicity
 _atom_site_fract_x
 _atom_site_fract_y
 _atom_site_fract_z
 _atom_site_occupancy
 _atom_site_pbe_bader_charge
 _atom_site_pbe_bader_spin_density
 _atom_site_pbe_cm5_charge
 _atom_site_pbe_ddec_charge
 _atom_site_pbe_ddec_spin_density
 _atom_site_pbe_ddec_sum_bond_order
 _atom_site_pbe_magmom
Zn  Zn0  1  0.58185249  0.65831596  0.62331228  1  1.246458  0  0.690815  0.748485  0  2.390915  0
Zn  Zn1  1  0.92344052  0.34166108  0.87671044  1  1.246424  0  0.690751  0.748781  0  2.390986  0
Zn  Zn2  1  0.41814707  0.34168346  0.37668789  1  1.246384  0  0.690813  0.748497  0  2.390925  0
Zn  Zn3  1  0.07655955  0.65833935  0.12328804  1  1.246277  0  0.690732  0.748731  0  2.39099  0
H  H4  1  0.45134124  0.39383232  0.54742159  1  0.132339  0  0.119002  0.098312  0  1.023642  0
H  H5  1  0.05749235  0.60601188  0.95258986  1  0.143628  0  0.11899  0.09908  0  1.024001  0
H  H6  1  0.54865778  0.60616810  0.45258049  1  0.132219  0  0.118991  0.098299  0  1.023619  0
H  H7  1  0.94250931  0.39398755  0.04740986  1  0.143541  0  0.119014  0.099108  0  1.023955  0
H  H8  1  0.19744392  0.19612426  0.51332305  1  0.117378  0  0.111669  0.12633  0  1.009059  0
H  H9  1  0.00151173  0.80378585  0.98674460  1  0.127163  0  0.112165  0.126666  0  1.00888  0
H  H10  1  0.80255665  0.80387717  0.48667824  1  0.11735  0  0.11167  0.126328  0  1.009107  0
H  H11  1  0.99848938  0.19621458  0.01325522  1  0.127153  0  0.112173  0.126656  0  1.008933  0
H  H12  1  0.99096726  0.40341555  0.64255981  1  0.083789  0  0.110572  0.121673  0  0.983091  0
H  H13  1  0.58768844  0.59669118  0.85754610  1  0.100699  0  0.110587  0.121514  0  0.982959  0
H  H14  1  0.00903071  0.59658488  0.35744047  1  0.083813  0  0.110591  0.121704  0  0.983093  0
H  H15  1  0.41231167  0.40330724  0.14245351  1  0.100702  0  0.11062  0.121525  0  0.982916  0
H  H16  1  0.25299156  0.59700818  0.66907693  1  0.078931  0  0.119899  0.09146  0  0.98402  0
H  H17  1  0.65592293  0.40303240  0.83096343  1  0.091997  0  0.119964  0.091414  0  0.984721  0
H  H18  1  0.74700481  0.40299325  0.33092346  1  0.078857  0  0.119884  0.091438  0  0.984043  0
H  H19  1  0.34407923  0.59696803  0.16903594  1  0.092  0  0.119959  0.091401  0  0.984674  0
H  H20  1  0.90939536  0.11118423  0.51003732  1  0.057034  0  0.102177  0.112014  0  0.978237  0
H  H21  1  0.79823112  0.88883704  0.98999518  1  0.054051  0  0.102096  0.112202  0  0.978145  0
H  H22  1  0.09060575  0.88881620  0.48996205  1  0.057019  0  0.102164  0.111997  0  0.978269  0
H  H23  1  0.20176795  0.11116138  0.01000443  1  0.054035  0  0.102108  0.11222  0  0.978114  0
H  H24  1  0.82230652  0.18467049  0.56740717  1  0.051125  0  0.096265  0.102225  0  0.991446  0
H  H25  1  0.63772532  0.81516384  0.93259627  1  0.03691  0  0.09627  0.10231  0  0.991986  0
H  H26  1  0.17769254  0.81532793  0.43259243  1  0.051145  0  0.096272  0.10223  0  0.991453  0
H  H27  1  0.36227479  0.18483458  0.06740334  1  0.036909  0  0.096257  0.102308  0  0.991962  0
H  H28  1  0.80140108  0.96121678  0.57990370  1  0.100762  0  0.09982  0.113301  0  1.020153  0
H  H29  1  0.84017429  0.03878543  0.92017563  1  0.100166  0  0.100065  0.113368  0  1.02036  0
H  H30  1  0.19859903  0.03878164  0.42009590  1  0.100768  0  0.099822  0.113298  0  1.020142  0
H  H31  1  0.15982527  0.96121400  0.07982454  1  0.100161  0  0.100059  0.113368  0  1.020343  0
H  H32  1  0.00537545  0.02682444  0.59062669  1  0.052042  0  0.099097  0.108911  0  0.97964  0
H  H33  1  0.97868268  0.97334811  0.90940784  1  0.052494  0  0.099256  0.109275  0  0.979433  0
H  H34  1  0.99462517  0.97317499  0.40937213  1  0.052033  0  0.099088  0.108902  0  0.979625  0
H  H35  1  0.02131794  0.02665132  0.09059232  1  0.052507  0  0.099257  0.10929  0  0.979438  0
H  H36  1  0.13802677  0.27047899  0.80166226  1  0.128081  0  0.120799  0.097848  0  1.012884  0
H  H37  1  0.86787520  0.72965508  0.69838266  1  0.144144  0  0.120658  0.097879  0  1.01338  0
H  H38  1  0.86197334  0.72951944  0.19833735  1  0.128093  0  0.120802  0.097909  0  1.012828  0
H  H39  1  0.13212437  0.27034435  0.30161706  1  0.144154  0  0.120659  0.097885  0  1.013392  0
H  H40  1  0.14586368  0.16004888  0.69208075  1  0.080832  0  0.113254  0.12479  0  0.977291  0
H  H41  1  0.98603480  0.84017785  0.80796322  1  0.086911  0  0.113017  0.12428  0  0.977041  0
H  H42  1  0.85413643  0.83994954  0.30791886  1  0.080858  0  0.113257  0.124772  0  0.977292  0
H  H43  1  0.01396631  0.15982258  0.19203706  1  0.086919  0  0.113022  0.124282  0  0.977051  0
H  H44  1  0.66164015  0.06832707  0.65894257  1  0.11201  0  0.107706  0.119073  0  1.032826  0
H  H45  1  0.59339952  0.93172153  0.84102606  1  0.094175  0  0.108008  0.119452  0  1.032027  0
H  H46  1  0.33836097  0.93167336  0.34105635  1  0.112014  0  0.107707  0.119082  0  1.032796  0
H  H47  1  0.40660004  0.06827789  0.15897411  1  0.094178  0  0.108004  0.119453  0  1.032035  0
H  H48  1  0.67372196  0.18101605  0.76999769  1  0.141911  0  0.12018  0.101438  0  1.003096  0
H  H49  1  0.49294543  0.81900185  0.72997935  1  0.148803  0  0.119871  0.100949  0  1.003071  0
H  H50  1  0.32628020  0.81898438  0.23000123  1  0.141897  0  0.120165  0.101392  0  1.003132  0
H  H51  1  0.50705518  0.18099757  0.27002082  1  0.14879  0  0.119862  0.100926  0  1.003081  0
H  H52  1  0.14497216  0.73768096  0.55807575  1  0.094398  0  0.099007  0.103505  0  1.025216  0
H  H53  1  0.40776695  0.26242132  0.94185735  1  0.098824  0  0.098793  0.102974  0  1.025469  0
H  H54  1  0.85502846  0.26231847  0.44192306  1  0.094381  0  0.09902  0.103528  0  1.025159  0
H  H55  1  0.59223047  0.73758011  0.05814304  1  0.098795  0  0.098815  0.103046  0  1.025452  0
H  H56  1  0.72012623  0.37780292  0.51188473  1  0.102171  0  0.096363  0.100038  0  1.039525  0
H  H57  1  0.34188696  0.62179699  0.98815854  1  0.077046  0  0.096295  0.100028  0  1.040021  0
H  H58  1  0.27987492  0.62219551  0.48811488  1  0.102144  0  0.096354  0.100054  0  1.039502  0
H  H59  1  0.65810942  0.37820445  0.01184140  1  0.077146  0  0.096282  0.100032  0  1.040004  0
H  H60  1  0.41084426  0.02923934  0.60523780  1  0.111895  0  0.10509  0.109005  0  0.997754  0
H  H61  1  0.38143549  0.97072136  0.89477668  1  0.101867  0  0.104721  0.108625  0  0.997111  0
H  H62  1  0.58915530  0.97076009  0.39476281  1  0.1119  0  0.105089  0.10901  0  0.997764  0
H  H63  1  0.61856453  0.02928108  0.10522201  1  0.10189  0  0.104708  0.108591  0  0.99705  0
H  H64  1  0.57192904  0.81283066  0.46133104  1  0.072097  0  0.101451  0.097513  0  1.052864  0
H  H65  1  0.75898034  0.18737614  0.03865106  1  0.088816  0  0.101295  0.097506  0  1.053003  0
H  H66  1  0.42807053  0.18716876  0.53866868  1  0.072114  0  0.101438  0.097465  0  1.052889  0
H  H67  1  0.24102178  0.81262629  0.96134718  1  0.088896  0  0.1013  0.097512  0  1.052992  0
C  C68  1  0.34675518  0.39069802  0.56816786  1  0.449005  0  0.045793  0.098258  0  3.916134  0
C  C69  1  0.95607914  0.60921470  0.93186809  1  0.380686  0  0.045857  0.096673  0  3.91635  0
C  C70  1  0.65324538  0.60930341  0.43183343  1  0.449182  0  0.045795  0.098276  0  3.916099  0
C  C71  1  0.04392302  0.39078573  0.06813129  1  0.380772  0  0.045837  0.09669  0  3.916327  0
C  C72  1  0.20462261  0.28020794  0.55003200  1  -0.067161  0  -0.081232  -0.178222  0  3.924649  0
C  C73  1  0.92454842  0.71976089  0.95003092  1  0.001497  0  -0.082001  -0.178701  0  3.924684  0
C  C74  1  0.79537746  0.71979249  0.44996873  1  -0.067196  0  -0.081228  -0.17821  0  3.92481  0
C  C75  1  0.07545065  0.28023753  0.04996823  1  0.001488  0  -0.082006  -0.178703  0  3.924648  0
C  C76  1  0.07196767  0.28014553  0.57687492  1  0.010423  0  0.018158  0.171221  0  3.938073  0
C  C77  1  0.79200489  0.71987361  0.92318071  1  0.057923  0  0.018495  0.173332  0  3.93769  0
C  C78  1  0.92803030  0.71985489  0.42312581  1  0.010438  0  0.018182  0.171216  0  3.938134  0
C  C79  1  0.20799623  0.28012682  0.07681867  1  0.057897  0  0.01851  0.173257  0  3.937737  0
C  C80  1  0.09047331  0.39598499  0.62104358  1  -0.013788  0  -0.08106  -0.182312  0  3.950994  0
C  C81  1  0.69458978  0.60403822  0.87903751  1  -0.043445  0  -0.0813  -0.183181  0  3.951132  0
C  C82  1  0.90952625  0.60401444  0.37895614  1  -0.01377  0  -0.08108  -0.182368  0  3.950981  0
C  C83  1  0.30540928  0.39596021  0.12096165  1  -0.043469  0  -0.08135  -0.183138  0  3.951115  0
C  C84  1  0.23627353  0.50395418  0.63654120  1  0.488381  0  0.048298  0.095244  0  3.961092  0
C  C85  1  0.73231358  0.49604575  0.86350902  1  0.435491  0  0.048294  0.09541  0  3.961691  0
C  C86  1  0.76372444  0.49604625  0.36345908  1  0.488505  0  0.048296  0.095271  0  3.960935  0
C  C87  1  0.26768703  0.50395368  0.13649025  1  0.435546  0  0.048329  0.095431  0  3.961654  0
C  C88  1  0.91979003  0.15762822  0.55972944  1  -0.015331  0  -0.152466  -0.201394  0  3.91849  0
C  C89  1  0.76229268  0.84235605  0.94030249  1  -0.008  0  -0.152043  -0.202008  0  3.918195  0
C  C90  1  0.08020953  0.84237120  0.44027073  1  -0.0155  0  -0.152471  -0.201363  0  3.918443  0
C  C91  1  0.23770689  0.15764337  0.05969723  1  -0.007983  0  -0.152049  -0.202007  0  3.91818  0
C  C92  1  0.90755767  0.05354203  0.59744373  1  -0.028365  0  -0.154781  -0.20389  0  3.901432  0
C  C93  1  0.85409402  0.94651136  0.90259197  1  -0.025424  0  -0.155349  -0.204863  0  3.902039  0
C  C94  1  0.09244294  0.94645740  0.40255509  1  -0.028138  0  -0.154824  -0.20394  0  3.901397  0
C  C95  1  0.14590709  0.05348907  0.09740831  1  -0.025434  0  -0.155358  -0.204883  0  3.902064  0
C  C96  1  0.03669913  0.22718977  0.76774767  1  0.430251  0  0.048283  0.098581  0  3.944502  0
C  C97  1  0.80979170  0.77294439  0.73228559  1  0.433224  0  0.048254  0.097355  0  3.945667  0
C  C98  1  0.96330098  0.77280865  0.23225148  1  0.430259  0  0.048238  0.098385  0  3.944521  0
C  C99  1  0.19020837  0.22705604  0.26771423  1  0.433208  0  0.048233  0.097318  0  3.945621  0
C  C100  1  0.03898037  0.16439802  0.70691994  1  0.002679  0  -0.081439  -0.186136  0  3.946001  0
C  C101  1  0.87480566  0.83578731  0.79310649  1  -0.018935  0  -0.080832  -0.184445  0  3.94396  0
C  C102  1  0.96102129  0.83560140  0.29307978  1  0.00268  0  -0.081432  -0.186035  0  3.946022  0
C  C103  1  0.12519390  0.16421211  0.20689322  1  -0.01893  0  -0.080827  -0.184437  0  3.943814  0
C  C104  1  0.90533696  0.10849588  0.66503707  1  -0.02879  0  0.022164  0.188787  0  3.919207  0
C  C105  1  0.79698390  0.89162426  0.83498758  1  -0.002141  0  0.021591  0.188894  0  3.916994  0
C  C106  1  0.09466469  0.89150355  0.33496220  1  -0.028835  0  0.022166  0.188772  0  3.919164  0
C  C107  1  0.20301776  0.10837516  0.16501214  1  -0.002127  0  0.021585  0.188906  0  3.917045  0
C  C108  1  0.77123252  0.11430107  0.68832285  1  -0.036989  0  -0.084003  -0.180691  0  3.922794  0
C  C109  1  0.65711551  0.88580861  0.81166961  1  -0.05122  0  -0.084007  -0.181497  0  3.921808  0
C  C110  1  0.22876809  0.88569836  0.31167642  1  -0.03695  0  -0.083975  -0.180698  0  3.92267  0
C  C111  1  0.34288456  0.11419182  0.18833022  1  -0.051266  0  -0.084  -0.181534  0  3.921935  0
C  C112  1  0.77641323  0.17769894  0.74975518  1  0.446385  0  0.044638  0.084327  0  3.957349  0
C  C113  1  0.59895312  0.82236766  0.75023960  1  0.455782  0  0.04473  0.085326  0  3.955347  0
C  C114  1  0.22358738  0.82230048  0.25024409  1  0.446423  0  0.044639  0.084377  0  3.957279  0
C  C115  1  0.40104799  0.17763277  0.24976023  1  0.455815  0  0.044756  0.085393  0  3.955332  0
C  C116  1  0.08247921  0.63374793  0.53226770  1  -0.02396  0  -0.088591  -0.099218  0  3.981464  0
C  C117  1  0.44900025  0.36629656  0.96769484  1  -0.004885  0  -0.08857  -0.099023  0  3.980179  0
C  C118  1  0.91752141  0.36625149  0.46773157  1  -0.02393  0  -0.088627  -0.099238  0  3.981416  0
C  C119  1  0.55099822  0.63370487  0.03230600  1  -0.004911  0  -0.0886  -0.099203  0  3.980226  0
C  C120  1  0.92453643  0.56423200  0.53886948  1  -0.028073  0  -0.022165  -0.036488  0  3.979235  0
C  C121  1  0.36032463  0.43560629  0.96110476  1  -0.050686  0  -0.021908  -0.035624  0  3.975739  0
C  C122  1  0.07546313  0.43576743  0.46112979  1  -0.028387  0  -0.022195  -0.036584  0  3.979328  0
C  C123  1  0.63967284  0.56439314  0.03889540  1  -0.05063  0  -0.021909  -0.03552  0  3.975698  0
C  C124  1  0.84286260  0.43002802  0.50645509  1  -0.097292  0  -0.091594  -0.10103  0  3.972099  0
C  C125  1  0.41261867  0.56974384  0.99355645  1  -0.061097  0  -0.092009  -0.101688  0  3.972399  0
C  C126  1  0.15713647  0.56997040  0.49354406  1  -0.097264  0  -0.091592  -0.10104  0  3.972104  0
C  C127  1  0.58737981  0.43025759  0.00644394  1  -0.061226  0  -0.092013  -0.101759  0  3.972459  0
C  C128  1  0.84321378  0.63598232  0.57823877  1  1.568369  0  0.191243  0.55549  0  4.236313  0
C  C129  1  0.20724701  0.36367298  0.92173212  1  1.515734  0  0.191949  0.556416  0  4.233719  0
C  C130  1  0.15678579  0.36401711  0.42176095  1  1.568592  0  0.191278  0.555614  0  4.236313  0
C  C131  1  0.79275146  0.63632845  0.07826737  1  1.515657  0  0.191928  0.556346  0  4.233779  0
C  C132  1  0.44997643  0.01779759  0.55908584  1  -0.060479  0  -0.084758  -0.102908  0  3.988971  0
C  C133  1  0.43212346  0.98224604  0.94092776  1  -0.05372  0  -0.084428  -0.102321  0  3.986793  0
C  C134  1  0.55002364  0.98220284  0.44091398  1  -0.060471  0  -0.084778  -0.102953  0  3.988905  0
C  C135  1  0.56787811  0.01775740  0.05907105  1  -0.053744  0  -0.084357  -0.102197  0  3.98674  0
C  C136  1  0.49144539  0.91260626  0.53740256  1  -0.057084  0  -0.016281  -0.029964  0  3.97196  0
C  C137  1  0.57872961  0.08753566  0.96262453  1  -0.111006  0  -0.01646  -0.030031  0  3.970578  0
C  C138  1  0.50855418  0.08739317  0.46259761  1  -0.057097  0  -0.016245  -0.029936  0  3.971896  0
C  C139  1  0.42127251  0.91246677  0.03737417  1  -0.111602  0  -0.016408  -0.029915  0  3.970429  0
C  C140  1  0.54081073  0.89519049  0.47796229  1  -0.031008  0  -0.0855  -0.095932  0  3.974973  0
C  C141  1  0.64553332  0.10493123  0.02205552  1  0.012953  0  -0.085331  -0.096384  0  3.97385  0
C  C142  1  0.45918938  0.10480793  0.52203776  1  -0.031062  0  -0.085487  -0.095875  0  3.975068  0
C  C143  1  0.35446775  0.89507121  0.97794318  1  0.013625  0  -0.085295  -0.096326  0  3.973622  0
C  C144  1  0.49210837  0.82530286  0.57943515  1  1.554049  0  0.196985  0.546864  0  4.248616  0
C  C145  1  0.66676010  0.17497193  0.92065607  1  1.555414  0  0.197376  0.547805  0  4.249116  0
C  C146  1  0.50789070  0.17469557  0.42056491  1  1.554044  0  0.196964  0.546843  0  4.248596  0
C  C147  1  0.33324251  0.82503151  0.07934318  1  1.555147  0  0.19728  0.547615  0  4.249329  0
N  N148  1  0.36369671  0.50113408  0.61141263  1  -1.248248  0  -0.3335  -0.240589  0  3.570494  0
N  N149  1  0.86252256  0.49880900  0.88862007  1  -1.25639  0  -0.333666  -0.240311  0  3.570768  0
N  N150  1  0.63630072  0.49886735  0.38858866  1  -1.248337  0  -0.333472  -0.240572  0  3.570368  0
N  N151  1  0.13747755  0.50118943  0.11137864  1  -1.25637  0  -0.333668  -0.24031  0  3.570788  0
N  N152  1  0.90811670  0.23603343  0.78884933  1  -1.256885  0  -0.335282  -0.238048  0  3.60832  0
N  N153  1  0.67236129  0.76402848  0.71115875  1  -1.267443  0  -0.334986  -0.23777  0  3.606897  0
N  N154  1  0.09188496  0.76396600  0.21114948  1  -1.256973  0  -0.335274  -0.237985  0  3.608279  0
N  N155  1  0.32763828  0.23597095  0.28884141  1  -1.267438  0  -0.334977  -0.237769  0  3.606898  0
O  O156  1  0.70391676  0.55941023  0.58965778  1  -1.183167  0  -0.349693  -0.573665  0  2.309371  0
O  O157  1  0.14447901  0.44018285  0.91028061  1  -1.179434  0  -0.350528  -0.575304  0  2.30901  0
O  O158  1  0.29608126  0.44058820  0.41034183  1  -1.183139  0  -0.349697  -0.57373  0  2.309408  0
O  O159  1  0.85552001  0.55981758  0.08971832  1  -1.179399  0  -0.350489  -0.575257  0  2.309019  0
O  O160  1  0.90788440  0.76081583  0.59720875  1  -1.194846  0  -0.331019  -0.558405  0  2.115879  0
O  O161  1  0.14725473  0.23886588  0.90275995  1  -1.157961  0  -0.330745  -0.557896  0  2.115584  0
O  O162  1  0.09211621  0.23918359  0.40279097  1  -1.194818  0  -0.331035  -0.558442  0  2.11586  0
O  O163  1  0.85274588  0.76113354  0.09724022  1  -1.1579  0  -0.330742  -0.55787  0  2.115629  0
O  O164  1  0.56500159  0.75197993  0.56049247  1  -1.161569  0  -0.327205  -0.542945  0  2.353971  0
O  O165  1  0.81302867  0.24808773  0.93959606  1  -1.171223  0  -0.32765  -0.54383  0  2.354326  0
O  O166  1  0.43499952  0.24802050  0.43950781  1  -1.161509  0  -0.327216  -0.542933  0  2.353926  0
O  O167  1  0.18697240  0.75191471  0.06040354  1  -1.171059  0  -0.327615  -0.543746  0  2.354282  0
O  O168  1  0.43192043  0.83005567  0.62949684  1  -1.180916  0  -0.328041  -0.562774  0  2.120731  0
O  O169  1  0.60189669  0.17049239  0.87063882  1  -1.178625  0  -0.327673  -0.562735  0  2.121857  0
O  O170  1  0.56807809  0.16994376  0.37050288  1  -1.180908  0  -0.328045  -0.5628  0  2.120731  0
O  O171  1  0.39810698  0.82951104  0.12935954  1  -1.178578  0  -0.327621  -0.562653  0  2.12196  0
