# generated using pymatgen
data_Zn4H54C83N20
_symmetry_space_group_name_H-M   'P 1'
_cell_length_a   18.72993177
_cell_length_b   19.18937944
_cell_length_c   21.37841546
_cell_angle_alpha   106.49721518
_cell_angle_beta   105.38841038
_cell_angle_gamma   110.94217427
_symmetry_Int_Tables_number   1
_chemical_formula_structural   Zn4H54C83N20
_chemical_formula_sum   'Zn4 H54 C83 N20'
_cell_volume   6276.84468563
_cell_formula_units_Z   1
loop_
 _symmetry_equiv_pos_site_id
 _symmetry_equiv_pos_as_xyz
  1  'x, y, z'
loop_
 _atom_site_type_symbol
 _atom_site_label
 _atom_site_symmetry_multiplicity
 _atom_site_fract_x
 _atom_site_fract_y
 _atom_site_fract_z
 _atom_site_occupancy
 _atom_site_pbe_bader_charge
 _atom_site_pbe_bader_spin_density
 _atom_site_pbe_cm5_charge
 _atom_site_pbe_ddec_charge
 _atom_site_pbe_ddec_spin_density
 _atom_site_pbe_ddec_sum_bond_order
 _atom_site_pbe_magmom
Zn  Zn0  1  0.86728119  0.89253252  0.46558974  1  1.143059  0  0.786409  0.687312  0  2.335454  0
Zn  Zn1  1  0.10054248  0.09940652  0.49557755  1  1.189517  0  0.743897  0.647561  0  2.325706  0
Zn  Zn2  1  0.07989562  0.03019195  0.62884872  1  1.19493  0  0.749058  0.662017  0  2.357204  0
Zn  Zn3  1  0.89515152  0.00746204  0.37811196  1  1.192456  0  0.749045  0.63543  0  2.390494  0
H  H4  1  0.87055071  0.91613438  0.70802423  1  0.063123  0  0.106209  0.088025  0  1.009804  0
H  H5  1  0.21686196  0.03081121  0.46078931  1  0.07226  0  0.108445  0.09478  0  1.041221  0
H  H6  1  0.09812062  0.88261193  0.62175315  1  0.100323  0  0.117075  0.100803  0  1.006393  0
H  H7  1  0.91155236  0.87634102  0.26300177  1  0.104248  0  0.109243  0.090983  0  1.078178  0
H  H8  1  0.17294031  0.05716635  0.36200248  1  0.071729  0  0.119117  0.103932  0  0.997165  0
H  H9  1  0.75665836  0.85099476  0.20888296  1  0.094373  0  0.126277  0.114895  0  0.978074  0
H  H10  1  0.27490062  0.04839287  0.67622379  1  0.094948  0  0.117956  0.106392  0  0.991512  0
H  H11  1  0.36933052  0.13363437  0.51376394  1  0.033603  0  0.093143  0.094532  0  1.017929  0
H  H12  1  0.39213229  0.01580743  0.65686263  1  0.040501  0  0.098391  0.100829  0  1.009027  0
H  H13  1  0.52505147  0.01106855  0.70921538  1  0.042872  0  0.100725  0.102726  0  0.994926  0
H  H14  1  0.08669437  0.25382775  0.57969900  1  0.131182  0  0.120525  0.118213  0  1.00388  0
H  H15  1  0.65796568  0.02068533  0.70335204  1  0.05433  0  0.101635  0.103541  0  0.993336  0
H  H16  1  0.75049878  0.03834468  0.63849805  1  0.051091  0  0.102328  0.109124  0  1.00051  0
H  H17  1  0.72837896  0.15770711  0.49616855  1  0.014624  0  0.095562  0.095522  0  1.024873  0
H  H18  1  0.62162098  0.20595238  0.47681117  1  0.047662  0  0.098472  0.098995  0  1.000191  0
H  H19  1  0.48770891  0.19467074  0.48136388  1  0.045608  0  0.098409  0.099787  0  0.998078  0
H  H20  1  0.10251444  0.75343860  0.58150788  1  0.048999  0  0.099167  0.103101  0  1.009564  0
H  H21  1  0.85588372  0.64731827  0.57921781  1  0.035662  0  0.098534  0.100732  0  1.033841  0
H  H22  1  0.79401958  0.50743350  0.57585788  1  0.043623  0  0.099598  0.100966  0  0.995868  0
H  H23  1  0.79654626  0.37501995  0.55432358  1  0.058267  0  0.099883  0.102709  0  1.00161  0
H  H24  1  0.86398372  0.28682049  0.52057121  1  0.058602  0  0.095148  0.098304  0  1.027366  0
H  H25  1  0.18620803  0.18982982  0.75682593  1  0.103156  0  0.120763  0.111935  0  0.998998  0
H  H26  1  0.11593092  0.39888818  0.53573801  1  0.042117  0  0.098239  0.101693  0  1.007019  0
H  H27  1  0.19261081  0.54954272  0.57286911  1  0.056466  0  0.101009  0.102575  0  0.994727  0
H  H28  1  0.18789236  0.68063635  0.59029913  1  0.05413  0  0.101246  0.102906  0  0.994414  0
H  H29  1  0.31962869  0.26926298  0.84840549  1  0.056662  0  0.101307  0.103851  0  0.997595  0
H  H30  1  0.46075611  0.36032539  0.94747703  1  0.107185  0  0.10446  0.10557  0  1.014361  0
H  H31  1  0.67189251  0.47412898  0.12565534  1  0.08234  0  0.108005  0.112077  0  0.990062  0
H  H32  1  0.74125556  0.60255804  0.23681384  1  0.031963  0  0.100615  0.10166  0  0.999998  0
H  H33  1  0.42125842  0.32562018  0.69932990  1  0.044666  0  0.100086  0.10083  0  1.003746  0
H  H34  1  0.66840048  0.61248368  0.99930223  1  0.106428  0  0.10738  0.109618  0  1.008702  0
H  H35  1  0.56106208  0.41914038  0.79951755  1  0.101184  0  0.107398  0.111122  0  0.988369  0
H  H36  1  0.79075686  0.09735714  0.43964066  1  0.080777  0  0.116957  0.099531  0  1.01027  0
H  H37  1  0.73731307  0.74180223  0.10973585  1  0.046403  0  0.100447  0.099311  0  1.000334  0
H  H38  1  0.92269892  0.81666922  0.16364115  1  0.046437  0  0.09507  0.094617  0  1.020423  0
H  H39  1  0.92703562  0.77009122  0.04503797  1  0.086319  0  0.103992  0.106033  0  1.014495  0
H  H40  1  0.86673906  0.77153219  0.85562873  1  0.069971  0  0.102599  0.10402  0  1.000399  0
H  H41  1  0.86599889  0.82664597  0.76332020  1  0.03508  0  0.096344  0.096426  0  1.009845  0
H  H42  1  0.18840121  0.98274483  0.25896600  1  0.045  0  0.097483  0.097867  0  1.003665  0
H  H43  1  0.13536938  0.88142789  0.94084438  1  0.097657  0  0.102251  0.102589  0  1.018189  0
H  H44  1  0.19142900  0.93337567  0.13921619  1  0.070217  0  0.104487  0.106366  0  0.998851  0
H  H45  1  0.13580855  0.93660948  0.84925106  1  0.058578  0  0.096895  0.096619  0  1.004654  0
H  H46  1  0.28901782  0.25087567  0.60897078  1  0.092459  0  0.119009  0.104329  0  0.995721  0
H  H47  1  0.84821438  0.00555011  0.60032723  1  0.167493  0  0.116869  0.109581  0  1.044239  0
H  H48  1  0.88875381  0.18765148  0.38011813  1  0.105965  0  0.118356  0.109468  0  0.987599  0
H  H49  1  0.13699712  0.99986519  0.77175417  1  0.062556  0  0.108057  0.092746  0  1.014936  0
H  H50  1  0.81236558  0.72591960  0.33995109  1  0.104079  0  0.124132  0.113892  0  1.000873  0
H  H51  1  0.63139344  0.64777332  0.44258736  1  0.018705  0  0.085215  0.110954  0  1.000325  0
H  H52  1  0.66300198  0.58821479  0.48246168  1  0.0277  0  0.084901  0.109757  0  1.003893  0
H  H53  1  0.62826382  0.65443867  0.52626486  1  0.035257  0  0.088649  0.115823  0  0.998825  0
H  H54  1  0.78607686  0.71838264  0.58372271  1  0.009503  0  0.090649  0.079713  0  0.986688  0
H  H55  1  0.75488073  0.77809379  0.54540182  1  0.012721  0  0.087536  0.076019  0  0.978641  0
H  H56  1  0.77525785  0.71541141  0.43710578  1  -0.007273  0  0.08747  0.076305  0  1.008119  0
H  H57  1  0.80256861  0.65027114  0.47086830  1  0.05097  0  0.097804  0.102766  0  0.985247  0
C  C58  1  0.93587451  0.94361572  0.71582847  1  0.463116  0  -0.00169  -0.046245  0  4.033331  0
C  C59  1  0.98618574  0.25335104  0.49360737  1  0.001479  0  -0.033944  -0.031949  0  4.067193  0
C  C60  1  0.27496694  0.24357691  0.70916030  1  -0.026103  0  -0.036032  -0.044379  0  4.081659  0
C  C61  1  0.79924489  0.06698860  0.53528226  1  -0.008253  0  -0.030863  -0.031107  0  4.03689  0
C  C62  1  0.80270813  0.76765082  0.31753817  1  0.391218  0  0.01583  -0.042016  0  3.964597  0
C  C63  1  0.21746608  0.03359303  0.51234978  1  0.377918  0  -0.009345  -0.069161  0  4.003346  0
C  C64  1  0.03187283  0.85588580  0.58839776  1  0.403595  0  0.013025  -0.02767  0  3.981853  0
C  C65  1  0.97368207  0.92707148  0.29731641  1  0.437152  0  0.004254  -0.03932  0  3.965323  0
C  C66  1  0.10703777  0.01906106  0.34770917  1  0.40477  0  0.01342  -0.037989  0  3.962724  0
C  C67  1  0.89477845  0.77612856  0.52505840  1  0.409122  0  0.089551  0.15591  0  3.97711  0
C  C68  1  0.77473924  0.83185926  0.25112870  1  0.439761  0  0.019502  -0.034604  0  3.966069  0
C  C69  1  0.03849058  0.22504397  0.52579103  1  0.411463  0  0.010168  -0.037677  0  3.960608  0
C  C70  1  0.24673259  0.04059753  0.62161530  1  0.423809  0  0.00834  -0.047649  0  3.976523  0
C  C71  1  0.77110828  0.75554272  0.24587801  1  -0.011879  0  -0.029028  -0.034469  0  4.068041  0
C  C72  1  0.28349052  0.04878566  0.57297050  1  -0.007367  0  -0.039466  -0.038822  0  4.088772  0
C  C73  1  0.96738861  0.77621836  0.56608784  1  0.0185  0  -0.032614  -0.089436  0  4.031137  0
C  C74  1  0.04731983  0.94692663  0.28570751  1  -0.007587  0  -0.032619  -0.034965  0  4.06444  0
C  C75  1  0.40559966  0.11335972  0.54648419  1  -0.032461  0  -0.096718  -0.194755  0  3.951922  0
C  C76  1  0.37010266  0.07046780  0.58292334  1  -0.006716  0  -0.011471  0.094656  0  4.084447  0
C  C77  1  0.41887076  0.04856000  0.62783405  1  -0.021339  0  -0.093132  -0.189003  0  3.940703  0
C  C78  1  0.49973620  0.06360856  0.63324407  1  0.004496  0  -0.009914  0.082162  0  4.052657  0
C  C79  1  0.53305212  0.10221081  0.59206384  1  -0.060313  0  0.00055  -0.000585  0  3.918907  0
C  C80  1  0.19897327  0.19727165  0.71177294  1  0.397325  0  0.006416  -0.050954  0  3.968316  0
C  C81  1  0.48607216  0.12978432  0.55009018  1  -0.014429  0  -0.013583  0.07939  0  4.061797  0
C  C82  1  0.54893469  0.03753731  0.67554018  1  -0.053524  0  -0.093416  -0.137037  0  4.024222  0
C  C83  1  0.62250334  0.04293610  0.67236100  1  -0.017527  0  -0.09207  -0.135336  0  4.021472  0
C  C84  1  0.65364512  0.07501930  0.62663266  1  -0.005794  0  -0.009706  0.080753  0  4.052837  0
C  C85  1  0.60980542  0.10841542  0.58921532  1  -0.018343  0  -0.000289  -0.001656  0  3.921471  0
C  C86  1  0.64053257  0.14247291  0.54465113  1  0.033561  0  -0.011408  0.080684  0  4.060496  0
C  C87  1  0.59625296  0.17691316  0.50855623  1  -0.062022  0  -0.096568  -0.138947  0  4.030748  0
C  C88  1  0.52210482  0.17053491  0.51096029  1  -0.004639  0  -0.096311  -0.139839  0  4.029843  0
C  C89  1  0.72075690  0.06853884  0.61301610  1  -0.045466  0  -0.090662  -0.184551  0  3.924636  0
C  C90  1  0.74547135  0.09370533  0.56321579  1  0.026128  0  -0.010763  0.091423  0  4.076259  0
C  C91  1  0.81031631  0.06834917  0.47274203  1  0.443661  0  0.017014  -0.02356  0  3.954632  0
C  C92  1  0.70824177  0.13506446  0.53314529  1  -0.032815  0  -0.095411  -0.194109  0  3.947326  0
C  C93  1  0.05131502  0.70323202  0.58170141  1  -0.07105  0  -0.092158  -0.189345  0  3.936594  0
C  C94  1  0.97682289  0.70753979  0.57689272  1  0.026339  0  -0.009179  0.10363  0  4.077141  0
C  C95  1  0.91194908  0.64281637  0.57804996  1  -0.049386  0  -0.093469  -0.193301  0  3.937231  0
C  C96  1  0.91656640  0.57086937  0.57616571  1  0.025758  0  -0.010766  0.078625  0  4.059943  0
C  C97  1  0.98999549  0.56458772  0.57528618  1  -0.030089  0  -0.000466  0.000529  0  3.918686  0
C  C98  1  0.05965504  0.63358168  0.58166015  1  0.002267  0  -0.010835  0.079936  0  4.061366  0
C  C99  1  0.84842693  0.50123322  0.57144501  1  0.006115  0  -0.093443  -0.134797  0  4.021671  0
C  C100  1  0.84983786  0.42794440  0.55948761  1  -0.075515  0  -0.094925  -0.139047  0  4.019265  0
C  C101  1  0.92005536  0.41806804  0.55213520  1  -0.006871  0  -0.010158  0.080931  0  4.04871  0
C  C102  1  0.25123930  0.22774495  0.63624956  1  0.430956  0  0.015992  -0.037427  0  3.971718  0
C  C103  1  0.99210382  0.48892155  0.56404434  1  -0.021543  0  0.000573  -0.000138  0  3.914422  0
C  C104  1  0.06473045  0.48234864  0.56065690  1  0.050611  0  -0.011014  0.080831  0  4.05704  0
C  C105  1  0.13640231  0.55446219  0.57320777  1  -0.056196  0  -0.0926  -0.134804  0  4.024747  0
C  C106  1  0.13383608  0.62682938  0.58293239  1  -0.030366  0  -0.093875  -0.137241  0  4.027515  0
C  C107  1  0.91952640  0.34142779  0.53114995  1  -0.098857  0  -0.094205  -0.193862  0  3.94894  0
C  C108  1  0.98875756  0.33394259  0.52325446  1  -0.00958  0  -0.01174  0.093155  0  4.070356  0
C  C109  1  0.06175249  0.40488108  0.54097877  1  -0.038056  0  -0.091971  -0.189007  0  3.949574  0
C  C110  1  0.74140357  0.68161858  0.18165368  1  0.034053  0  -0.009681  0.081138  0  4.042725  0
C  C111  1  0.72367406  0.68342239  0.11387897  1  -0.022714  0  -0.092717  -0.128765  0  3.994762  0
C  C112  1  0.68596904  0.61176619  0.05187967  1  -0.062651  0  -0.083858  -0.131134  0  3.95272  0
C  C113  1  0.83722016  0.02068760  0.55451219  1  0.353943  0  0.012543  -0.035508  0  3.928795  0
C  C114  1  0.66425996  0.53523722  0.05569028  1  0.334085  0  0.084747  0.168025  0  4.056322  0
C  C115  1  0.68779833  0.53352390  0.12321959  1  -0.065384  0  -0.081955  -0.136499  0  3.977683  0
C  C116  1  0.72620881  0.60563011  0.18507259  1  0.04202  0  -0.093312  -0.130179  0  3.995525  0
C  C117  1  0.45096320  0.35122336  0.89259970  1  -0.093061  0  -0.08633  -0.1344  0  3.969079  0
C  C118  1  0.37243358  0.30098570  0.83700627  1  -0.00387  0  -0.092915  -0.128283  0  3.991744  0
C  C119  1  0.51941933  0.39632443  0.87991792  1  0.36716  0  0.081122  0.158502  0  4.065712  0
C  C120  1  0.35881507  0.29251777  0.76644045  1  0.022281  0  -0.003095  0.095334  0  4.032208  0
C  C121  1  0.42903805  0.33330960  0.75364272  1  0.002631  0  -0.095097  -0.133099  0  3.986945  0
C  C122  1  0.50770536  0.38516601  0.80930434  1  -0.095873  0  -0.082134  -0.133533  0  3.976379  0
C  C123  1  0.00120339  0.89033311  0.80201151  1  -0.060612  0  -0.002195  0.104657  0  4.02707  0
C  C124  1  0.93714031  0.19081607  0.42399408  1  0.37174  0  0.005212  -0.054749  0  4.001186  0
C  C125  1  0.07640981  0.90023527  0.85018849  1  -0.050013  0  -0.093698  -0.127783  0  3.985627  0
C  C126  1  0.07683909  0.86922527  0.90118030  1  -0.059234  0  -0.088022  -0.133383  0  3.976209  0
C  C127  1  0.00104094  0.82604440  0.90584815  1  0.402408  0  0.076024  0.157297  0  4.063164  0
C  C128  1  0.92513303  0.80709698  0.85281314  1  0.003403  0  -0.086518  -0.138043  0  3.992139  0
C  C129  1  0.92532556  0.83876022  0.80191904  1  -0.036897  0  -0.100411  -0.141285  0  3.997621  0
C  C130  1  0.98396738  0.81592555  0.09240994  1  0.036606  0  -0.087345  -0.136909  0  3.967888  0
C  C131  1  0.98219170  0.84318339  0.15903604  1  -0.04948  0  -0.094172  -0.124696  0  3.980969  0
C  C132  1  0.05921373  0.85173178  0.08446302  1  0.342079  0  0.080644  0.167602  0  4.056742  0
C  C133  1  0.05441780  0.90722972  0.21998098  1  -0.056539  0  -0.009469  0.085359  0  4.036454  0
C  C134  1  0.13079427  0.93566910  0.21259702  1  -0.001955  0  -0.098458  -0.137475  0  4.006951  0
C  C135  1  0.07180533  0.98657342  0.74967940  1  0.386194  0  -0.009682  -0.07039  0  4.026021  0
C  C136  1  0.13329135  0.90801614  0.14602884  1  -0.051301  0  -0.086191  -0.138972  0  3.984238  0
C  C137  1  0.00281341  0.93548705  0.75773695  1  -0.043435  0  -0.043418  -0.053608  0  4.090785  0
C  C138  1  0.80533130  0.71131155  0.48698208  1  0.030394  0  -0.156994  -0.2131  0  3.991868  0
C  C139  1  0.75423568  0.71796218  0.53216021  1  0.006522  0  -0.162931  -0.08684  0  3.960453  0
C  C140  1  0.66429975  0.64840235  0.49388499  1  -0.077103  0  -0.24448  -0.355287  0  3.984351  0
N  N141  1  0.96158630  0.99394329  0.68527491  1  -0.700581  0  -0.271004  -0.235429  0  3.262663  0
N  N142  1  0.14680901  0.01859861  0.52403067  1  -0.767754  0  -0.281158  -0.23168  0  3.466217  0
N  N143  1  0.00134458  0.90111006  0.56420090  1  -0.778895  0  -0.269432  -0.197794  0  3.532825  0
N  N144  1  0.98786389  0.98296360  0.36025404  1  -0.820371  0  -0.283838  -0.213405  0  3.572096  0
N  N145  1  0.07092018  0.04017543  0.39146421  1  -0.789038  0  -0.278947  -0.175054  0  3.577109  0
N  N146  1  0.91711716  0.85164367  0.52527184  1  -0.813189  0  -0.301589  -0.244467  0  3.668983  0
N  N147  1  0.80651065  0.88516168  0.31996035  1  -0.776446  0  -0.275397  -0.191947  0  3.512708  0
N  N148  1  0.16605204  0.02305229  0.59185512  1  -0.799554  0  -0.280361  -0.17491  0  3.634486  0
N  N149  1  0.60755188  0.45980123  0.99661648  1  -0.505295  0  -0.160892  -0.153107  0  3.307918  0
N  N150  1  0.59477087  0.46115764  0.93556632  1  -0.500829  0  -0.155548  -0.142354  0  3.296933  0
N  N151  1  0.99538768  0.81192999  0.96571251  1  -0.50669  0  -0.165141  -0.154706  0  3.303925  0
N  N152  1  0.02188864  0.15128698  0.47885735  1  -0.810863  0  -0.282014  -0.205521  0  3.579748  0
N  N153  1  0.06559187  0.84602524  0.01927313  1  -0.504871  0  -0.169732  -0.164989  0  3.300786  0
N  N154  1  0.13558168  0.15548870  0.64564198  1  -0.770934  0  -0.276739  -0.218204  0  3.442999  0
N  N155  1  0.84967220  0.02482789  0.45524403  1  -0.801255  0  -0.28253  -0.191917  0  3.614136  0
N  N156  1  0.16903763  0.17578306  0.59947161  1  -0.814731  0  -0.279182  -0.173693  0  3.615939  0
N  N157  1  0.86681335  0.99551700  0.50567703  1  -0.823758  0  -0.304216  -0.217022  0  3.648453  0
N  N158  1  0.95964301  0.13041416  0.41504759  1  -0.797737  0  -0.291925  -0.203892  0  3.565368  0
N  N159  1  0.04666983  0.02108284  0.70686313  1  -0.832632  0  -0.303914  -0.213425  0  3.641352  0
N  N160  1  0.82354962  0.84473191  0.36119291  1  -0.825473  0  -0.288397  -0.196113  0  3.638545  0
