# generated using pymatgen
data_DyH13(CO)10
_symmetry_space_group_name_H-M   'P 1'
_cell_length_a   6.34039436
_cell_length_b   13.17714682
_cell_length_c   17.54600000
_cell_angle_alpha   71.51929762
_cell_angle_beta   82.54052651
_cell_angle_gamma   88.71489783
_symmetry_Int_Tables_number   1
_chemical_formula_structural   DyH13(CO)10
_chemical_formula_sum   'Dy4 H52 C40 O40'
_cell_volume   1378.30098130
_cell_formula_units_Z   4
loop_
 _symmetry_equiv_pos_site_id
 _symmetry_equiv_pos_as_xyz
  1  'x, y, z'
loop_
 _atom_site_type_symbol
 _atom_site_label
 _atom_site_symmetry_multiplicity
 _atom_site_fract_x
 _atom_site_fract_y
 _atom_site_fract_z
 _atom_site_occupancy
 _atom_site_hle17_bader_spin_density
 _atom_site_hle17_ddec_charge
 _atom_site_hle17_ddec_spin_density
 _atom_site_hle17_ddec_sum_bond_order
 _atom_site_hle17_magmom
 _atom_site_hse06_10hf_bader_spin_density
 _atom_site_hse06_10hf_ddec_charge
 _atom_site_hse06_10hf_ddec_spin_density
 _atom_site_hse06_10hf_ddec_sum_bond_order
 _atom_site_hse06_10hf_magmom
 _atom_site_hse06_bader_spin_density
 _atom_site_hse06_ddec_charge
 _atom_site_hse06_ddec_spin_density
 _atom_site_hse06_ddec_sum_bond_order
 _atom_site_hse06_magmom
 _atom_site_pbe_bader_charge
 _atom_site_pbe_bader_spin_density
 _atom_site_pbe_cm5_charge
 _atom_site_pbe_ddec_charge
 _atom_site_pbe_ddec_spin_density
 _atom_site_pbe_ddec_sum_bond_order
 _atom_site_pbe_magmom
Dy  Dy0  1  0.45471595  0.39734201  0.41198521  1  0  2.184761  0  1.766755  0  0  2.10972  0  2.107749  0  0  2.233833  0  1.923145  0  2.179666  0  1.533749  2.073219  0  2.14104  0
Dy  Dy1  1  0.54528017  0.60265881  0.58801466  1  0  2.184757  0  1.766739  0  0  2.109638  0  2.107826  0  0  2.233785  0  1.923171  0  2.179678  0  1.533736  2.073132  0  2.141123  0
Dy  Dy2  1  0.53738523  0.12046854  0.05917895  1  0  2.253448  0  1.634052  0  0  2.109319  0  2.101716  0  0  2.232178  0  1.919813  0  2.171691  0  1.521365  2.072173  0  2.135869  0
Dy  Dy3  1  0.46261394  0.87952908  0.94082098  1  0  2.253456  0  1.634084  0  0  2.109355  0  2.101711  0  0  2.232187  0  1.91985  0  2.171707  0  1.521344  2.072208  0  2.135868  0
H  H4  1  0.55254613  0.01141725  0.28671476  1  0  0.41398  0  0.87519  0  0  0.38293  0  0.953082  0  0  0.396119  0  0.934394  0  0.660805  0  0.305937  0.373877  0  0.963391  0
H  H5  1  0.44744990  0.98858117  0.71328569  1  0  0.414003  0  0.875113  0  0  0.382941  0  0.953059  0  0  0.39613  0  0.934371  0  0.660798  0  0.305927  0.373885  0  0.963347  0
H  H6  1  0.77493552  0.47986376  0.77552129  1  0  0.408521  0  0.898516  0  0  0.376719  0  0.972327  0  0  0.390318  0  0.953366  0  0.656655  0  0.308675  0.367475  0  0.984642  0
H  H7  1  0.22507028  0.52014026  0.22447509  1  0  0.408503  0  0.89853  0  0  0.376682  0  0.972371  0  0  0.39028  0  0.953411  0  0.656665  0  0.308647  0.367437  0  0.984675  0
H  H8  1  0.89731491  0.32582295  0.45179434  1  0  0.453873  0  0.844332  0  0  0.424448  0  0.903413  0  0  0.436324  0  0.886494  0  0.664135  0  0.301321  0.416348  0  0.91506  0
H  H9  1  0.10268121  0.67417787  0.54820439  1  0  0.453921  0  0.844259  0  0  0.424449  0  0.903417  0  0  0.436324  0  0.8865  0  0.664078  0  0.30132  0.416349  0  0.915063  0
H  H10  1  0.77603613  0.37429543  0.51820446  1  0  0.45146  0  0.837486  0  0  0.420642  0  0.900852  0  0  0.431914  0  0.884456  0  0.678962  0  0.306902  0.412785  0  0.912414  0
H  H11  1  0.22395993  0.62570378  0.48179466  1  0  0.451558  0  0.837338  0  0  0.420662  0  0.900788  0  0  0.431965  0  0.884361  0  0.678917  0  0.306932  0.412808  0  0.912347  0
H  H12  1  0.52840610  0.38669466  0.23916726  1  0  0.45046  0  0.836657  0  0  0.417108  0  0.902495  0  0  0.429424  0  0.884497  0  0.663617  0  0.304235  0.408679  0  0.914907  0
H  H13  1  0.47160103  0.61330295  0.76083400  1  0  0.450411  0  0.836723  0  0  0.41706  0  0.902561  0  0  0.429377  0  0.884562  0  0.663589  0  0.304218  0.408632  0  0.914972  0
H  H14  1  0.59648832  0.27781384  0.29941231  1  0  0.445896  0  0.80439  0  0  0.42974  0  0.852627  0  0  0.438164  0  0.840756  0  0.613827  0  0.335104  0.424008  0  0.860927  0
H  H15  1  0.40350608  0.72218377  0.70059011  1  0  0.445927  0  0.804355  0  0  0.429753  0  0.852613  0  0  0.438178  0  0.840738  0  0.613848  0  0.335106  0.42402  0  0.860916  0
H  H16  1  0.22221779  0.11578991  0.95400738  1  0  0.445361  0  0.851729  0  0  0.413872  0  0.91622  0  0  0.425315  0  0.899658  0  0.643425  0  0.302671  0.405921  0  0.927884  0
H  H17  1  0.77778463  0.88420930  0.04599030  1  0  0.445351  0  0.85176  0  0  0.413866  0  0.916243  0  0  0.425308  0  0.899684  0  0.643464  0  0.302657  0.405912  0  0.92791  0
H  H18  1  0.10528499  0.17978205  0.01139308  1  0  0.452942  0  0.842284  0  0  0.423138  0  0.902635  0  0  0.434646  0  0.886176  0  0.657774  0  0.302862  0.415304  0  0.913954  0
H  H19  1  0.89471577  0.82021557  0.98860677  1  0  0.452947  0  0.842271  0  0  0.423144  0  0.902621  0  0  0.434651  0  0.886165  0  0.657751  0  0.302861  0.415311  0  0.913939  0
H  H20  1  0.33961006  0.17724906  0.20227691  1  0  0.448439  0  0.846189  0  0  0.417088  0  0.908682  0  0  0.429125  0  0.891124  0  0.660297  0  0.300675  0.408793  0  0.92087  0
H  H21  1  0.66039716  0.82275096  0.79772321  1  0  0.448431  0  0.846192  0  0  0.417083  0  0.908679  0  0  0.429118  0  0.891123  0  0.660278  0  0.300687  0.408788  0  0.920867  0
H  H22  1  0.41459175  0.29149437  0.13709517  1  0  0.441345  0  0.85354  0  0  0.410424  0  0.916168  0  0  0.421  0  0.900996  0  0.663182  0  0.303516  0.403251  0  0.926533  0
H  H23  1  0.58541382  0.70850404  0.86290369  1  0  0.441366  0  0.853512  0  0  0.410451  0  0.916125  0  0  0.421027  0  0.900954  0  0.663163  0  0.303558  0.40328  0  0.926488  0
H  H24  1  0.97461775  0.62633443  0.25135117  1  0  0.105963  0  0.913109  0  0  0.116936  0  0.968825  0  0  0.120185  0  0.966282  0  0.088261  0  0.11741  0.114743  0  0.970405  0
H  H25  1  0.02537516  0.37366559  0.74864904  1  0  0.106  0  0.913052  0  0  0.116982  0  0.968778  0  0  0.120229  0  0.966236  0  0.088289  0  0.117438  0.114786  0  0.970361  0
H  H26  1  0.95852067  0.73648855  0.38137857  1  0  0.08553  0  0.913859  0  0  0.097393  0  0.971254  0  0  0.099425  0  0.97044  0  0.044089  0  0.107493  0.096095  0  0.971475  0
H  H27  1  0.04148182  0.26351227  0.61861986  1  0  0.085452  0  0.9139  0  0  0.097338  0  0.97129  0  0  0.099369  0  0.970477  0  0.044024  0  0.107481  0.096042  0  0.971513  0
H  H28  1  0.67329267  0.75785527  0.24898742  1  0  0.082015  0  0.924613  0  0  0.100061  0  0.985025  0  0  0.101464  0  0.984627  0  0.049046  0  0.098464  0.099022  0  0.985289  0
H  H29  1  0.32670033  0.24214714  0.75101279  1  0  0.08197  0  0.924558  0  0  0.10002  0  0.984974  0  0  0.101426  0  0.984572  0  0.049054  0  0.098435  0.098982  0  0.985238  0
H  H30  1  0.64623823  0.82639398  0.32200384  1  0  0.090984  0  0.935336  0  0  0.107653  0  0.996606  0  0  0.109807  0  0.995354  0  0.043286  0  0.100226  0.106145  0  0.997362  0
H  H31  1  0.35375951  0.17360764  0.67799748  1  0  0.09101  0  0.935391  0  0  0.107643  0  0.996696  0  0  0.109796  0  0.995448  0  0.043339  0  0.10024  0.106135  0  0.997451  0
H  H32  1  0.99001321  0.92312767  0.26148018  1  0  0.095627  0  0.904215  0  0  0.107463  0  0.959803  0  0  0.109931  0  0.958532  0  0.084401  0  0.109484  0.105803  0  0.960534  0
H  H33  1  0.00998918  0.07687075  0.73852054  1  0  0.095628  0  0.904226  0  0  0.10747  0  0.959803  0  0  0.109938  0  0.958533  0  0.08443  0  0.109504  0.105811  0  0.960535  0
H  H34  1  0.00929781  0.80069276  0.13816392  1  0  0.093313  0  0.908187  0  0  0.106588  0  0.962187  0  0  0.109165  0  0.960605  0  0.050791  0  0.112372  0.104927  0  0.962886  0
H  H35  1  0.99069678  0.19930965  0.86183621  1  0  0.093271  0  0.908086  0  0  0.106537  0  0.962139  0  0  0.109114  0  0.96055  0  0.050799  0  0.112357  0.104876  0  0.962843  0
H  H36  1  0.32696004  0.71714181  0.19650247  1  0  0.096418  0  0.915532  0  0  0.112662  0  0.97463  0  0  0.114939  0  0.973468  0  0.061233  0  0.105805  0.111076  0  0.975352  0
H  H37  1  0.67303284  0.28285741  0.80349508  1  0  0.096445  0  0.915436  0  0  0.112654  0  0.974599  0  0  0.114931  0  0.973435  0  0.061252  0  0.105765  0.111068  0  0.975322  0
H  H38  1  0.29355643  0.78581897  0.26962023  1  0  0.078699  0  0.923318  0  0  0.097106  0  0.984382  0  0  0.098099  0  0.984531  0  0.029149  0  0.096987  0.09636  0  0.98426  0
H  H39  1  0.70643957  0.21417865  0.73037871  1  0  0.078724  0  0.923319  0  0  0.097168  0  0.984322  0  0  0.098162  0  0.984471  0  0.029074  0  0.097022  0.096421  0  0.984203  0
H  H40  1  0.86599055  0.14745105  0.55278356  1  0  0.092326  0  0.939574  0  0  0.106716  0  1.00404  0  0  0.109342  0  1.002133  0  0.049896  0  0.099077  0.104894  0  1.005233  0
H  H41  1  0.13401355  0.85255057  0.44721803  1  0  0.092263  0  0.939505  0  0  0.106661  0  1.004008  0  0  0.109289  0  1.002099  0  0.049935  0  0.099064  0.104839  0  1.005201  0
H  H42  1  0.07525198  0.05830512  0.58712121  1  0  0.082858  0  0.918522  0  0  0.100762  0  0.978161  0  0  0.102045  0  0.978192  0  0.048874  0  0.096169  0.099757  0  0.978243  0
H  H43  1  0.92475054  0.94169650  0.41287988  1  0  0.082819  0  0.918467  0  0  0.100739  0  0.978123  0  0  0.102024  0  0.978153  0  0.048893  0  0.096171  0.099735  0  0.978207  0
H  H44  1  0.95240771  0.13528231  0.41479398  1  0  0.096078  0  0.89572  0  0  0.109068  0  0.946895  0  0  0.111781  0  0.945312  0  0.060791  0  0.113505  0.107179  0  0.947906  0
H  H45  1  0.04758688  0.86472011  0.58520729  1  0  0.096092  0  0.895752  0  0  0.109079  0  0.946922  0  0  0.111792  0  0.94534  0  0.06046  0  0.113496  0.107192  0  0.947933  0
H  H46  1  0.31705592  0.99090207  0.48203459  1  0  0.102569  0  0.901744  0  0  0.112572  0  0.959494  0  0  0.115178  0  0.957998  0  0.095107  0  0.112114  0.110759  0  0.960508  0
H  H47  1  0.68294832  0.00910275  0.51796509  1  0  0.102594  0  0.901704  0  0  0.112616  0  0.959452  0  0  0.11522  0  0.95796  0  0.095085  0  0.112093  0.110802  0  0.960466  0
H  H48  1  0.10330515  0.32176777  0.08658235  1  0  0.098729  0  0.9523  0  0  0.113557  0  1.013138  0  0  0.116314  0  1.011539  0  0.091263  0  0.10423  0.111631  0  1.0142  0
H  H49  1  0.89669867  0.67822665  0.91341926  1  0  0.098778  0  0.952269  0  0  0.1136  0  1.013099  0  0  0.116356  0  1.011501  0  0.09136  0  0.104241  0.111677  0  1.014163  0
H  H50  1  0.89596689  0.40303943  0.11127282  1  0  0.083313  0  0.916229  0  0  0.101126  0  0.975098  0  0  0.10278  0  0.97437  0  0.041877  0  0.096643  0.09991  0  0.975592  0
H  H51  1  0.10403858  0.59695658  0.88872776  1  0  0.0833  0  0.916239  0  0  0.101126  0  0.975077  0  0  0.102779  0  0.974351  0  0.041845  0  0.096653  0.099911  0  0.97557  0
H  H52  1  0.06216096  0.39553651  0.94129444  1  0  0.102231  0  0.889191  0  0  0.116208  0  0.939578  0  0  0.118753  0  0.938155  0  0.079725  0  0.117169  0.114421  0  0.940542  0
H  H53  1  0.93784607  0.60445871  0.05870569  1  0  0.102196  0  0.889252  0  0  0.116175  0  0.939693  0  0  0.118724  0  0.938267  0  0.07978  0  0.117144  0.11439  0  0.940658  0
H  H54  1  0.68386305  0.51587539  0.99817582  1  0  0.102357  0  0.91258  0  0  0.109886  0  0.976662  0  0  0.112177  0  0.975916  0  0.080333  0  0.111386  0.10827  0  0.9772  0
H  H55  1  0.31614080  0.48411982  0.00182389  1  0  0.102439  0  0.912557  0  0  0.109974  0  0.976638  0  0  0.112268  0  0.975891  0  0.080215  0  0.111438  0.108359  0  0.977176  0
C  C56  1  0.05633279  0.66051415  0.28951603  1  0  -0.137893  0  3.652535  0  0  -0.14246  0  3.888872  0  0  -0.147117  0  3.900193  0  0.00732  0  -0.086274  -0.138848  0  3.880027  0
C  C57  1  0.94366005  0.33948427  0.71048285  1  0  -0.137832  0  3.652328  0  0  -0.142432  0  3.88881  0  0  -0.147085  0  3.900126  0  0.007389  0  -0.086265  -0.138807  0  3.879931  0
C  C58  1  0.88606268  0.70416315  0.34004066  1  0  -0.124093  0  3.625541  0  0  -0.132519  0  3.861924  0  0  -0.136851  0  3.872692  0  0.010558  0  -0.083668  -0.129167  0  3.853098  0
C  C59  1  0.11393338  0.29583606  0.65995903  1  0  -0.123863  0  3.625405  0  0  -0.132375  0  3.861918  0  0  -0.136693  0  3.872693  0  0.010584  0  -0.083637  -0.129031  0  3.853091  0
C  C60  1  0.76241168  0.79340913  0.28444310  1  0  -0.123928  0  3.610078  0  0  -0.176341  0  3.870722  0  0  -0.176622  0  3.882185  0  -0.029151  0  -0.152857  -0.17569  0  3.862092  0
C  C61  1  0.23758444  0.20659169  0.71555734  1  0  -0.123946  0  3.610137  0  0  -0.176311  0  3.870765  0  0  -0.176592  0  3.882226  0  -0.02916  0  -0.152841  -0.175665  0  3.86214  0
C  C62  1  0.91151332  0.88299123  0.22609803  1  0  -0.121815  0  3.620725  0  0  -0.129544  0  3.863426  0  0  -0.133809  0  3.874895  0  -0.012203  0  -0.083668  -0.126273  0  3.85455  0
C  C63  1  0.08848595  0.11700879  0.77390245  1  0  -0.121827  0  3.620688  0  0  -0.129545  0  3.863389  0  0  -0.133809  0  3.874858  0  -0.012277  0  -0.083665  -0.126274  0  3.854516  0
C  C64  1  0.08316276  0.83701732  0.17691136  1  0  -0.1238  0  3.618106  0  0  -0.131175  0  3.856974  0  0  -0.135505  0  3.867413  0  0.009114  0  -0.084054  -0.127686  0  3.848216  0
C  C65  1  0.91683498  0.16298430  0.82308711  1  0  -0.123642  0  3.617907  0  0  -0.131087  0  3.856879  0  0  -0.135413  0  3.867318  0  0.00917  0  -0.084039  -0.127603  0  3.84812  0
C  C66  1  0.20817976  0.75001222  0.23327522  1  0  -0.11655  0  3.611087  0  0  -0.170263  0  3.874226  0  0  -0.170175  0  3.885071  0  -0.030234  0  -0.15132  -0.169894  0  3.865957  0
C  C67  1  0.79181465  0.24998540  0.76672379  1  0  -0.116673  0  3.610992  0  0  -0.170355  0  3.874159  0  0  -0.170269  0  3.885005  0  -0.030282  0  -0.151332  -0.169986  0  3.86589  0
C  C68  1  0.18425325  0.57095045  0.33889980  1  0  0.6979  0  3.775365  0  0  0.646022  0  4.081386  0  0  0.678758  0  4.080414  0  1.519521  0  0.224919  0.62324  0  4.086142  0
C  C69  1  0.81574128  0.42905037  0.66109844  1  0  0.697747  0  3.775684  0  0  0.645824  0  4.08182  0  0  0.678562  0  4.08085  0  1.519564  0  0.224741  0.623038  0  4.086576  0
C  C70  1  0.72672700  0.61671628  0.39060420  1  0  0.762423  0  3.783238  0  0  0.71956  0  4.079066  0  0  0.755414  0  4.071463  0  1.597356  0  0.244629  0.695551  0  4.086588  0
C  C71  1  0.27326925  0.38328774  0.60939718  1  0  0.762367  0  3.783192  0  0  0.719562  0  4.079002  0  0  0.755369  0  4.071469  0  1.597859  0  0.244691  0.695571  0  4.086506  0
C  C72  1  0.78184144  0.96797074  0.17217532  1  0  0.701417  0  3.790475  0  0  0.65109  0  4.09181  0  0  0.684006  0  4.090441  0  1.547276  0  0.222689  0.628346  0  4.096564  0
C  C73  1  0.21815465  0.03202928  0.82782645  1  0  0.701438  0  3.790439  0  0  0.651124  0  4.091753  0  0  0.684038  0  4.090382  0  1.547273  0  0.222697  0.628379  0  4.096508  0
C  C74  1  0.24250874  0.92223292  0.12342016  1  0  0.734413  0  3.813471  0  0  0.689245  0  4.109474  0  0  0.724352  0  4.104823  0  1.587366  0  0.230792  0.66555  0  4.116283  0
C  C75  1  0.75749053  0.07776710  0.87657975  1  0  0.734377  0  3.813393  0  0  0.689237  0  4.109393  0  0  0.72434  0  4.104748  0  1.587358  0  0.230803  0.665546  0  4.116201  0
C  C76  1  0.95750548  0.07945896  0.54381859  1  0  -0.12018  0  3.599858  0  0  -0.172476  0  3.860591  0  0  -0.172892  0  3.872369  0  -0.025939  0  -0.151112  -0.171792  0  3.851922  0
C  C77  1  0.04249869  0.92054426  0.45618204  1  0  -0.119944  0  3.599746  0  0  -0.172319  0  3.860537  0  0  -0.17273  0  3.872304  0  -0.025938  0  -0.151098  -0.171638  0  3.851868  0
C  C78  1  0.07365002  0.11122413  0.45645200  1  0  -0.119611  0  3.621306  0  0  -0.126098  0  3.86215  0  0  -0.130535  0  3.874432  0  0.010811  0  -0.082819  -0.122628  0  3.852795  0
C  C79  1  0.92635096  0.88877908  0.54354935  1  0  -0.119765  0  3.621553  0  0  -0.12623  0  3.862443  0  0  -0.130669  0  3.874729  0  0.011027  0  -0.082812  -0.122759  0  3.853084  0
C  C80  1  0.19543891  0.01648642  0.44073995  1  0  -0.129559  0  3.625509  0  0  -0.138515  0  3.869283  0  0  -0.14373  0  3.882641  0  -0.014302  0  -0.082567  -0.13489  0  3.85979  0
C  C81  1  0.80456361  0.98351519  0.55925944  1  0  -0.129419  0  3.625434  0  0  -0.138522  0  3.86929  0  0  -0.143733  0  3.882643  0  -0.01438  0  -0.0825  -0.134899  0  3.859799  0
C  C82  1  0.21733860  0.20908226  0.43865218  1  0  0.677508  0  3.835289  0  0  0.626517  0  4.150488  0  0  0.658652  0  4.151454  0  1.511809  0  0.205432  0.603851  0  4.155011  0
C  C83  1  0.78266076  0.79092016  0.56134773  1  0  0.677485  0  3.835376  0  0  0.626486  0  4.150553  0  0  0.658621  0  4.151525  0  1.511656  0  0.205435  0.60382  0  4.155077  0
C  C84  1  0.31054739  0.04866056  0.35483600  1  0  0.690854  0  3.737401  0  0  0.637699  0  4.05072  0  0  0.670319  0  4.041849  0  1.550367  0  0.243235  0.615559  0  4.055958  0
C  C85  1  0.68945802  0.95133386  0.64516952  1  0  0.690544  0  3.738084  0  0  0.637586  0  4.051128  0  0  0.670201  0  4.042262  0  1.550624  0  0.243179  0.615449  0  4.05636  0
C  C86  1  0.02478907  0.39836081  0.06390217  1  0  -0.121732  0  3.608014  0  0  -0.17219  0  3.864769  0  0  -0.172584  0  3.87583  0  -0.056585  0  -0.153733  -0.171486  0  3.856408  0
C  C87  1  0.97521640  0.60163521  0.93609783  1  0  -0.121849  0  3.607931  0  0  -0.172249  0  3.864645  0  0  -0.172638  0  3.8757  0  -0.056629  0  -0.15379  -0.171552  0  3.856292  0
C  C88  1  0.92992561  0.40219350  0.98695677  1  0  -0.116209  0  3.631928  0  0  -0.123354  0  3.873604  0  0  -0.127585  0  3.885763  0  -0.000925  0  -0.082558  -0.120067  0  3.864423  0
C  C89  1  0.07007671  0.59780331  0.01304376  1  0  -0.116139  0  3.631953  0  0  -0.123437  0  3.873882  0  0  -0.127676  0  3.886043  0  -0.001019  0  -0.082551  -0.120154  0  3.86471  0
C  C90  1  0.81649123  0.50783146  0.95348287  1  0  -0.14384  0  3.650031  0  0  -0.155066  0  3.898274  0  0  -0.16066  0  3.911473  0  0.027125  0  -0.085743  -0.151147  0  3.888801  0
C  C91  1  0.18351116  0.49216696  0.04651500  1  0  -0.144008  0  3.650159  0  0  -0.155243  0  3.898541  0  0  -0.160839  0  3.911748  0  0.02742  0  -0.085868  -0.151328  0  3.889074  0
C  C92  1  0.78804853  0.30452985  0.00536964  1  0  0.668304  0  3.842402  0  0  0.618037  0  4.146125  0  0  0.649838  0  4.147467  0  1.529986  0  0.202174  0.59559  0  4.150313  0
C  C93  1  0.21195532  0.69546536  0.99463178  1  0  0.668545  0  3.842123  0  0  0.618348  0  4.145813  0  0  0.650151  0  4.147147  0  1.531587  0  0.202339  0.595899  0  4.150004  0
C  C94  1  0.72791707  0.51859165  0.87569215  1  0  0.719309  0  3.721014  0  0  0.662394  0  4.032399  0  0  0.697083  0  4.020993  0  1.533674  0  0.250785  0.638882  0  4.039288  0
C  C95  1  0.27208698  0.48140836  0.12430526  1  0  0.719381  0  3.720663  0  0  0.662495  0  4.032024  0  0  0.697176  0  4.020623  0  1.533119  0  0.250823  0.638979  0  4.038918  0
O  O96  1  0.28405345  0.50985945  0.30182782  1  0  -0.699664  0  2.103741  0  0  -0.647833  0  2.341548  0  0  -0.683441  0  2.329735  0  -1.19006  0  -0.376217  -0.628789  0  2.348636  0
O  O97  1  0.71594747  0.49014217  0.69817107  1  0  -0.699689  0  2.103807  0  0  -0.647831  0  2.341627  0  0  -0.683444  0  2.329815  0  -1.190036  0  -0.376217  -0.628787  0  2.348721  0
O  O98  1  0.20308740  0.55369253  0.41277946  1  0  -0.652714  0  1.976132  0  0  -0.603738  0  2.207149  0  0  -0.635089  0  2.197925  0  -1.175608  0  -0.319254  -0.586731  0  2.21316  0
O  O99  1  0.79689434  0.44630669  0.58721976  1  0  -0.652606  0  1.976431  0  0  -0.603599  0  2.207441  0  0  -0.634949  0  2.198206  0  -1.175712  0  -0.319112  -0.58659  0  2.213452  0
O  O100  1  0.67585622  0.54723241  0.35976100  1  0  -0.720009  0  2.008129  0  0  -0.682809  0  2.252598  0  0  -0.71898  0  2.236975  0  -1.193031  0  -0.39819  -0.665208  0  2.260216  0
O  O101  1  0.32413990  0.45276841  0.64024172  1  0  -0.720055  0  2.008197  0  0  -0.682856  0  2.252642  0  0  -0.719013  0  2.237034  0  -1.193132  0  -0.398233  -0.665262  0  2.260253  0
O  O102  1  0.64624205  0.62010160  0.45981543  1  0  -0.769031  0  2.111615  0  0  -0.733562  0  2.384599  0  0  -0.773856  0  2.368107  0  -1.219191  0  -0.438957  -0.71519  0  2.393563  0
O  O103  1  0.35375423  0.37990322  0.54018463  1  0  -0.769024  0  2.111634  0  0  -0.733549  0  2.38454  0  0  -0.773818  0  2.368063  0  -1.219626  0  -0.438954  -0.715185  0  2.393499  0
O  O104  1  0.77763940  0.97284464  0.09837564  1  0  -0.703958  0  2.033349  0  0  -0.644241  0  2.270936  0  0  -0.678244  0  2.260993  0  -1.194881  0  -0.358607  -0.625938  0  2.276767  0
O  O105  1  0.22235507  0.02715458  0.90162469  1  0  -0.703989  0  2.033362  0  0  -0.644265  0  2.27094  0  0  -0.678262  0  2.26099  0  -1.194927  0  -0.358599  -0.625963  0  2.276773  0
O  O106  1  0.67471130  0.03468471  0.19984331  1  0  -0.686305  0  2.014741  0  0  -0.632916  0  2.246635  0  0  -0.66494  0  2.235683  0  -1.186057  0  -0.336028  -0.615194  0  2.253484  0
O  O107  1  0.32529439  0.96531690  0.80015763  1  0  -0.686327  0  2.014732  0  0  -0.632943  0  2.246642  0  0  -0.664968  0  2.235691  0  -1.186023  0  -0.33603  -0.615218  0  2.253487  0
O  O108  1  0.34062293  0.91032988  0.05866619  1  0  -0.803268  0  2.091277  0  0  -0.752534  0  2.364587  0  0  -0.794689  0  2.351232  0  -1.227029  0  -0.421374  -0.73404  0  2.372412  0
O  O109  1  0.65937472  0.08966934  0.94133457  1  0  -0.803322  0  2.091296  0  0  -0.752565  0  2.364564  0  0  -0.794731  0  2.351218  0  -1.227069  0  -0.421396  -0.734062  0  2.372366  0
O  O110  1  0.28091216  0.00004162  0.14774341  1  0  -0.700182  0  1.992044  0  0  -0.651792  0  2.234428  0  0  -0.685841  0  2.22244  0  -1.185436  0  -0.389459  -0.634255  0  2.240423  0
O  O111  1  0.71908718  0.99996000  0.85225726  1  0  -0.700169  0  1.992098  0  0  -0.651788  0  2.234475  0  0  -0.685831  0  2.222491  0  -1.185412  0  -0.389457  -0.634253  0  2.240469  0
O  O112  1  0.13223908  0.30239862  0.42141578  1  0  -0.723042  0  2.040268  0  0  -0.67622  0  2.277845  0  0  -0.710589  0  2.265409  0  -1.190537  0  -0.385422  -0.658301  0  2.285279  0
O  O113  1  0.86776035  0.69760540  0.57858146  1  0  -0.722965  0  2.040322  0  0  -0.676101  0  2.277892  0  0  -0.710473  0  2.265459  0  -1.190296  0  -0.385377  -0.658181  0  2.285325  0
O  O114  1  0.41655401  0.20154573  0.44058581  1  0  -0.674228  0  1.914323  0  0  -0.636781  0  2.146313  0  0  -0.669241  0  2.136764  0  -1.170924  0  -0.36339  -0.619868  0  2.152136  0
O  O115  1  0.58344367  0.79845429  0.55941361  1  0  -0.67429  0  1.914321  0  0  -0.636816  0  2.146291  0  0  -0.669279  0  2.136739  0  -1.170956  0  -0.363435  -0.619901  0  2.152115  0
O  O116  1  0.24987655  0.12388027  0.29975740  1  0  -0.567607  0  1.944166  0  0  -0.518603  0  2.151965  0  0  -0.539121  0  2.140207  0  -1.171472  0  -0.282087  -0.504275  0  2.159368  0
O  O117  1  0.75013262  0.87612855  0.70023996  1  0  -0.567379  0  1.944833  0  0  -0.518441  0  2.152531  0  0  -0.538955  0  2.140775  0  -1.171617  0  -0.282003  -0.504119  0  2.159941  0
O  O118  1  0.47702045  0.98911257  0.34552378  1  0  -0.55116  0  2.060311  0  0  -0.504225  0  2.278943  0  0  -0.526165  0  2.259036  0  -1.180868  0  -0.328463  -0.488908  0  2.289939  0
O  O119  1  0.52297230  0.01088344  0.65447511  1  0  -0.551152  0  2.060224  0  0  -0.504257  0  2.278785  0  0  -0.526195  0  2.258879  0  -1.18082  0  -0.328516  -0.488936  0  2.289761  0
O  O120  1  0.86490654  0.21200820  0.04013735  1  0  -0.730682  0  2.032673  0  0  -0.674358  0  2.271871  0  0  -0.708814  0  2.260712  0  -1.193246  0  -0.389752  -0.656194  0  2.278413  0
O  O121  1  0.13509573  0.78798701  0.95986357  1  0  -0.730821  0  2.032559  0  0  -0.674528  0  2.27177  0  0  -0.708974  0  2.260595  0  -1.194671  0  -0.389838  -0.656363  0  2.278314  0
O  O122  1  0.59773399  0.31165423  0.98994717  1  0  -0.657216  0  1.937693  0  0  -0.610173  0  2.17446  0  0  -0.642233  0  2.16589  0  -1.172721  0  -0.361315  -0.593178  0  2.179702  0
O  O123  1  0.40227310  0.68834259  0.01005314  1  0  -0.65727  0  1.937622  0  0  -0.610232  0  2.174354  0  0  -0.642301  0  2.165804  0  -1.172836  0  -0.361341  -0.593235  0  2.179594  0
O  O124  1  0.57580749  0.57853661  0.85321751  1  0  -0.616649  0  1.957684  0  0  -0.555512  0  2.167064  0  0  -0.57871  0  2.153752  0  -1.196832  0  -0.288767  -0.539331  0  2.175389  0
O  O125  1  0.42419971  0.42146261  0.14678280  1  0  -0.616694  0  1.957557  0  0  -0.555566  0  2.16693  0  0  -0.578756  0  2.153617  0  -1.196519  0  -0.288764  -0.539377  0  2.175253  0
O  O126  1  0.83301734  0.46610080  0.83161942  1  0  -0.543954  0  2.112891  0  0  -0.491355  0  2.332166  0  0  -0.514849  0  2.313835  0  -1.183979  0  -0.316054  -0.474999  0  2.343496  0
O  O127  1  0.16699312  0.53390082  0.16837845  1  0  -0.543941  0  2.11273  0  0  -0.49132  0  2.332001  0  0  -0.514811  0  2.313672  0  -1.184021  0  -0.316027  -0.474963  0  2.343324  0
O  O128  1  0.75236051  0.33984761  0.47726895  1  0  -0.93363  0  1.827576  0  0  -0.892962  0  2.01556  0  0  -0.924389  0  1.975548  0  -1.324806  0  -0.663712  -0.878427  0  2.038704  0
O  O129  1  0.24763876  0.66015241  0.52272983  1  0  -0.93376  0  1.827343  0  0  -0.892953  0  2.01555  0  0  -0.924424  0  1.975462  0  -1.324718  0  -0.663735  -0.878419  0  2.038694  0
O  O130  1  0.58874569  0.35430204  0.29134808  1  0  -0.882693  0  1.796122  0  0  -0.844628  0  1.962961  0  0  -0.872719  0  1.923029  0  -1.244314  0  -0.625414  -0.832201  0  1.98516  0
O  O131  1  0.41125189  0.64569557  0.70865419  1  0  -0.882673  0  1.796119  0  0  -0.844599  0  1.96295  0  0  -0.872691  0  1.923015  0  -1.244305  0  -0.625393  -0.83217  0  1.985146  0
O  O132  1  0.24767929  0.16228243  0.98694732  1  0  -0.936105  0  1.818274  0  0  -0.88911  0  2.015084  0  0  -0.919094  0  1.974716  0  -1.283309  0  -0.663465  -0.875201  0  2.038464  0
O  O133  1  0.75232313  0.83771679  0.01305207  1  0  -0.936093  0  1.818315  0  0  -0.889099  0  2.015119  0  0  -0.919077  0  1.974752  0  -1.283334  0  -0.663441  -0.875186  0  2.038508  0
O  O134  1  0.39227619  0.21489413  0.14397680  1  0  -0.940332  0  1.874486  0  0  -0.8881  0  2.069831  0  0  -0.919092  0  2.03023  0  -1.300752  0  -0.663919  -0.873585  0  2.092547  0
O  O135  1  0.60772302  0.78510429  0.85602293  1  0  -0.940354  0  1.874472  0  0  -0.888131  0  2.069821  0  0  -0.919117  0  2.030221  0  -1.300737  0  -0.663959  -0.873616  0  2.092536  0
