# generated using pymatgen
data_SnH30C32N2(ClO)2
_symmetry_space_group_name_H-M   'P 1'
_cell_length_a   7.18613153
_cell_length_b   14.02566487
_cell_length_c   14.54728159
_cell_angle_alpha   89.99961352
_cell_angle_beta   90.64386917
_cell_angle_gamma   90.00019057
_symmetry_Int_Tables_number   1
_chemical_formula_structural   SnH30C32N2(ClO)2
_chemical_formula_sum   'Sn2 H60 C64 N4 Cl4 O4'
_cell_volume   1466.13189568
_cell_formula_units_Z   2
loop_
 _symmetry_equiv_pos_site_id
 _symmetry_equiv_pos_as_xyz
  1  'x, y, z'
loop_
 _atom_site_type_symbol
 _atom_site_label
 _atom_site_symmetry_multiplicity
 _atom_site_fract_x
 _atom_site_fract_y
 _atom_site_fract_z
 _atom_site_occupancy
 _atom_site_hle17_bader_spin_density
 _atom_site_hle17_ddec_charge
 _atom_site_hle17_ddec_spin_density
 _atom_site_hle17_ddec_sum_bond_order
 _atom_site_hle17_magmom
 _atom_site_hse06_10hf_bader_spin_density
 _atom_site_hse06_10hf_ddec_charge
 _atom_site_hse06_10hf_ddec_spin_density
 _atom_site_hse06_10hf_ddec_sum_bond_order
 _atom_site_hse06_10hf_magmom
 _atom_site_hse06_bader_spin_density
 _atom_site_hse06_ddec_charge
 _atom_site_hse06_ddec_spin_density
 _atom_site_hse06_ddec_sum_bond_order
 _atom_site_hse06_magmom
 _atom_site_pbe_bader_spin_density
 _atom_site_pbe_cm5_charge
 _atom_site_pbe_ddec_charge
 _atom_site_pbe_ddec_spin_density
 _atom_site_pbe_ddec_sum_bond_order
 _atom_site_pbe_magmom
Sn  Sn0  1  0.49997827  0.49998924  0.50000620  1  0  1.183323  0  2.901574  0  0  1.030558  0  3.384764  0  0  1.071512  0  3.375594  0  0  0.503466  1.002914  0  3.390419  0
Sn  Sn1  1  0.50001623  0.99999589  0.99999720  1  0  1.183343  0  2.901714  0  0  1.030604  0  3.384827  0  0  1.071518  0  3.375731  0  0  0.503444  1.00296  0  3.390483  0
H  H2  1  0.92151092  0.34012727  0.40477839  1  0  0.090853  0  0.972105  0  0  0.100194  0  1.038473  0  0  0.102588  0  1.038124  0  0  0.094485  0.09845  0  1.038861  0
H  H3  1  0.07850157  0.84012818  0.09522873  1  0  0.09076  0  0.972297  0  0  0.100115  0  1.038646  0  0  0.102508  0  1.038297  0  0  0.09443  0.09837  0  1.039036  0
H  H4  1  0.07849845  0.65986832  0.59522938  1  0  0.090751  0  0.972211  0  0  0.100132  0  1.038543  0  0  0.102525  0  1.038193  0  0  0.094445  0.098386  0  1.038934  0
H  H5  1  0.92149378  0.15987669  0.90476799  1  0  0.090864  0  0.972193  0  0  0.100216  0  1.038538  0  0  0.102609  0  1.038189  0  0  0.094442  0.098472  0  1.038926  0
H  H6  1  0.93672156  0.24417013  0.26051850  1  0  0.082781  0  0.951763  0  0  0.096294  0  1.00681  0  0  0.099212  0  1.005366  0  0  0.097124  0.094188  0  1.007884  0
H  H7  1  0.06329728  0.74416787  0.23948926  1  0  0.082765  0  0.951737  0  0  0.09618  0  1.006879  0  0  0.09913  0  1.0054  0  0  0.097068  0.094079  0  1.007953  0
H  H8  1  0.06328778  0.75583403  0.73948583  1  0  0.082749  0  0.95178  0  0  0.096187  0  1.006902  0  0  0.099124  0  1.005437  0  0  0.097052  0.094083  0  1.007978  0
H  H9  1  0.93670507  0.25583771  0.76051092  1  0  0.08275  0  0.951693  0  0  0.096174  0  1.006833  0  0  0.099096  0  1.005386  0  0  0.097022  0.09407  0  1.007909  0
H  H10  1  0.66393109  0.14779246  0.21059892  1  0  0.083216  0  0.985635  0  0  0.094957  0  1.047498  0  0  0.097014  0  1.047917  0  0  0.093937  0.093487  0  1.047276  0
H  H11  1  0.33608704  0.64778675  0.28939985  1  0  0.083153  0  0.9858  0  0  0.094913  0  1.047632  0  0  0.096958  0  1.048058  0  0  0.09397  0.093443  0  1.047409  0
H  H12  1  0.33607538  0.85221739  0.78939578  1  0  0.083181  0  0.985733  0  0  0.094965  0  1.047541  0  0  0.097016  0  1.047965  0  0  0.09391  0.093496  0  1.047318  0
H  H13  1  0.66391529  0.35221883  0.71059827  1  0  0.083177  0  0.985928  0  0  0.095  0  1.047674  0  0  0.097053  0  1.048101  0  0  0.093969  0.09353  0  1.047452  0
H  H14  1  0.37566656  0.14826888  0.30301291  1  0  0.089872  0  0.964601  0  0  0.097357  0  1.030331  0  0  0.100925  0  1.027429  0  0  0.095969  0.094752  0  1.032519  0
H  H15  1  0.62434597  0.64826786  0.19698308  1  0  0.089844  0  0.964666  0  0  0.097348  0  1.030366  0  0  0.100914  0  1.027467  0  0  0.095992  0.094743  0  1.032555  0
H  H16  1  0.62434687  0.85173242  0.69698249  1  0  0.089869  0  0.964591  0  0  0.097369  0  1.030298  0  0  0.100936  0  1.027397  0  0  0.095983  0.094764  0  1.032488  0
H  H17  1  0.37564799  0.35173344  0.80301295  1  0  0.089804  0  0.964588  0  0  0.097311  0  1.030293  0  0  0.100878  0  1.027393  0  0  0.095973  0.094707  0  1.032482  0
H  H18  1  0.35896354  0.24565128  0.44590622  1  0  0.090233  0  0.945487  0  0  0.102127  0  1.006872  0  0  0.105106  0  1.005639  0  0  0.095023  0.09995  0  1.007906  0
H  H19  1  0.64104408  0.74565342  0.05409187  1  0  0.090302  0  0.945461  0  0  0.102174  0  1.006864  0  0  0.105154  0  1.00563  0  0  0.095033  0.099998  0  1.007898  0
H  H20  1  0.64104159  0.75434004  0.55409397  1  0  0.090294  0  0.945464  0  0  0.102162  0  1.006868  0  0  0.105142  0  1.005635  0  0  0.095022  0.099985  0  1.007902  0
H  H21  1  0.35894987  0.25434432  0.94590347  1  0  0.090338  0  0.945424  0  0  0.102188  0  1.006853  0  0  0.105169  0  1.005618  0  0  0.095058  0.100012  0  1.007887  0
H  H22  1  0.77031414  0.37541910  0.54726518  1  0  0.132988  0  0.971412  0  0  0.145191  0  1.03439  0  0  0.147964  0  1.034601  0  0  0.090379  0.143175  0  1.034378  0
H  H23  1  0.22969210  0.87541991  0.95273976  1  0  0.132991  0  0.971379  0  0  0.145204  0  1.034349  0  0  0.147977  0  1.034556  0  0  0.090385  0.143188  0  1.034339  0
H  H24  1  0.22968270  0.62457793  0.45274048  1  0  0.133008  0  0.971443  0  0  0.145257  0  1.034361  0  0  0.14803  0  1.034571  0  0  0.090402  0.143239  0  1.034349  0
H  H25  1  0.77031163  0.12458353  0.04725905  1  0  0.132992  0  0.971348  0  0  0.1452  0  1.034325  0  0  0.147973  0  1.034532  0  0  0.090363  0.143185  0  1.034317  0
H  H26  1  0.54198001  0.32824958  0.57199767  1  0  0.123895  0  0.988478  0  0  0.136795  0  1.051484  0  0  0.139778  0  1.051201  0  0  0.087917  0.134651  0  1.051794  0
H  H27  1  0.45802308  0.82825309  0.92800208  1  0  0.123904  0  0.9885  0  0  0.136771  0  1.051565  0  0  0.139749  0  1.051285  0  0  0.087881  0.13464  0  1.05186  0
H  H28  1  0.45802237  0.67174246  0.42800595  1  0  0.123924  0  0.988507  0  0  0.136765  0  1.051589  0  0  0.139743  0  1.051309  0  0  0.087891  0.134628  0  1.051894  0
H  H29  1  0.54197229  0.17174750  0.07199671  1  0  0.123938  0  0.988485  0  0  0.136811  0  1.051517  0  0  0.139789  0  1.051237  0  0  0.087908  0.134682  0  1.051811  0
H  H30  1  0.64814901  0.46167603  0.29411571  1  0  0.081444  0  0.973553  0  0  0.084479  0  1.049747  0  0  0.087516  0  1.046511  0  0  0.110662  0.082247  0  1.052074  0
H  H31  1  0.35185173  0.96168019  0.20588851  1  0  0.081481  0  0.973527  0  0  0.084541  0  1.049683  0  0  0.087583  0  1.046434  0  0  0.110724  0.082296  0  1.052052  0
H  H32  1  0.35184775  0.53831885  0.70588239  1  0  0.081511  0  0.97347  0  0  0.084579  0  1.049633  0  0  0.087576  0  1.046435  0  0  0.110721  0.082345  0  1.051963  0
H  H33  1  0.64815203  0.03831540  0.79411374  1  0  0.081515  0  0.973435  0  0  0.084571  0  1.049607  0  0  0.087576  0  1.046393  0  0  0.110744  0.082332  0  1.051953  0
H  H34  1  0.19182732  0.39740127  0.10851657  1  0  0.094222  0  0.969092  0  0  0.104183  0  1.031807  0  0  0.105812  0  1.031998  0  0  0.104822  0.102972  0  1.031726  0
H  H35  1  0.80817018  0.89739920  0.39148463  1  0  0.094218  0  0.969131  0  0  0.104188  0  1.031832  0  0  0.105817  0  1.032025  0  0  0.104839  0.102977  0  1.03175  0
H  H36  1  0.80816804  0.60260075  0.89148084  1  0  0.094263  0  0.969117  0  0  0.104225  0  1.031824  0  0  0.105854  0  1.032016  0  0  0.104853  0.103014  0  1.031743  0
H  H37  1  0.19183217  0.10260210  0.60851624  1  0  0.094213  0  0.969166  0  0  0.104186  0  1.031871  0  0  0.105812  0  1.032065  0  0  0.104841  0.102974  0  1.03179  0
H  H38  1  0.97592019  0.42831623  0.23959618  1  0  0.108798  0  0.951978  0  0  0.116712  0  1.013622  0  0  0.119742  0  1.013134  0  0  0.10859  0.114547  0  1.014139  0
H  H39  1  0.02407611  0.92831661  0.26040412  1  0  0.108804  0  0.951951  0  0  0.116704  0  1.01361  0  0  0.119733  0  1.013125  0  0  0.108595  0.11454  0  1.014126  0
H  H40  1  0.02406960  0.57168579  0.76040121  1  0  0.108793  0  0.951903  0  0  0.11669  0  1.013561  0  0  0.119718  0  1.013075  0  0  0.108602  0.114525  0  1.014078  0
H  H41  1  0.97592625  0.07168755  0.73959812  1  0  0.108811  0  0.951885  0  0  0.116719  0  1.013523  0  0  0.119749  0  1.013035  0  0  0.108625  0.114555  0  1.014039  0
H  H42  1  0.11067996  0.46883853  0.39393734  1  0  0.078814  0  0.994913  0  0  0.081138  0  1.073509  0  0  0.083994  0  1.070372  0  0  0.101035  0.079  0  1.075845  0
H  H43  1  0.88931521  0.96883716  0.10606269  1  0  0.078857  0  0.994943  0  0  0.08115  0  1.073568  0  0  0.084003  0  1.070437  0  0  0.101048  0.079014  0  1.075902  0
H  H44  1  0.88931263  0.53116206  0.60606144  1  0  0.078851  0  0.994914  0  0  0.081161  0  1.07352  0  0  0.084015  0  1.070388  0  0  0.101048  0.079024  0  1.075853  0
H  H45  1  0.11068992  0.03116200  0.89393750  1  0  0.078848  0  0.994979  0  0  0.081129  0  1.073602  0  0  0.083983  0  1.070472  0  0  0.101039  0.078994  0  1.075936  0
H  H46  1  0.65181224  0.34293502  0.12465579  1  0  0.064705  0  0.924226  0  0  0.079101  0  0.986993  0  0  0.078788  0  0.987237  0  0  0.104143  0.079295  0  0.986862  0
H  H47  1  0.34818631  0.84293229  0.37534576  1  0  0.0648  0  0.924184  0  0  0.07916  0  0.986984  0  0  0.078846  0  0.987228  0  0  0.104168  0.07935  0  0.98685  0
H  H48  1  0.34819010  0.65707056  0.87534302  1  0  0.064703  0  0.924157  0  0  0.079108  0  0.986985  0  0  0.07878  0  0.987216  0  0  0.10412  0.079294  0  0.986853  0
H  H49  1  0.65181188  0.15706687  0.62465578  1  0  0.064684  0  0.924196  0  0  0.079068  0  0.987002  0  0  0.078752  0  0.987244  0  0  0.104129  0.079257  0  0.986869  0
H  H50  1  0.50475802  0.40798947  0.04741054  1  0  0.068878  0  0.919168  0  0  0.081637  0  0.982753  0  0  0.082117  0  0.982153  0  0  0.10553  0.081232  0  0.983287  0
H  H51  1  0.49523674  0.90798717  0.45258783  1  0  0.068887  0  0.919215  0  0  0.081656  0  0.982784  0  0  0.082138  0  0.982183  0  0  0.105527  0.081249  0  0.983315  0
H  H52  1  0.49522902  0.59200755  0.95258960  1  0  0.06881  0  0.91904  0  0  0.081648  0  0.982602  0  0  0.082115  0  0.981987  0  0  0.105512  0.081237  0  0.983133  0
H  H53  1  0.50476557  0.09200628  0.54740960  1  0  0.068869  0  0.91916  0  0  0.081656  0  0.982727  0  0  0.08214  0  0.982117  0  0  0.10552  0.081246  0  0.983258  0
H  H54  1  0.79401991  0.35770079  0.98636777  1  0  0.102786  0  1.002701  0  0  0.111378  0  1.067629  0  0  0.113402  0  1.068678  0  0  0.098977  0.109946  0  1.066973  0
H  H55  1  0.20596947  0.85769891  0.51363311  1  0  0.102818  0  1.002681  0  0  0.111405  0  1.067605  0  0  0.11343  0  1.068653  0  0  0.098987  0.109972  0  1.06695  0
H  H56  1  0.20596986  0.64230123  0.01362687  1  0  0.102816  0  1.002793  0  0  0.111457  0  1.067642  0  0  0.113481  0  1.068689  0  0  0.098988  0.110025  0  1.066987  0
H  H57  1  0.79403569  0.14230168  0.48637052  1  0  0.102862  0  1.002707  0  0  0.111475  0  1.067587  0  0  0.113501  0  1.068632  0  0  0.09901  0.110043  0  1.066932  0
H  H58  1  0.93585602  0.62602347  0.11489250  1  0  0.109771  0  0.951567  0  0  0.122973  0  1.007979  0  0  0.125879  0  1.00678  0  0  0.105819  0.120885  0  1.008926  0
H  H59  1  0.06415087  0.12602126  0.38510981  1  0  0.10977  0  0.951547  0  0  0.123024  0  1.007894  0  0  0.125929  0  1.006695  0  0  0.105853  0.120936  0  1.008842  0
H  H60  1  0.06413238  0.37398210  0.88510420  1  0  0.109864  0  0.951475  0  0  0.123098  0  1.007828  0  0  0.126004  0  1.006629  0  0  0.105916  0.12101  0  1.008777  0
H  H61  1  0.93585568  0.87398004  0.61489314  1  0  0.109832  0  0.951591  0  0  0.123026  0  1.007991  0  0  0.125931  0  1.006792  0  0  0.105842  0.120937  0  1.008939  0
C  C62  1  0.80157901  0.29870034  0.38148477  1  0  -0.140015  0  3.729163  0  0  -0.157119  0  3.971529  0  0  -0.161614  0  3.993486  0  0  -0.100148  -0.154063  0  3.956656  0
C  C63  1  0.19843180  0.79870485  0.11852055  1  0  -0.139976  0  3.729344  0  0  -0.157078  0  3.971655  0  0  -0.161574  0  3.993622  0  0  -0.100113  -0.154024  0  3.956787  0
C  C64  1  0.19842759  0.70129526  0.61852368  1  0  -0.139906  0  3.729561  0  0  -0.157041  0  3.971896  0  0  -0.161536  0  3.993858  0  0  -0.100118  -0.153984  0  3.957019  0
C  C65  1  0.80157051  0.20129645  0.88147619  1  0  -0.140063  0  3.729297  0  0  -0.157171  0  3.971636  0  0  -0.161663  0  3.993589  0  0  -0.100177  -0.154116  0  3.956764  0
C  C66  1  0.80968685  0.24496414  0.30096716  1  0  -0.079352  0  3.814294  0  0  -0.090243  0  4.063612  0  0  -0.091244  0  4.084827  0  0  -0.099224  -0.08936  0  4.049099  0
C  C67  1  0.19032920  0.74496522  0.19903990  1  0  -0.079209  0  3.814144  0  0  -0.089997  0  4.063438  0  0  -0.091026  0  4.084639  0  0  -0.099125  -0.089121  0  4.048929  0
C  C68  1  0.19031973  0.75503431  0.69903922  1  0  -0.079229  0  3.814321  0  0  -0.090037  0  4.063617  0  0  -0.091053  0  4.084824  0  0  -0.099096  -0.089156  0  4.049104  0
C  C69  1  0.80966756  0.25504107  0.80095820  1  0  -0.079245  0  3.814309  0  0  -0.090034  0  4.063613  0  0  -0.091038  0  4.084828  0  0  -0.09905  -0.089157  0  4.049102  0
C  C70  1  0.65625408  0.19100731  0.27251150  1  0  -0.086202  0  3.780193  0  0  -0.104569  0  4.034656  0  0  -0.107797  0  4.057808  0  0  -0.104804  -0.102391  0  4.01888  0
C  C71  1  0.34376577  0.69100774  0.22749317  1  0  -0.086206  0  3.780291  0  0  -0.104609  0  4.034792  0  0  -0.107836  0  4.057963  0  0  -0.10486  -0.102427  0  4.019009  0
C  C72  1  0.34376081  0.80899542  0.72749147  1  0  -0.086295  0  3.780194  0  0  -0.104713  0  4.034695  0  0  -0.107942  0  4.057857  0  0  -0.104864  -0.102534  0  4.018917  0
C  C73  1  0.65623518  0.30899641  0.77250632  1  0  -0.086209  0  3.78048  0  0  -0.104659  0  4.034957  0  0  -0.107889  0  4.058109  0  0  -0.104841  -0.102485  0  4.019191  0
C  C74  1  0.49429260  0.19137275  0.32479895  1  0  -0.065692  0  3.78657  0  0  -0.081602  0  4.045378  0  0  -0.081785  0  4.065807  0  0  -0.097435  -0.081322  0  4.031478  0
C  C75  1  0.50571884  0.69137025  0.17519883  1  0  -0.065647  0  3.786718  0  0  -0.08157  0  4.045566  0  0  -0.081753  0  4.065985  0  0  -0.097495  -0.081291  0  4.031666  0
C  C76  1  0.50571392  0.80862713  0.67520056  1  0  -0.065669  0  3.786668  0  0  -0.081584  0  4.045502  0  0  -0.081768  0  4.065928  0  0  -0.097428  -0.081307  0  4.031604  0
C  C77  1  0.49427791  0.30863319  0.82479859  1  0  -0.065594  0  3.786392  0  0  -0.081517  0  4.045258  0  0  -0.081698  0  4.065683  0  0  -0.097478  -0.08124  0  4.031358  0
C  C78  1  0.48602337  0.24506332  0.40531947  1  0  -0.136117  0  3.725619  0  0  -0.157508  0  3.975304  0  0  -0.161522  0  3.996546  0  0  -0.100479  -0.154805  0  3.960924  0
C  C79  1  0.51398427  0.74506353  0.09468000  1  0  -0.136253  0  3.725654  0  0  -0.157636  0  3.975358  0  0  -0.16165  0  3.996598  0  0  -0.10052  -0.154932  0  3.960977  0
C  C80  1  0.51398318  0.75493442  0.59468279  1  0  -0.136179  0  3.725532  0  0  -0.157544  0  3.975196  0  0  -0.161557  0  3.996438  0  0  -0.100478  -0.154839  0  3.960815  0
C  C81  1  0.48600969  0.25493491  0.90531603  1  0  -0.136256  0  3.725471  0  0  -0.157595  0  3.975149  0  0  -0.16161  0  3.996394  0  0  -0.100492  -0.15489  0  3.960766  0
C  C82  1  0.63960227  0.29992563  0.43493665  1  0  0.144811  0  3.829548  0  0  0.169164  0  4.057129  0  0  0.171994  0  4.083005  0  0  -0.018296  0.1673  0  4.039523  0
C  C83  1  0.36040715  0.79992793  0.06506797  1  0  0.144908  0  3.829631  0  0  0.169289  0  4.057161  0  0  0.17212  0  4.083035  0  0  -0.018204  0.167425  0  4.039554  0
C  C84  1  0.36039733  0.70006783  0.56506834  1  0  0.144809  0  3.829675  0  0  0.169172  0  4.057244  0  0  0.172002  0  4.083119  0  0  -0.018301  0.167308  0  4.039637  0
C  C85  1  0.63958821  0.20007123  0.93493013  1  0  0.144807  0  3.829646  0  0  0.169152  0  4.057238  0  0  0.171981  0  4.08312  0  0  -0.018285  0.16729  0  4.039628  0
C  C86  1  0.63173744  0.35880026  0.51916571  1  0  -0.50069  0  3.630256  0  0  -0.527057  0  3.882413  0  0  -0.53936  0  3.899067  0  0  -0.23299  -0.518735  0  3.871134  0
C  C87  1  0.36826866  0.85880040  0.98083659  1  0  -0.500749  0  3.630255  0  0  -0.527133  0  3.882413  0  0  -0.539425  0  3.899063  0  0  -0.233009  -0.518825  0  3.871122  0
C  C88  1  0.36825936  0.64119748  0.48083720  1  0  -0.500695  0  3.630303  0  0  -0.527071  0  3.882454  0  0  -0.539367  0  3.899113  0  0  -0.232968  -0.518759  0  3.871172  0
C  C89  1  0.63173090  0.14119947  0.01916290  1  0  -0.500716  0  3.6301  0  0  -0.527068  0  3.882274  0  0  -0.53936  0  3.898927  0  0  -0.232969  -0.518765  0  3.870982  0
C  C90  1  0.50109781  0.45023479  0.27880188  1  0  0.099035  0  3.656797  0  0  0.05624  0  3.905358  0  0  0.063482  0  3.92353  0  0  0.058838  0.051687  0  3.893083  0
C  C91  1  0.49890146  0.95023553  0.22120172  1  0  0.09893  0  3.656913  0  0  0.056096  0  3.905438  0  0  0.063337  0  3.923611  0  0  0.058742  0.051539  0  3.893158  0
C  C92  1  0.49889619  0.54976223  0.72119827  1  0  0.098779  0  3.656745  0  0  0.05596  0  3.905247  0  0  0.063228  0  3.923443  0  0  0.058719  0.051406  0  3.892976  0
C  C93  1  0.50110089  0.04976006  0.77879846  1  0  0.098928  0  3.65693  0  0  0.056094  0  3.905442  0  0  0.063364  0  3.923631  0  0  0.058714  0.051539  0  3.893165  0
C  C94  1  0.43830921  0.42506048  0.19087869  1  0  0.022381  0  3.719954  0  0  0.046096  0  3.958987  0  0  0.040195  0  3.982716  0  0  -0.001412  0.04967  0  3.943079  0
C  C95  1  0.56168707  0.92505858  0.30912163  1  0  0.022398  0  3.719988  0  0  0.046189  0  3.958922  0  0  0.04029  0  3.982651  0  0  -0.001434  0.04976  0  3.943008  0
C  C96  1  0.56168756  0.57493797  0.80912079  1  0  0.022371  0  3.719965  0  0  0.046188  0  3.95894  0  0  0.040272  0  3.98264  0  0  -0.00144  0.049753  0  3.94303  0
C  C97  1  0.43831527  0.07493916  0.69087855  1  0  0.022307  0  3.720045  0  0  0.046128  0  3.958958  0  0  0.040228  0  3.982675  0  0  -0.00144  0.049697  0  3.943044  0
C  C98  1  0.24689681  0.41556350  0.17645230  1  0  -0.042426  0  3.691725  0  0  -0.06725  0  3.930243  0  0  -0.064185  0  3.950459  0  0  -0.060195  -0.068863  0  3.916417  0
C  C99  1  0.75310079  0.91555753  0.32354602  1  0  -0.042452  0  3.691677  0  0  -0.067308  0  3.93018  0  0  -0.064244  0  3.950397  0  0  -0.060161  -0.06892  0  3.916353  0
C  C100  1  0.75309577  0.58443638  0.82354510  1  0  -0.042527  0  3.69185  0  0  -0.067374  0  3.930347  0  0  -0.064311  0  3.950569  0  0  -0.060178  -0.068986  0  3.916523  0
C  C101  1  0.24690294  0.08443806  0.67645347  1  0  -0.042405  0  3.691743  0  0  -0.067278  0  3.93025  0  0  -0.064212  0  3.95047  0  0  -0.060162  -0.068891  0  3.916424  0
C  C102  1  0.12615568  0.43200514  0.24914879  1  0  -0.105425  0  3.729542  0  0  -0.114585  0  3.98057  0  0  -0.122442  0  4.003332  0  0  -0.079008  -0.109636  0  3.965315  0
C  C103  1  0.87384063  0.93200060  0.25085011  1  0  -0.105309  0  3.729548  0  0  -0.114451  0  3.980559  0  0  -0.122309  0  4.003324  0  0  -0.079014  -0.109502  0  3.9653  0
C  C104  1  0.87383691  0.56799901  0.75084998  1  0  -0.105244  0  3.729487  0  0  -0.114375  0  3.980501  0  0  -0.12223  0  4.003264  0  0  -0.07899  -0.109426  0  3.965244  0
C  C105  1  0.12616311  0.06799856  0.74915008  1  0  -0.105319  0  3.729557  0  0  -0.114456  0  3.98056  0  0  -0.122315  0  4.003327  0  0  -0.079013  -0.109506  0  3.965302  0
C  C106  1  0.19959481  0.45536138  0.33496415  1  0  0.113882  0  3.696846  0  0  0.077408  0  3.947689  0  0  0.084144  0  3.966345  0  0  0.04802  0.073176  0  3.935078  0
C  C107  1  0.80040588  0.95536158  0.16504011  1  0  0.113778  0  3.696905  0  0  0.077319  0  3.947714  0  0  0.084054  0  3.96637  0  0  0.048002  0.073085  0  3.935104  0
C  C108  1  0.80040337  0.54463992  0.66503670  1  0  0.113738  0  3.69689  0  0  0.077268  0  3.94773  0  0  0.084003  0  3.966389  0  0  0.047977  0.073035  0  3.935118  0
C  C109  1  0.19959648  0.04464043  0.83496214  1  0  0.113811  0  3.696992  0  0  0.07736  0  3.947797  0  0  0.084096  0  3.966456  0  0  0.048012  0.073125  0  3.935186  0
C  C110  1  0.57565638  0.41070504  0.11500389  1  0  0.065132  0  3.633757  0  0  0.001962  0  3.89236  0  0  0.011126  0  3.896787  0  0  -0.054723  -0.004182  0  3.889388  0
C  C111  1  0.42433981  0.91070166  0.38499721  1  0  0.065018  0  3.633782  0  0  0.001822  0  3.892409  0  0  0.010984  0  3.896836  0  0  -0.054747  -0.004307  0  3.889413  0
C  C112  1  0.42433342  0.58929698  0.88499418  1  0  0.065235  0  3.633343  0  0  0.001918  0  3.892213  0  0  0.011173  0  3.896533  0  0  -0.054721  -0.004205  0  3.889206  0
C  C113  1  0.57566393  0.08929608  0.61500367  1  0  0.065124  0  3.633563  0  0  0.001912  0  3.892219  0  0  0.011099  0  3.896634  0  0  -0.05474  -0.004209  0  3.889213  0
C  C114  1  0.88340670  0.41991464  0.99361722  1  0  -0.188298  0  3.789882  0  0  -0.205806  0  4.039614  0  0  -0.209051  0  4.059647  0  0  -0.111315  -0.203562  0  4.026094  0
C  C115  1  0.11658867  0.91991266  0.50638534  1  0  -0.188328  0  3.789969  0  0  -0.205812  0  4.039672  0  0  -0.209055  0  4.059701  0  0  -0.111299  -0.203567  0  4.026153  0
C  C116  1  0.11658726  0.58009094  0.00637881  1  0  -0.188404  0  3.790048  0  0  -0.205886  0  4.03974  0  0  -0.20913  0  4.059769  0  0  -0.111233  -0.203643  0  4.026222  0
C  C117  1  0.88341789  0.08008864  0.49361830  1  0  -0.188419  0  3.789872  0  0  -0.2059  0  4.039618  0  0  -0.209143  0  4.059645  0  0  -0.111281  -0.203655  0  4.026101  0
C  C118  1  0.84707287  0.49150591  0.05807252  1  0  0.233791  0  3.843923  0  0  0.223575  0  4.108628  0  0  0.232907  0  4.124561  0  0  0.067085  0.217074  0  4.097861  0
C  C119  1  0.15292665  0.99150168  0.44193012  1  0  0.233772  0  3.844224  0  0  0.22355  0  4.108929  0  0  0.232881  0  4.124863  0  0  0.067039  0.217046  0  4.098163  0
C  C120  1  0.15291968  0.50849896  0.94192213  1  0  0.233873  0  3.843708  0  0  0.223614  0  4.10853  0  0  0.232958  0  4.124466  0  0  0.066935  0.217104  0  4.097771  0
C  C121  1  0.84708269  0.00849962  0.55807421  1  0  0.233799  0  3.843884  0  0  0.223538  0  4.108685  0  0  0.232881  0  4.12462  0  0  0.066974  0.217031  0  4.097924  0
C  C122  1  0.96358986  0.57122912  0.06382444  1  0  -0.158066  0  3.771947  0  0  -0.180257  0  4.026892  0  0  -0.183045  0  4.045163  0  0  -0.103759  -0.17826  0  4.014544  0
C  C123  1  0.03641803  0.07122794  0.43617479  1  0  -0.158047  0  3.771699  0  0  -0.180287  0  4.026654  0  0  -0.183073  0  4.044921  0  0  -0.103799  -0.178293  0  4.01431  0
C  C124  1  0.03639992  0.42877503  0.93617089  1  0  -0.158276  0  3.771826  0  0  -0.180428  0  4.026752  0  0  -0.183217  0  4.045018  0  0  -0.103832  -0.178434  0  4.014407  0
C  C125  1  0.96359270  0.92877265  0.56382954  1  0  -0.158204  0  3.771763  0  0  -0.180357  0  4.026709  0  0  -0.18314  0  4.04497  0  0  -0.103768  -0.178362  0  4.014365  0
N  N126  1  0.38450530  0.46380529  0.34906310  1  0  -0.315638  0  3.29671  0  0  -0.226393  0  3.535311  0  0  -0.24574  0  3.559438  0  0  -0.291508  -0.213388  0  3.518602  0
N  N127  1  0.61549404  0.96380885  0.15093973  1  0  -0.315629  0  3.296611  0  0  -0.226369  0  3.535201  0  0  -0.245707  0  3.559313  0  0  -0.291503  -0.213364  0  3.518494  0
N  N128  1  0.61549147  0.53619316  0.65093638  1  0  -0.315511  0  3.296515  0  0  -0.226278  0  3.535136  0  0  -0.245619  0  3.559245  0  0  -0.291486  -0.213273  0  3.518428  0
N  N129  1  0.38451249  0.03619031  0.84906115  1  0  -0.315673  0  3.296616  0  0  -0.226426  0  3.535229  0  0  -0.245758  0  3.55932  0  0  -0.291531  -0.213423  0  3.518525  0
Cl  Cl130  1  0.20174784  0.43073855  0.57252060  1  0  -0.559684  0  0.792188  0  0  -0.505828  0  1.00675  0  0  -0.517734  0  0.992745  0  0  -0.281005  -0.497102  0  1.016217  0
Cl  Cl131  1  0.79824615  0.93074691  0.92747638  1  0  -0.559695  0  0.792195  0  0  -0.505826  0  1.006728  0  0  -0.517729  0  0.992728  0  0  -0.280987  -0.497098  0  1.016197  0
Cl  Cl132  1  0.79823365  0.56925420  0.42748158  1  0  -0.559841  0  0.792062  0  0  -0.505986  0  1.006594  0  0  -0.517898  0  0.992593  0  0  -0.281128  -0.497259  0  1.016064  0
Cl  Cl133  1  0.20176871  0.06924797  0.07252247  1  0  -0.559783  0  0.792138  0  0  -0.505934  0  1.006676  0  0  -0.517842  0  0.992682  0  0  -0.281083  -0.497202  0  1.016149  0
O  O134  1  0.70306460  0.48934739  0.11936642  1  0  -0.296241  0  2.343008  0  0  -0.225944  0  2.582613  0  0  -0.243833  0  2.585451  0  0  -0.183709  -0.213384  0  2.580351  0
O  O135  1  0.29693211  0.98934597  0.38063417  1  0  -0.296244  0  2.343016  0  0  -0.225925  0  2.582607  0  0  -0.243819  0  2.585452  0  0  -0.183698  -0.213366  0  2.580338  0
O  O136  1  0.29691817  0.51065962  0.88062339  1  0  -0.296179  0  2.342695  0  0  -0.225979  0  2.582491  0  0  -0.243925  0  2.585331  0  0  -0.183628  -0.213408  0  2.580215  0
O  O137  1  0.70308003  0.01065605  0.61937085  1  0  -0.296145  0  2.342865  0  0  -0.225903  0  2.582559  0  0  -0.243835  0  2.585421  0  0  -0.183649  -0.213343  0  2.580287  0
