# generated using pymatgen
data_Pr2H15C21(NO5)3
_symmetry_space_group_name_H-M   'P 1'
_cell_length_a   8.67042024
_cell_length_b   11.17312372
_cell_length_c   18.75602260
_cell_angle_alpha   57.18790512
_cell_angle_beta   83.44692539
_cell_angle_gamma   61.37306560
_symmetry_Int_Tables_number   1
_chemical_formula_structural   Pr2H15C21(NO5)3
_chemical_formula_sum   'Pr4 H30 C42 N6 O30'
_cell_volume   1314.09866205
_cell_formula_units_Z   2
loop_
 _symmetry_equiv_pos_site_id
 _symmetry_equiv_pos_as_xyz
  1  'x, y, z'
loop_
 _atom_site_type_symbol
 _atom_site_label
 _atom_site_symmetry_multiplicity
 _atom_site_fract_x
 _atom_site_fract_y
 _atom_site_fract_z
 _atom_site_occupancy
 _atom_site_pbe_bader_charge
 _atom_site_pbe_bader_spin_density
 _atom_site_pbe_cm5_charge
 _atom_site_pbe_ddec_charge
 _atom_site_pbe_ddec_spin_density
 _atom_site_pbe_ddec_sum_bond_order
 _atom_site_pbe_magmom
Pr  Pr0  1  0.16039813  0.42568091  0.78983817  1  2.261318  0  1.507427  2.11608  0  2.153176  0
Pr  Pr1  1  0.83959670  0.57432889  0.21015891  1  2.261408  0  1.507432  2.116128  0  2.153133  0
Pr  Pr2  1  0.50607998  0.59466037  0.69720674  1  2.299355  0  1.486015  2.236022  0  1.984721  0
Pr  Pr3  1  0.49392121  0.40533878  0.30279196  1  2.299308  0  1.486006  2.23601  0  1.984772  0
H  H4  1  0.28754341  0.95858544  0.60666493  1  0.629959  0  0.306851  0.388194  0  0.942525  0
H  H5  1  0.71245322  0.04141604  0.39333944  1  0.629854  0  0.306854  0.388194  0  0.942519  0
H  H6  1  0.14926858  0.93400033  0.66776208  1  0.626624  0  0.294769  0.364788  0  0.984164  0
H  H7  1  0.85072684  0.06599636  0.33223856  1  0.626612  0  0.294767  0.364802  0  0.984154  0
H  H8  1  0.43858281  0.79543086  0.51493566  1  0.621199  0  0.30171  0.384934  0  0.939385  0
H  H9  1  0.56142983  0.20456153  0.48506459  1  0.621533  0  0.3017  0.384968  0  0.939341  0
H  H10  1  0.59964134  0.82243482  0.51378810  1  0.648222  0  0.28573  0.351079  0  1.00537  0
H  H11  1  0.40037155  0.17755707  0.48621334  1  0.648285  0  0.285765  0.351105  0  1.005331  0
H  H12  1  0.27184939  0.20938863  0.98816315  1  0.613509  0  0.338023  0.424734  0  0.85436  0
H  H13  1  0.72814648  0.79063814  0.01183102  1  0.613697  0  0.337993  0.424633  0  0.854408  0
H  H14  1  0.36899357  0.10150525  0.95093767  1  0.624245  0  0.326566  0.408994  0  0.894309  0
H  H15  1  0.63099299  0.89851203  0.04906080  1  0.624473  0  0.326498  0.408838  0  0.894496  0
H  H16  1  0.98739328  0.83370574  0.67427400  1  0.116523  0  0.127097  0.093917  0  1.031709  0
H  H17  1  0.01260181  0.16629166  0.32572758  1  0.11654  0  0.127094  0.093913  0  1.03168  0
H  H18  1  0.40244813  0.76721912  0.03127735  1  0.103802  0  0.116848  0.092181  0  1.004368  0
H  H19  1  0.59755915  0.23277240  0.96872608  1  0.103694  0  0.116841  0.092208  0  1.004364  0
H  H20  1  0.42368635  0.72601348  0.82395749  1  0.117708  0  0.116775  0.079464  0  1.061674  0
H  H21  1  0.57632450  0.27397549  0.17604636  1  0.118059  0  0.11678  0.079493  0  1.061701  0
H  H22  1  0.83650715  0.17396244  0.73654409  1  0.119235  0  0.124683  0.098022  0  1.000453  0
H  H23  1  0.16348160  0.82604308  0.26345156  1  0.119319  0  0.124686  0.097935  0  1.000558  0
H  H24  1  0.29269534  0.56304731  0.45387472  1  0.158282  0  0.12243  0.133503  0  0.995916  0
H  H25  1  0.70731153  0.43694262  0.54612747  1  0.158369  0  0.122399  0.133583  0  0.995806  0
H  H26  1  0.89112799  0.78236848  0.56861999  1  0.134454  0  0.130061  0.107141  0  0.994448  0
H  H27  1  0.10887717  0.21763441  0.43137655  1  0.134373  0  0.130048  0.107101  0  0.994414  0
H  H28  1  0.50083301  0.96767927  0.77222534  1  0.175265  0  0.120428  0.12975  0  1.00351  0
H  H29  1  0.49916112  0.03232006  0.22777421  1  0.175368  0  0.120458  0.129785  0  1.003511  0
H  H30  1  0.73004097  0.76114929  0.37753345  1  0.127498  0  0.123581  0.097662  0  0.989414  0
H  H31  1  0.26996430  0.23885102  0.62246423  1  0.127461  0  0.123592  0.09769  0  0.989398  0
H  H32  1  0.08590960  0.58776756  0.00260354  1  0.140505  0  0.11655  0.127432  0  0.999153  0
H  H33  1  0.91408210  0.41224150  0.99739332  1  0.140465  0  0.116542  0.127414  0  0.999135  0
C  C34  1  0.74133840  0.88471496  0.72265887  1  -0.029591  0  -0.007202  -0.079561  0  3.96345  0
C  C35  1  0.25865718  0.11528382  0.27734183  1  -0.029677  0  -0.007267  -0.079646  0  3.963494  0
C  C36  1  0.89115364  0.90330854  0.69876283  1  0.506345  0  0.059945  0.080502  0  3.918166  0
C  C37  1  0.10884133  0.09668911  0.30123816  1  0.506385  0  0.059924  0.080545  0  3.918066  0
C  C38  1  0.35363588  0.73748999  0.99514008  1  0.520069  0  0.057635  0.08664  0  3.932225  0
C  C39  1  0.64636949  0.26250305  0.00486256  1  0.520387  0  0.057625  0.086602  0  3.932311  0
C  C40  1  0.36699548  0.71184086  0.88120294  1  0.522346  0  0.056388  0.081878  0  3.927832  0
C  C41  1  0.63301345  0.28814963  0.11880011  1  0.522485  0  0.05636  0.081827  0  3.927902  0
C  C42  1  0.65056721  0.08717641  0.75460749  1  0.02579  0  -0.009921  -0.079509  0  3.947253  0
C  C43  1  0.34942599  0.91282484  0.24539275  1  0.025757  0  -0.009947  -0.079589  0  3.947392  0
C  C44  1  0.24722943  0.63476744  0.57740896  1  1.560158  0  0.223547  0.62068  0  4.199387  0
C  C45  1  0.75277475  0.36523036  0.42258990  1  1.560034  0  0.223588  0.62068  0  4.19939  0
C  C46  1  0.51247253  0.19400316  0.78078302  1  1.553559  0  0.213201  0.615334  0  4.200012  0
C  C47  1  0.48752055  0.80599834  0.21921662  1  1.553357  0  0.213293  0.615514  0  4.199952  0
C  C48  1  0.80742103  0.09337288  0.73190246  1  0.478031  0  0.065862  0.094836  0  3.896274  0
C  C49  1  0.19257119  0.90662798  0.26809629  1  0.477915  0  0.065882  0.095015  0  3.896192  0
C  C50  1  0.23140197  0.68048954  0.02531298  1  -0.016453  0  -0.010762  -0.092943  0  3.957878  0
C  C51  1  0.76859768  0.31951039  0.97468670  1  -0.016517  0  -0.01078  -0.092932  0  3.9579  0
C  C52  1  0.25014744  0.64838953  0.90757907  1  -0.022927  0  -0.014837  -0.085727  0  3.967904  0
C  C53  1  0.74985342  0.35161033  0.09242056  1  -0.022916  0  -0.014859  -0.085756  0  3.967926  0
C  C54  1  0.72332315  0.76140791  0.71901693  1  1.596851  0  0.236829  0.645369  0  4.186264  0
C  C55  1  0.27667217  0.23859136  0.28098257  1  1.597177  0  0.236881  0.645476  0  4.186131  0
C  C56  1  0.15341949  0.62432335  0.45915328  1  -0.012448  0  -0.042162  -0.044338  0  3.872894  0
C  C57  1  0.84658716  0.37566940  0.54084718  1  -0.012697  0  -0.0421  -0.044436  0  3.872971  0
C  C58  1  0.92902915  0.74716748  0.52261590  1  0.510383  0  0.073548  0.103884  0  3.881282  0
C  C59  1  0.07097732  0.25283276  0.47738174  1  0.510508  0  0.073577  0.103998  0  3.88121  0
C  C60  1  0.10919416  0.66911962  0.51821070  1  -0.009643  0  -0.007266  -0.077385  0  3.955182  0
C  C61  1  0.89081253  0.33087779  0.48178867  1  -0.009188  0  -0.007312  -0.077392  0  3.955277  0
C  C62  1  0.17186420  0.65622856  0.10801204  1  1.616652  0  0.245839  0.683386  0  4.150899  0
C  C63  1  0.82813249  0.34377505  0.89198693  1  1.616646  0  0.245822  0.683322  0  4.150892  0
C  C64  1  0.05757110  0.59912104  0.34795303  1  1.613069  0  0.239267  0.659894  0  4.178155  0
C  C65  1  0.94243269  0.40087281  0.65204786  1  1.61261  0  0.239209  0.659839  0  4.178328  0
C  C66  1  0.61854953  0.97868396  0.75128676  1  -0.042516  0  -0.045357  -0.047456  0  3.879541  0
C  C67  1  0.38144428  0.02131843  0.24871318  1  -0.042497  0  -0.04539  -0.047536  0  3.879788  0
C  C68  1  0.01602935  0.65529508  0.40832267  1  -0.028468  0  -0.011556  -0.09817  0  3.956332  0
C  C69  1  0.98397790  0.34469880  0.59167750  1  -0.028286  0  -0.011585  -0.098197  0  3.956472  0
C  C70  1  0.21145676  0.58633145  0.86288708  1  1.538244  0  0.21343  0.619036  0  4.190515  0
C  C71  1  0.78853934  0.41367337  0.13711164  1  1.538594  0  0.213498  0.619115  0  4.190419  0
C  C72  1  0.83952701  0.73489616  0.41684017  1  0.500892  0  0.063073  0.091312  0  3.904686  0
C  C73  1  0.16047956  0.26510150  0.58315861  1  0.500872  0  0.06302  0.091264  0  3.90464  0
C  C74  1  0.17688610  0.63696433  0.97995286  1  -0.045508  0  -0.05354  -0.059594  0  3.88748  0
C  C75  1  0.82311180  0.36303921  0.02004607  1  -0.04548  0  -0.053511  -0.059575  0  3.887461  0
N  N76  1  0.41755280  0.75727411  0.92329830  1  -1.192991  0  -0.321884  -0.262181  0  3.30446  0
N  N77  1  0.58245639  0.24271589  0.07670594  1  -1.193621  0  -0.321832  -0.262133  0  3.304511  0
N  N78  1  0.79592786  0.78166689  0.47232777  1  -1.260846  0  -0.306597  -0.254094  0  3.409799  0
N  N79  1  0.20407873  0.21833310  0.52767047  1  -1.261131  0  -0.306563  -0.254125  0  3.409766  0
N  N80  1  0.92694819  0.00247487  0.70430344  1  -1.226887  0  -0.310998  -0.264282  0  3.376413  0
N  N81  1  0.07304415  0.99752574  0.29569590  1  -1.227011  0  -0.310961  -0.2643  0  3.376296  0
O  O82  1  0.29831524  0.57763259  0.80350643  1  -1.228015  0  -0.430909  -0.762789  0  2.38167  0
O  O83  1  0.70168204  0.42236982  0.19649279  1  -1.228334  0  -0.43094  -0.762832  0  2.381677  0
O  O84  1  0.23844692  0.88555883  0.63940694  1  -1.256448  0  -0.629758  -0.829274  0  2.136184  0
O  O85  1  0.76155107  0.11444214  0.36059313  1  -1.256336  0  -0.62978  -0.829304  0  2.136156  0
O  O86  1  0.01077726  0.68703019  0.11288579  1  -1.214561  0  -0.413764  -0.690159  0  2.24946  0
O  O87  1  0.98921711  0.31298057  0.88711163  1  -1.214568  0  -0.413732  -0.690099  0  2.249476  0
O  O88  1  0.57167568  0.77112374  0.71851164  1  -1.197265  0  -0.369938  -0.639352  0  2.264001  0
O  O89  1  0.42831992  0.22887736  0.28148852  1  -1.197456  0  -0.369917  -0.639364  0  2.263891  0
O  O90  1  0.50439962  0.32659468  0.76070141  1  -1.208763  0  -0.396541  -0.724198  0  2.321759  0
O  O91  1  0.49559631  0.67340572  0.23929781  1  -1.208456  0  -0.396562  -0.724244  0  2.321717  0
O  O92  1  0.22076959  0.53195124  0.34276067  1  -1.211648  0  -0.408252  -0.705345  0  2.366334  0
O  O93  1  0.77923496  0.46803392  0.65724329  1  -1.211558  0  -0.408167  -0.705292  0  2.366436  0
O  O94  1  0.92743954  0.62156273  0.30831008  1  -1.198456  0  -0.388674  -0.659775  0  2.274076  0
O  O95  1  0.07256157  0.37844133  0.69168693  1  -1.198278  0  -0.38865  -0.659753  0  2.274104  0
O  O96  1  0.28749844  0.60547345  0.16763796  1  -1.212462  0  -0.404668  -0.683244  0  2.313595  0
O  O97  1  0.71249608  0.39452748  0.83236283  1  -1.212469  0  -0.404697  -0.683228  0  2.313536  0
O  O98  1  0.09663044  0.53931147  0.88406808  1  -1.172196  0  -0.365219  -0.616459  0  2.164526  0
O  O99  1  0.90335817  0.46070151  0.11592748  1  -1.172247  0  -0.365237  -0.616498  0  2.164515  0
O  O100  1  0.86442920  0.65298945  0.71543532  1  -1.224373  0  -0.406306  -0.699409  0  2.384786  0
O  O101  1  0.13556373  0.34701465  0.28456046  1  -1.224391  0  -0.406322  -0.699443  0  2.384826  0
O  O102  1  0.39913271  0.15224025  0.81926280  1  -1.173445  0  -0.375306  -0.618362  0  2.208399  0
O  O103  1  0.60085931  0.84776341  0.18073693  1  -1.17355  0  -0.375361  -0.618464  0  2.208481  0
O  O104  1  0.39772212  0.61809744  0.55800348  1  -1.182477  0  -0.333997  -0.606278  0  2.180623  0
O  O105  1  0.60228274  0.38189658  0.44199678  1  -1.18249  0  -0.334028  -0.606304  0  2.18073  0
O  O106  1  0.20728326  0.62501750  0.64793344  1  -1.210296  0  -0.41866  -0.735696  0  2.401923  0
O  O107  1  0.79271856  0.37498511  0.35206443  1  -1.21021  0  -0.418684  -0.735711  0  2.401945  0
O  O108  1  0.49046689  0.82838185  0.54040201  1  -1.280375  0  -0.623716  -0.810448  0  2.039756  0
O  O109  1  0.50954705  0.17160788  0.45959934  1  -1.280724  0  -0.623733  -0.810491  0  2.039635  0
O  O110  1  0.35328556  0.19564189  0.94938677  1  -1.201014  0  -0.586309  -0.790631  0  2.03574  0
O  O111  1  0.64670876  0.80437611  0.05060843  1  -1.201476  0  -0.586226  -0.790337  0  2.035914  0
