# generated using pymatgen
data_NiH13C19S2(NO)4
_symmetry_space_group_name_H-M   'P 1'
_cell_length_a   7.08930836
_cell_length_b   11.05554486
_cell_length_c   12.99133354
_cell_angle_alpha   85.65124432
_cell_angle_beta   77.67118301
_cell_angle_gamma   79.94770903
_symmetry_Int_Tables_number   1
_chemical_formula_structural   NiH13C19S2(NO)4
_chemical_formula_sum   'Ni2 H26 C38 S4 N8 O8'
_cell_volume   978.67188210
_cell_formula_units_Z   2
loop_
 _symmetry_equiv_pos_site_id
 _symmetry_equiv_pos_as_xyz
  1  'x, y, z'
loop_
 _atom_site_type_symbol
 _atom_site_label
 _atom_site_symmetry_multiplicity
 _atom_site_fract_x
 _atom_site_fract_y
 _atom_site_fract_z
 _atom_site_occupancy
 _atom_site_pbe_cm5_charge
 _atom_site_pbe_ddec_charge
 _atom_site_pbe_ddec_spin_density
 _atom_site_pbe_ddec_sum_bond_order
 _atom_site_pbe_magmom
Ni  Ni0  1  0.00000097  0.99999669  0.00000077  1  0.600724  0.569572  1.621488  2.920146  1.342
Ni  Ni1  1  0.00000023  0.49999798  0.99999964  1  0.60219  0.573573  -1.627956  2.907188  -1.351
H  H2  1  0.17103393  0.03127078  0.76310468  1  0.111888  0.083283  0.0008  1.036727  0.001
H  H3  1  0.82896366  0.96871243  0.23689388  1  0.111852  0.083242  0.0008  1.036694  0.001
H  H4  1  0.03355748  0.08409880  0.59936722  1  0.114834  0.131543  0.000483  1.004943  0.001
H  H5  1  0.96644398  0.91589178  0.40063345  1  0.114854  0.13157  0.000483  1.00495  0.001
H  H6  1  0.47690518  0.01440357  0.78336893  1  0.105573  0.117855  0.0004  1.03591  0.001
H  H7  1  0.52309080  0.98560276  0.21663730  1  0.105568  0.117894  0.0004  1.035881  0.001
H  H8  1  0.63783765  0.96109176  0.93717817  1  0.108821  0.085484  0.000973  1.042506  0.001
H  H9  1  0.36215826  0.03890905  0.06282772  1  0.108832  0.085502  0.000974  1.042609  0.001
H  H10  1  0.86069866  0.35353294  0.21072417  1  0.114758  0.08832  -0.000837  1.023112  -0.001
H  H11  1  0.13930295  0.64646869  0.78927719  1  0.114743  0.088324  -0.000837  1.023077  -0.001
H  H12  1  0.01070050  0.24632421  0.35779276  1  0.114908  0.131677  -0.000488  0.997166  -0.001
H  H13  1  0.98929849  0.75368205  0.64221008  1  0.114917  0.13176  -0.000488  0.997108  -0.001
H  H14  1  0.54595364  0.37694156  0.20778103  1  0.110041  0.12017  -0.000306  1.02101  0.0
H  H15  1  0.45405379  0.62306002  0.79221894  1  0.110028  0.120136  -0.000306  1.021074  0.0
H  H16  1  0.37602912  0.47697497  0.06674343  1  0.113125  0.088196  -0.000811  1.035212  -0.001
H  H17  1  0.62397222  0.52302204  0.93325678  1  0.113104  0.088179  -0.000811  1.035167  -0.001
H  H18  1  0.40114129  0.13090442  0.54074988  1  0.302981  0.353616  1e-06  0.990286  0.0
H  H19  1  0.59885618  0.86909633  0.45925277  1  0.30298  0.353548  1e-06  0.990386  0.0
H  H20  1  0.64420756  0.19259107  0.41862467  1  0.304626  0.354401  -3e-06  0.989643  0.0
H  H21  1  0.35579261  0.80741056  0.58137685  1  0.30462  0.354431  -3e-06  0.989637  0.0
H  H22  1  0.84882394  0.52566899  0.43842297  1  0.097452  0.103649  2e-06  1.040697  0.0
H  H23  1  0.15118316  0.47433517  0.56156760  1  0.097433  0.103457  2e-06  1.040959  0.0
H  H24  1  0.60563913  0.61331590  0.33041058  1  0.088733  0.093759  -0.000691  1.063095  0.0
H  H25  1  0.39437199  0.38669000  0.66957559  1  0.088728  0.09373  -0.000691  1.063092  0.0
H  H26  1  0.99005377  0.33094229  0.73425398  1  0.132996  0.22039  5.5e-05  1.006956  0.0
H  H27  1  0.00993813  0.66907505  0.26575033  1  0.132986  0.220433  5.5e-05  1.006786  0.0
C  C28  1  0.20445347  0.22784524  0.91443983  1  0.158024  0.274427  0.002339  4.238933  0.013
C  C29  1  0.79553917  0.77215184  0.08556207  1  0.158147  0.274557  0.00234  4.238901  0.013
C  C30  1  0.77441122  0.28069545  0.03535330  1  0.160206  0.27006  -0.002673  4.254752  -0.013
C  C31  1  0.22558832  0.71929699  0.96464821  1  0.160271  0.270164  -0.002674  4.254717  -0.013
C  C32  1  0.01823537  0.02820610  0.76373170  1  0.049705  0.093334  -0.001006  3.911025  -0.002
C  C33  1  0.98176201  0.97178358  0.23626871  1  0.049548  0.093159  -0.001006  3.911138  -0.002
C  C34  1  0.94199237  0.05760461  0.67315071  1  -0.06838  -0.117928  0.003378  3.905462  0.004
C  C35  1  0.05800703  0.94238872  0.32684843  1  -0.068335  -0.117842  0.003378  3.905394  0.004
C  C36  1  0.74289968  0.05597651  0.67980861  1  -1e-05  -0.010588  -0.003076  3.977981  -0.003
C  C37  1  0.25709779  0.94402424  0.32019403  1  -0.000122  -0.010751  -0.003076  3.978111  -0.003
C  C38  1  0.63121312  0.01893247  0.77518206  1  -0.077297  -0.127848  0.002757  3.930724  0.004
C  C39  1  0.36878526  0.98107015  0.22482265  1  -0.077197  -0.127744  0.002758  3.930702  0.004
C  C40  1  0.71948799  0.99039905  0.86142968  1  0.045388  0.091933  -0.001437  3.934273  -0.003
C  C41  1  0.28050992  0.00959986  0.13857306  1  0.045348  0.091864  -0.001438  3.934519  -0.003
C  C42  1  0.65084690  0.09713823  0.58797081  1  0.246738  0.592822  -0.000359  4.090517  0.0
C  C43  1  0.34915622  0.90286336  0.41202886  1  0.246855  0.592955  -0.000359  4.090347  0.0
C  C44  1  0.01269915  0.35597499  0.21254579  1  0.050544  0.095197  0.002301  3.904881  0.003
C  C45  1  0.98730263  0.64402575  0.78745716  1  0.050521  0.095143  0.002302  3.904837  0.003
C  C46  1  0.09609077  0.29620864  0.29419836  1  -0.069392  -0.123488  -0.003668  3.906542  -0.005
C  C47  1  0.90391011  0.70379578  0.70580441  1  -0.069391  -0.123516  -0.003668  3.906548  -0.005
C  C48  1  0.29262950  0.30113582  0.29240919  1  -0.001446  -0.015924  0.004523  3.988468  0.005
C  C49  1  0.70736974  0.69886951  0.70759292  1  -0.001446  -0.015924  0.004523  3.988379  0.005
C  C50  1  0.39492953  0.36810744  0.21053067  1  -0.072489  -0.121994  -0.002239  3.951362  -0.004
C  C51  1  0.60507503  0.63189414  0.78946884  1  -0.072498  -0.12205  -0.002238  3.951467  -0.004
C  C52  1  0.30080575  0.42440471  0.13201971  1  0.051821  0.094544  0.002946  3.926924  0.004
C  C53  1  0.69919353  0.57559504  0.86797897  1  0.051869  0.094637  0.002946  3.926844  0.004
C  C54  1  0.39179497  0.23597259  0.37533597  1  0.246051  0.587501  0.000582  4.098378  0.0
C  C55  1  0.60821289  0.76403352  0.62466054  1  0.246123  0.587585  0.000582  4.098259  0.0
C  C56  1  0.69625835  0.51415844  0.46529339  1  -0.088118  -0.120657  4.6e-05  3.949967  0.0
C  C57  1  0.30374767  0.48584474  0.53469353  1  -0.08801  -0.120264  4.6e-05  3.949766  0.0
C  C58  1  0.63901075  0.44904946  0.56137191  1  -0.004915  0.114184  6e-06  4.094814  0.0
C  C59  1  0.36099529  0.55095371  0.43861424  1  -0.004989  0.114152  6e-06  4.094732  0.0
C  C60  1  0.55950042  0.56432744  0.40514068  1  -0.089653  -0.120964  -0.000361  3.95013  0.0
C  C61  1  0.44050339  0.43567855  0.59484857  1  -0.089548  -0.120858  -0.000361  3.949812  0.0
C  C62  1  0.77678700  0.40026101  0.62506337  1  -0.043046  -0.004111  -0.000133  4.137437  0.0
C  C63  1  0.22321930  0.59974597  0.37493016  1  -0.043081  -0.004319  -0.000133  4.13747  0.0
C  C64  1  0.89075113  0.36153210  0.68232314  1  -0.13171  -0.288468  -0.000105  3.723039  0.0
C  C65  1  0.10925004  0.63848328  0.31767647  1  -0.131662  -0.288378  -0.000104  3.722824  0.0
S  S66  1  0.26477439  0.36316805  0.88160729  1  -0.104787  -0.250252  -0.059166  2.544164  -0.066
S  S67  1  0.73521848  0.63682891  0.11838844  1  -0.104807  -0.250288  -0.059164  2.54421  -0.066
S  S68  1  0.70395576  0.14797890  0.06256508  1  -0.10055  -0.253229  0.056724  2.702057  0.064
S  S69  1  0.29604344  0.85201452  0.93743947  1  -0.100544  -0.253253  0.056728  2.702026  0.064
N  N70  1  0.16082853  0.12937004  0.93823346  1  -0.385063  -0.444988  0.012034  3.351901  0.015
N  N71  1  0.83916578  0.87062611  0.06176833  1  -0.385162  -0.445105  0.012033  3.351884  0.015
N  N72  1  0.82194200  0.37892875  0.01888361  1  -0.394024  -0.453314  -0.009869  3.392188  -0.011
N  N73  1  0.17805759  0.62106367  0.98111636  1  -0.394108  -0.453395  -0.009868  3.392215  -0.011
N  N74  1  0.90799559  0.99845266  0.85704561  1  -0.311859  -0.193686  0.047428  3.579184  0.068
N  N75  1  0.09200849  0.00153886  0.14295626  1  -0.311767  -0.193572  0.04743  3.579343  0.068
N  N76  1  0.11339944  0.41790512  0.13191536  1  -0.30708  -0.194151  -0.04756  3.562241  -0.069
N  N77  1  0.88660306  0.58209283  0.86808619  1  -0.307082  -0.194169  -0.047563  3.562248  -0.069
O  O78  1  0.74856694  0.13078740  0.50227094  1  -0.272008  -0.485496  -0.000488  2.223224  -0.001
O  O79  1  0.25142769  0.86921253  0.49773669  1  -0.272103  -0.485597  -0.000488  2.222893  -0.001
O  O80  1  0.46053366  0.09691401  0.60624721  1  -0.318097  -0.469434  -0.000234  2.322508  0.0
O  O81  1  0.53946258  0.90308582  0.39375563  1  -0.318049  -0.469361  -0.000234  2.322679  0.0
O  O82  1  0.58041309  0.23967634  0.35870730  1  -0.312086  -0.464393  0.000231  2.346766  0.0
O  O83  1  0.41959147  0.76032524  0.64129222  1  -0.312149  -0.464506  0.00023  2.346573  0.0
O  O84  1  0.29987814  0.18169457  0.45284990  1  -0.27871  -0.497102  0.000731  2.229657  0.001
O  O85  1  0.70012344  0.81830707  0.54715224  1  -0.278688  -0.497007  0.000731  2.229821  0.001
