# generated using pymatgen
data_DyH8C9O8
_symmetry_space_group_name_H-M   'P 1'
_cell_length_a   7.74435423
_cell_length_b   8.15819118
_cell_length_c   18.94030525
_cell_angle_alpha   89.99998127
_cell_angle_beta   89.99994731
_cell_angle_gamma   105.90466175
_symmetry_Int_Tables_number   1
_chemical_formula_structural   DyH8C9O8
_chemical_formula_sum   'Dy4 H32 C36 O32'
_cell_volume   1150.83818992
_cell_formula_units_Z   4
loop_
 _symmetry_equiv_pos_site_id
 _symmetry_equiv_pos_as_xyz
  1  'x, y, z'
loop_
 _atom_site_type_symbol
 _atom_site_label
 _atom_site_symmetry_multiplicity
 _atom_site_fract_x
 _atom_site_fract_y
 _atom_site_fract_z
 _atom_site_occupancy
 _atom_site_hle17_bader_spin_density
 _atom_site_hle17_ddec_charge
 _atom_site_hle17_ddec_spin_density
 _atom_site_hle17_ddec_sum_bond_order
 _atom_site_hle17_magmom
 _atom_site_hse06_10hf_bader_spin_density
 _atom_site_hse06_10hf_ddec_charge
 _atom_site_hse06_10hf_ddec_spin_density
 _atom_site_hse06_10hf_ddec_sum_bond_order
 _atom_site_hse06_10hf_magmom
 _atom_site_hse06_bader_spin_density
 _atom_site_hse06_ddec_charge
 _atom_site_hse06_ddec_spin_density
 _atom_site_hse06_ddec_sum_bond_order
 _atom_site_hse06_magmom
 _atom_site_pbe_bader_spin_density
 _atom_site_pbe_cm5_charge
 _atom_site_pbe_ddec_charge
 _atom_site_pbe_ddec_spin_density
 _atom_site_pbe_ddec_sum_bond_order
 _atom_site_pbe_magmom
Dy  Dy0  1  0.75792675  0.25134687  0.51787481  1  0  2.296232  0  1.645464  0  0  2.226424  0  1.978963  0  0  2.273197  0  1.935987  0  0  1.516313  2.114427  0  2.155278  0
Dy  Dy1  1  0.74207493  0.74865440  0.01787491  1  0  2.296226  0  1.64538  0  0  2.226423  0  1.978883  0  0  2.27319  0  1.935906  0  0  1.516287  2.114433  0  2.155191  0
Dy  Dy2  1  0.24207451  0.74865463  0.48212465  1  0  2.296239  0  1.64537  0  0  2.226433  0  1.97887  0  0  2.273203  0  1.93589  0  0  1.516303  2.114414  0  2.155223  0
Dy  Dy3  1  0.25792634  0.25134710  0.98212455  1  0  2.296254  0  1.645406  0  0  2.226448  0  1.978899  0  0  2.273216  0  1.935922  0  0  1.516315  2.114449  0  2.155225  0
H  H4  1  0.61064467  0.43628234  0.36950182  1  0  0.104801  0  0.965471  0  0  0.11177  0  1.031947  0  0  0.115821  0  1.028736  0  0  0.108568  0.108875  0  1.034263  0
H  H5  1  0.88935349  0.56371843  0.86950162  1  0  0.104797  0  0.965483  0  0  0.11178  0  1.031947  0  0  0.11583  0  1.028736  0  0  0.108573  0.108887  0  1.034262  0
H  H6  1  0.38935401  0.56371917  0.63049817  1  0  0.104799  0  0.965475  0  0  0.111779  0  1.031943  0  0  0.115827  0  1.028734  0  0  0.108576  0.108884  0  1.034259  0
H  H7  1  0.11064224  0.43628180  0.13049837  1  0  0.104802  0  0.96547  0  0  0.111764  0  1.031954  0  0  0.115812  0  1.028746  0  0  0.108571  0.108871  0  1.034267  0
H  H8  1  0.66034208  0.58398264  0.25212988  1  0  0.098494  0  0.939888  0  0  0.108786  0  0.997892  0  0  0.112897  0  0.995014  0  0  0.103713  0.10562  0  1.000495  0
H  H9  1  0.83965861  0.41601702  0.75213025  1  0  0.098503  0  0.939921  0  0  0.108782  0  0.99793  0  0  0.112899  0  0.995045  0  0  0.10372  0.105619  0  1.000533  0
H  H10  1  0.33965752  0.41601758  0.74786906  1  0  0.098481  0  0.939898  0  0  0.108773  0  0.997899  0  0  0.112884  0  0.995019  0  0  0.103713  0.105609  0  1.000503  0
H  H11  1  0.16033934  0.58398194  0.24787027  1  0  0.098491  0  0.939886  0  0  0.108753  0  0.997918  0  0  0.11287  0  0.995031  0  0  0.103703  0.105587  0  1.000521  0
H  H12  1  0.31264500  0.14107837  0.15397263  1  0  0.10133  0  0.975292  0  0  0.106514  0  1.043198  0  0  0.110139  0  1.041091  0  0  0.106164  0.104204  0  1.04405  0
H  H13  1  0.18735615  0.85891746  0.65397194  1  0  0.101333  0  0.975301  0  0  0.106513  0  1.043213  0  0  0.110139  0  1.041106  0  0  0.106159  0.104204  0  1.044067  0
H  H14  1  0.68735570  0.85891676  0.84602788  1  0  0.101338  0  0.975275  0  0  0.106526  0  1.043183  0  0  0.110151  0  1.041077  0  0  0.106158  0.104214  0  1.044035  0
H  H15  1  0.81264492  0.14107894  0.34602805  1  0  0.101356  0  0.975313  0  0  0.106537  0  1.043216  0  0  0.110164  0  1.041107  0  0  0.10617  0.104227  0  1.044069  0
H  H16  1  0.25765921  0.99480418  0.27204777  1  0  0.102612  0  0.937673  0  0  0.112509  0  0.995506  0  0  0.116705  0  0.992439  0  0  0.104959  0.109294  0  0.998206  0
H  H17  1  0.24233850  0.00519403  0.77204612  1  0  0.102678  0  0.937639  0  0  0.11253  0  0.99552  0  0  0.116726  0  0.992453  0  0  0.104976  0.109317  0  0.99822  0
H  H18  1  0.74234094  0.00519350  0.72795434  1  0  0.102634  0  0.937627  0  0  0.112495  0  0.995506  0  0  0.11669  0  0.992439  0  0  0.104953  0.109279  0  0.998206  0
H  H19  1  0.75765778  0.99480365  0.22795387  1  0  0.102615  0  0.937697  0  0  0.11251  0  0.995534  0  0  0.116706  0  0.992467  0  0  0.10496  0.109295  0  0.998234  0
H  H20  1  0.51909039  0.24915653  0.63880004  1  0  0.436822  0  0.807692  0  0  0.421974  0  0.857813  0  0  0.429768  0  0.849112  0  0  0.332555  0.416088  0  0.863366  0
H  H21  1  0.98090931  0.75084329  0.13880006  1  0  0.436884  0  0.807743  0  0  0.422032  0  0.857859  0  0  0.429826  0  0.849157  0  0  0.332585  0.416143  0  0.863411  0
H  H22  1  0.48090885  0.75084242  0.36119942  1  0  0.436864  0  0.807739  0  0  0.422012  0  0.857859  0  0  0.429807  0  0.849157  0  0  0.332568  0.416124  0  0.863411  0
H  H23  1  0.01909158  0.24915693  0.86120046  1  0  0.436911  0  0.807707  0  0  0.42206  0  0.857821  0  0  0.429854  0  0.849121  0  0  0.332592  0.416173  0  0.863375  0
H  H24  1  0.38293722  0.16117292  0.57745154  1  0  0.440881  0  0.853204  0  0  0.40933  0  0.91706  0  0  0.421086  0  0.899719  0  0  0.302472  0.400436  0  0.92996  0
H  H25  1  0.11706267  0.83882684  0.07745168  1  0  0.440885  0  0.853194  0  0  0.409326  0  0.917062  0  0  0.421081  0  0.899725  0  0  0.302458  0.400432  0  0.929962  0
H  H26  1  0.61706405  0.83882858  0.42254792  1  0  0.440857  0  0.853234  0  0  0.409305  0  0.91709  0  0  0.421062  0  0.89975  0  0  0.302455  0.400411  0  0.929991  0
H  H27  1  0.88293693  0.16117339  0.92254884  1  0  0.440878  0  0.853212  0  0  0.409324  0  0.917072  0  0  0.42108  0  0.899733  0  0  0.302448  0.400429  0  0.929973  0
H  H28  1  0.77742167  0.62050359  0.48320057  1  0  0.45116  0  0.841892  0  0  0.42058  0  0.903809  0  0  0.431317  0  0.888128  0  0  0.309487  0.412472  0  0.915449  0
H  H29  1  0.72257877  0.37949701  0.98320099  1  0  0.451165  0  0.84185  0  0  0.420575  0  0.903785  0  0  0.431311  0  0.888106  0  0  0.309477  0.41247  0  0.915423  0
H  H30  1  0.22257922  0.37949664  0.51679942  1  0  0.451151  0  0.84187  0  0  0.42056  0  0.903808  0  0  0.431298  0  0.888125  0  0  0.309472  0.412453  0  0.915447  0
H  H31  1  0.27742120  0.62050449  0.01679847  1  0  0.451159  0  0.841891  0  0  0.42058  0  0.903808  0  0  0.431317  0  0.888126  0  0  0.309492  0.412474  0  0.915445  0
H  H32  1  0.60648353  0.55110981  0.53311480  1  0  0.449155  0  0.809793  0  0  0.425751  0  0.87305  0  0  0.434027  0  0.863701  0  0  0.327539  0.419312  0  0.879657  0
H  H33  1  0.89351774  0.44889016  0.03311489  1  0  0.449209  0  0.8099  0  0  0.4258  0  0.87315  0  0  0.434077  0  0.863671  0  0  0.327567  0.41936  0  0.879755  0
H  H34  1  0.39351736  0.44889041  0.46688519  1  0  0.44919  0  0.809887  0  0  0.42578  0  0.873139  0  0  0.43406  0  0.863684  0  0  0.327563  0.419341  0  0.879742  0
H  H35  1  0.10648407  0.55110879  0.96688510  1  0  0.449158  0  0.809838  0  0  0.425754  0  0.87309  0  0  0.43403  0  0.863707  0  0  0.327543  0.419314  0  0.879696  0
C  C36  1  0.43149972  0.20655289  0.32722272  1  0  -0.070382  0  3.746127  0  0  -0.048014  0  3.976657  0  0  -0.055761  0  4.000312  0  0  -0.015042  -0.04356  0  3.962711  0
C  C37  1  0.06849784  0.79344524  0.82722155  1  0  -0.070397  0  3.746164  0  0  -0.047996  0  3.976638  0  0  -0.055752  0  4.000301  0  0  -0.015025  -0.043537  0  3.962689  0
C  C38  1  0.56849951  0.79344607  0.67277833  1  0  -0.070435  0  3.746254  0  0  -0.048035  0  3.976733  0  0  -0.055792  0  4.000396  0  0  -0.015018  -0.043578  0  3.962786  0
C  C39  1  0.93149918  0.20655499  0.17277738  1  0  -0.070359  0  3.746073  0  0  -0.047995  0  3.976577  0  0  -0.055745  0  4.000237  0  0  -0.015006  -0.043536  0  3.962626  0
C  C40  1  0.54355633  0.37340626  0.32228454  1  0  -0.071617  0  3.729648  0  0  -0.096144  0  3.983543  0  0  -0.097134  0  4.004368  0  0  -0.082281  -0.095562  0  3.970325  0
C  C41  1  0.95644068  0.62659458  0.82228483  1  0  -0.071645  0  3.729684  0  0  -0.096197  0  3.983569  0  0  -0.097186  0  4.0044  0  0  -0.082315  -0.095613  0  3.970353  0
C  C42  1  0.45644107  0.62659524  0.67771545  1  0  -0.071609  0  3.729654  0  0  -0.096159  0  3.983546  0  0  -0.097149  0  4.004378  0  0  -0.0823  -0.095576  0  3.970331  0
C  C43  1  0.04355506  0.37340565  0.17771516  1  0  -0.071622  0  3.729647  0  0  -0.096146  0  3.983531  0  0  -0.097139  0  4.004363  0  0  -0.082295  -0.095566  0  3.970312  0
C  C44  1  0.57144808  0.45530007  0.25712666  1  0  -0.069101  0  3.727217  0  0  -0.091952  0  3.97777  0  0  -0.093471  0  3.998887  0  0  -0.081288  -0.091083  0  3.964461  0
C  C45  1  0.92855260  0.54469958  0.75712644  1  0  -0.069123  0  3.727242  0  0  -0.091928  0  3.977806  0  0  -0.093454  0  3.998922  0  0  -0.08127  -0.091062  0  3.964504  0
C  C46  1  0.42855153  0.54470015  0.74287281  1  0  -0.069092  0  3.727141  0  0  -0.091903  0  3.977716  0  0  -0.093421  0  3.998834  0  0  -0.081258  -0.091035  0  3.964413  0
C  C47  1  0.07144664  0.45529937  0.24287302  1  0  -0.069109  0  3.727219  0  0  -0.091894  0  3.977779  0  0  -0.093419  0  3.998895  0  0  -0.081251  -0.091027  0  3.964471  0
C  C48  1  0.48891934  0.37108732  0.19629503  1  0  -0.057992  0  3.72511  0  0  -0.035592  0  3.951695  0  0  -0.042989  0  3.975369  0  0  -0.010094  -0.031436  0  3.937854  0
C  C49  1  0.01108133  0.62890717  0.69629496  1  0  -0.057819  0  3.724924  0  0  -0.035507  0  3.951606  0  0  -0.042905  0  3.975283  0  0  -0.010067  -0.031351  0  3.937769  0
C  C50  1  0.51108136  0.62890780  0.80370443  1  0  -0.057858  0  3.724858  0  0  -0.035531  0  3.951607  0  0  -0.042931  0  3.975284  0  0  -0.0101  -0.031375  0  3.93777  0
C  C51  1  0.98892011  0.37109050  0.30370397  1  0  -0.057855  0  3.724913  0  0  -0.035547  0  3.951623  0  0  -0.042942  0  3.975298  0  0  -0.010089  -0.031389  0  3.937781  0
C  C52  1  0.37536923  0.20499548  0.20161282  1  0  -0.063777  0  3.726834  0  0  -0.085861  0  3.976541  0  0  -0.087302  0  3.998257  0  0  -0.079829  -0.084972  0  3.962531  0
C  C53  1  0.12463475  0.79500154  0.70161269  1  0  -0.063868  0  3.726856  0  0  -0.08592  0  3.976564  0  0  -0.087361  0  3.998279  0  0  -0.079866  -0.085031  0  3.96256  0
C  C54  1  0.62463314  0.79500091  0.79838717  1  0  -0.063877  0  3.72679  0  0  -0.08594  0  3.976525  0  0  -0.08738  0  3.998242  0  0  -0.07986  -0.085048  0  3.962516  0
C  C55  1  0.87536540  0.20499613  0.29838677  1  0  -0.063911  0  3.726893  0  0  -0.085952  0  3.976616  0  0  -0.087394  0  3.998329  0  0  -0.079872  -0.085064  0  3.962607  0
C  C56  1  0.34570745  0.12374257  0.26669045  1  0  -0.065814  0  3.729368  0  0  -0.088424  0  3.977396  0  0  -0.089764  0  3.998461  0  0  -0.081147  -0.08766  0  3.964074  0
C  C57  1  0.15429286  0.87625564  0.76668924  1  0  -0.065846  0  3.729463  0  0  -0.088423  0  3.977462  0  0  -0.089764  0  3.998531  0  0  -0.081143  -0.087661  0  3.964143  0
C  C58  1  0.65428958  0.87625766  0.73331112  1  0  -0.065781  0  3.729363  0  0  -0.088366  0  3.977376  0  0  -0.089703  0  3.99844  0  0  -0.081114  -0.087603  0  3.964054  0
C  C59  1  0.84570729  0.12374203  0.23331075  1  0  -0.065804  0  3.729439  0  0  -0.088413  0  3.977448  0  0  -0.089756  0  3.998518  0  0  -0.081151  -0.08765  0  3.964124  0
C  C60  1  0.41103004  0.11052331  0.39530294  1  0  0.715487  0  3.869785  0  0  0.669885  0  4.164852  0  0  0.705737  0  4.15194  0  0  0.229619  0.644595  0  4.168681  0
C  C61  1  0.08897233  0.88948746  0.89529911  1  0  0.715388  0  3.869907  0  0  0.669795  0  4.16495  0  0  0.705651  0  4.152047  0  0  0.229598  0.644501  0  4.168777  0
C  C62  1  0.58897178  0.88948456  0.60470074  1  0  0.71542  0  3.869801  0  0  0.669842  0  4.164817  0  0  0.705699  0  4.151907  0  0  0.229604  0.64455  0  4.168649  0
C  C63  1  0.91102857  0.11052169  0.10469824  1  0  0.715459  0  3.869912  0  0  0.669907  0  4.164903  0  0  0.705762  0  4.151998  0  0  0.229601  0.644613  0  4.16873  0
C  C64  1  0.52105378  0.45746338  0.12593448  1  0  0.721579  0  3.849969  0  0  0.678431  0  4.139762  0  0  0.714278  0  4.126891  0  0  0.234022  0.653227  0  4.142935  0
C  C65  1  0.97894908  0.54253391  0.62593372  1  0  0.721597  0  3.850033  0  0  0.678495  0  4.139785  0  0  0.71434  0  4.126916  0  0  0.234029  0.653288  0  4.142962  0
C  C66  1  0.47894858  0.54253302  0.87406498  1  0  0.721626  0  3.84986  0  0  0.678427  0  4.139763  0  0  0.714274  0  4.126892  0  0  0.234011  0.653223  0  4.142938  0
C  C67  1  0.02105402  0.45746504  0.37406521  1  0  0.721674  0  3.849945  0  0  0.678512  0  4.139784  0  0  0.714358  0  4.126916  0  0  0.234052  0.653306  0  4.142958  0
C  C68  1  0.07252935  0.06058806  0.52319588  1  0  0.58683  0  3.868531  0  0  0.539163  0  4.170658  0  0  0.56964  0  4.160685  0  0  0.231384  0.51831  0  4.170806  0
C  C69  1  0.42746977  0.93941305  0.02319536  1  0  0.586884  0  3.868533  0  0  0.53924  0  4.170647  0  0  0.569705  0  4.160689  0  0  0.231451  0.518389  0  4.170795  0
C  C70  1  0.92746989  0.93941089  0.47680464  1  0  0.586499  0  3.868728  0  0  0.538925  0  4.170755  0  0  0.569347  0  4.160855  0  0  0.231307  0.518074  0  4.170896  0
C  C71  1  0.57253187  0.06058972  0.97680305  1  0  0.586799  0  3.868432  0  0  0.539176  0  4.170527  0  0  0.569617  0  4.160597  0  0  0.23141  0.518315  0  4.170692  0
O  O72  1  0.51937761  0.17165100  0.44555026  1  0  -0.773538  0  2.090672  0  0  -0.736654  0  2.3666  0  0  -0.760693  0  2.350527  0  0  -0.426554  -0.7056  0  2.377889  0
O  O73  1  0.98062000  0.82835731  0.94554576  1  0  -0.773466  0  2.090515  0  0  -0.736639  0  2.366546  0  0  -0.760628  0  2.350365  0  0  -0.426532  -0.705589  0  2.377849  0
O  O74  1  0.48062311  0.82835305  0.55445237  1  0  -0.773496  0  2.090431  0  0  -0.736661  0  2.366427  0  0  -0.760666  0  2.350276  0  0  -0.426548  -0.705599  0  2.377715  0
O  O75  1  0.01937870  0.17165312  0.05445159  1  0  -0.77352  0  2.090578  0  0  -0.736697  0  2.366568  0  0  -0.760687  0  2.350389  0  0  -0.426546  -0.705659  0  2.377907  0
O  O76  1  0.28918485  0.97048674  0.39939576  1  0  -0.73325  0  2.055397  0  0  -0.694102  0  2.301943  0  0  -0.719101  0  2.290227  0  0  -0.392218  -0.666569  0  2.31259  0
O  O77  1  0.21081733  0.02951893  0.89939307  1  0  -0.733183  0  2.055534  0  0  -0.694046  0  2.302081  0  0  -0.719051  0  2.290366  0  0  -0.392208  -0.666516  0  2.312726  0
O  O78  1  0.71081715  0.02951730  0.60060528  1  0  -0.733201  0  2.05545  0  0  -0.694064  0  2.301986  0  0  -0.719065  0  2.290266  0  0  -0.392214  -0.666536  0  2.312633  0
O  O79  1  0.78918910  0.97048256  0.10060587  1  0  -0.733224  0  2.05547  0  0  -0.694102  0  2.302005  0  0  -0.719106  0  2.290289  0  0  -0.39221  -0.666571  0  2.312651  0
O  O80  1  0.64135954  0.59894079  0.12141287  1  0  -0.72052  0  2.0114  0  0  -0.682312  0  2.256165  0  0  -0.706851  0  2.243213  0  0  -0.396991  -0.654961  0  2.267581  0
O  O81  1  0.85864426  0.40105522  0.62141218  1  0  -0.720565  0  2.011404  0  0  -0.682372  0  2.256165  0  0  -0.706912  0  2.243213  0  0  -0.397025  -0.65502  0  2.267585  0
O  O82  1  0.35864208  0.40105306  0.87858553  1  0  -0.720575  0  2.011337  0  0  -0.682339  0  2.256133  0  0  -0.706878  0  2.243178  0  0  -0.396994  -0.654986  0  2.267554  0
O  O83  1  0.14136014  0.59894372  0.37858570  1  0  -0.720599  0  2.011401  0  0  -0.682379  0  2.256192  0  0  -0.706921  0  2.243241  0  0  -0.397005  -0.655025  0  2.26761  0
O  O84  1  0.42697681  0.38565588  0.07351613  1  0  -0.783114  0  2.105473  0  0  -0.748135  0  2.37905  0  0  -0.77297  0  2.364449  0  0  -0.417531  -0.715871  0  2.388593  0
O  O85  1  0.07302106  0.61434134  0.57351499  1  0  -0.783168  0  2.105601  0  0  -0.748206  0  2.37919  0  0  -0.773042  0  2.364589  0  0  -0.417522  -0.715938  0  2.388734  0
O  O86  1  0.57302389  0.61433925  0.92648333  1  0  -0.783151  0  2.105461  0  0  -0.748182  0  2.379152  0  0  -0.773016  0  2.36455  0  0  -0.417526  -0.715916  0  2.388687  0
O  O87  1  0.92697762  0.38566016  0.42648448  1  0  -0.783177  0  2.105524  0  0  -0.7482  0  2.379147  0  0  -0.773035  0  2.364547  0  0  -0.417539  -0.715936  0  2.388683  0
O  O88  1  0.05092995  0.20579739  0.53664127  1  0  -0.655908  0  2.099391  0  0  -0.609293  0  2.331522  0  0  -0.632826  0  2.321021  0  0  -0.347354  -0.58436  0  2.340557  0
O  O89  1  0.44907042  0.79420370  0.03664130  1  0  -0.655935  0  2.099286  0  0  -0.609348  0  2.331428  0  0  -0.632876  0  2.320933  0  0  -0.347377  -0.584414  0  2.340461  0
O  O90  1  0.94906892  0.79420029  0.46335872  1  0  -0.655712  0  2.099389  0  0  -0.609139  0  2.331476  0  0  -0.632657  0  2.321007  0  0  -0.347275  -0.584201  0  2.340505  0
O  O91  1  0.55093250  0.20579907  0.96335870  1  0  -0.65595  0  2.099412  0  0  -0.60935  0  2.331531  0  0  -0.632872  0  2.321048  0  0  -0.347383  -0.584412  0  2.340572  0
O  O92  1  0.20236180  0.00588941  0.54349437  1  0  -0.655192  0  2.111361  0  0  -0.608171  0  2.345727  0  0  -0.632855  0  2.336165  0  0  -0.325412  -0.582626  0  2.353284  0
O  O93  1  0.29764187  0.99411422  0.04349442  1  0  -0.655249  0  2.111502  0  0  -0.608213  0  2.345843  0  0  -0.632898  0  2.336286  0  0  -0.325433  -0.582667  0  2.353397  0
O  O94  1  0.79763743  0.99410954  0.45650615  1  0  -0.655117  0  2.111399  0  0  -0.608125  0  2.345723  0  0  -0.632791  0  2.336186  0  0  -0.325425  -0.582582  0  2.353276  0
O  O95  1  0.70236438  0.00589109  0.95650293  1  0  -0.655201  0  2.11127  0  0  -0.608181  0  2.345615  0  0  -0.632857  0  2.336066  0  0  -0.325423  -0.582634  0  2.353176  0
O  O96  1  0.49364032  0.25417594  0.58871849  1  0  -0.876486  0  1.875704  0  0  -0.838043  0  2.063428  0  0  -0.856076  0  2.035555  0  0  -0.617917  -0.816775  0  2.087955  0
O  O97  1  0.00635862  0.74582508  0.08871868  1  0  -0.876553  0  1.87577  0  0  -0.838106  0  2.063513  0  0  -0.856139  0  2.035635  0  0  -0.61793  -0.816838  0  2.088038  0
O  O98  1  0.50636131  0.74582683  0.41128097  1  0  -0.876509  0  1.875771  0  0  -0.83806  0  2.063497  0  0  -0.856093  0  2.035617  0  0  -0.617915  -0.816789  0  2.088023  0
O  O99  1  0.99364154  0.25417259  0.91128183  1  0  -0.876599  0  1.875763  0  0  -0.838144  0  2.063476  0  0  -0.856179  0  2.035601  0  0  -0.617941  -0.816872  0  2.088006  0
O  O100  1  0.68751558  0.51655995  0.50056516  1  0  -0.908673  0  1.904097  0  0  -0.868365  0  2.106754  0  0  -0.886773  0  2.078361  0  0  -0.633144  -0.84577  0  2.131947  0
O  O101  1  0.81248486  0.48344134  0.00056580  1  0  -0.908724  0  1.904168  0  0  -0.868398  0  2.106835  0  0  -0.886816  0  2.078329  0  0  -0.633151  -0.845801  0  2.132023  0
O  O102  1  0.31248827  0.48344154  0.49943589  1  0  -0.908678  0  1.904144  0  0  -0.868381  0  2.106851  0  0  -0.886775  0  2.078323  0  0  -0.63314  -0.845779  0  2.132041  0
O  O103  1  0.18751511  0.51656016  0.99943472  1  0  -0.908658  0  1.904125  0  0  -0.868344  0  2.106772  0  0  -0.886758  0  2.078351  0  0  -0.633147  -0.845746  0  2.131964  0
