# generated using pymatgen
data_MnH16C18(NO3)2
_symmetry_space_group_name_H-M   'P 1'
_cell_length_a   7.06231914
_cell_length_b   9.96682731
_cell_length_c   11.86988795
_cell_angle_alpha   88.86192312
_cell_angle_beta   77.27053319
_cell_angle_gamma   89.27178008
_symmetry_Int_Tables_number   1
_chemical_formula_structural   MnH16C18(NO3)2
_chemical_formula_sum   'Mn2 H32 C36 N4 O12'
_cell_volume   814.78235149
_cell_formula_units_Z   2
loop_
 _symmetry_equiv_pos_site_id
 _symmetry_equiv_pos_as_xyz
  1  'x, y, z'
loop_
 _atom_site_type_symbol
 _atom_site_label
 _atom_site_symmetry_multiplicity
 _atom_site_fract_x
 _atom_site_fract_y
 _atom_site_fract_z
 _atom_site_occupancy
 _atom_site_pbe_bader_charge
 _atom_site_pbe_bader_spin_density
 _atom_site_pbe_cm5_charge
 _atom_site_pbe_ddec_charge
 _atom_site_pbe_ddec_spin_density
 _atom_site_pbe_ddec_sum_bond_order
 _atom_site_pbe_magmom
Mn  Mn0  1  0.31851296  0.02184391  0.73800523  1  1.489918  4.524734  0.597076  0.937557  4.662811  2.307728  4.428
Mn  Mn1  1  0.68149065  0.97815959  0.26199638  1  1.48999  4.524723  0.597049  0.937472  4.662834  2.307854  4.428
H  H2  1  0.17239707  0.27951323  0.88414255  1  0.121178  0.00139  0.117484  0.087265  0.000366  1.013378  0.001
H  H3  1  0.82760222  0.72048727  0.11586136  1  0.121143  0.00139  0.117523  0.087333  0.000366  1.013404  0.001
H  H4  1  0.12106462  0.35754846  0.09056602  1  0.079474  0.000734  0.101916  0.100963  0.000399  1.026741  0.0
H  H5  1  0.87893182  0.64244802  0.90943832  1  0.079395  0.000734  0.10196  0.101048  0.000399  1.026721  0.0
H  H6  1  0.17860578  0.19065785  0.24178449  1  0.091594  0.000323  0.11163  0.109806  -0.000217  1.025136  0.0
H  H7  1  0.82139360  0.80933662  0.75821866  1  0.091616  0.000323  0.111627  0.109831  -0.000217  1.025084  0.0
H  H8  1  0.26696734  0.95695835  0.18586011  1  0.11943  0.001702  0.114372  0.123721  0.001046  1.032704  0.001
H  H9  1  0.73303930  0.04303612  0.81413957  1  0.119338  0.001701  0.114333  0.123653  0.001046  1.032731  0.001
H  H10  1  0.28721588  0.76074036  0.13370129  1  0.122735  0.000826  0.108796  0.117877  3.1e-05  1.043737  0.0
H  H11  1  0.71278779  0.23925913  0.86629870  1  0.122692  0.000826  0.108815  0.117919  3.1e-05  1.043765  0.0
H  H12  1  0.32829887  0.53138531  0.05524473  1  0.083822  0.000154  0.105825  0.09997  7.8e-05  1.018636  0.0
H  H13  1  0.67169610  0.46861317  0.94475724  1  0.083854  0.000154  0.105818  0.099949  7.8e-05  1.018701  0.0
H  H14  1  0.37337301  0.50124367  0.83977935  1  0.088927  0.000688  0.108309  0.113617  0.000331  1.010208  0.0
H  H15  1  0.62661761  0.49875482  0.16022234  1  0.089018  0.000688  0.108324  0.113635  0.000332  1.010202  0.0
H  H16  1  0.37190378  0.70688768  0.71477998  1  0.093959  0.001354  0.124746  0.097826  0.000448  0.992671  0.001
H  H17  1  0.62809557  0.29310981  0.28521975  1  0.093969  0.001354  0.124756  0.097833  0.000448  0.992696  0.001
H  H18  1  0.16587690  0.41401637  0.68158588  1  0.081738  0.000246  0.100853  0.102224  -0.000173  1.016256  0.0
H  H19  1  0.83412235  0.58598914  0.31841205  1  0.08172  0.000246  0.100838  0.102227  -0.000173  1.016227  0.0
H  H20  1  0.05848564  0.65218778  0.65887824  1  0.079056  0.000449  0.09749  0.096937  -2.6e-05  1.036436  0.0
H  H21  1  0.94151364  0.34781673  0.34111549  1  0.078875  0.000449  0.09748  0.096938  -2.6e-05  1.036452  0.0
H  H22  1  0.73652743  0.69736283  0.61222393  1  0.085445  0.000542  0.100344  0.101591  2.1e-05  1.032608  0.0
H  H23  1  0.26347051  0.30263365  0.38776926  1  0.085393  0.000542  0.100323  0.101571  2.1e-05  1.032583  0.0
H  H24  1  0.52289864  0.50840109  0.59155665  1  0.077989  0.00017  0.099897  0.099658  2.1e-05  1.023532  0.0
H  H25  1  0.47710219  0.49159540  0.40843869  1  0.078024  0.00017  0.09992  0.099687  2.1e-05  1.023538  0.0
H  H26  1  0.06940954  0.96255372  0.61019972  1  0.654739  0.001028  0.289918  0.37675  0.001015  0.970266  0.002
H  H27  1  0.93059412  0.03744678  0.38980277  1  0.654771  0.001028  0.289909  0.376761  0.001015  0.970253  0.002
H  H28  1  0.24607568  0.85565964  0.56849044  1  0.635864  0.001966  0.294634  0.379134  0.00138  0.965873  0.003
H  H29  1  0.75392651  0.14434186  0.43151054  1  0.635852  0.001966  0.294612  0.379113  0.00138  0.965896  0.003
H  H30  1  0.57170284  0.88608140  0.55404910  1  0.637982  0.001348  0.2969  0.385409  0.001311  0.954307  0.001
H  H31  1  0.42829790  0.11392010  0.44595375  1  0.637912  0.001348  0.296881  0.385358  0.001311  0.954375  0.001
H  H32  1  0.70303310  0.98784097  0.60733526  1  0.631831  0.001053  0.3017  0.392504  0.000593  0.939814  0.001
H  H33  1  0.29696766  0.01215852  0.39266678  1  0.631842  0.001053  0.301691  0.392473  0.000593  0.939853  0.001
C  C34  1  0.19064486  0.21221121  0.95464449  1  0.457915  0.010876  0.052728  0.104754  0.008223  3.943962  0.007
C  C35  1  0.80935301  0.78778728  0.04535963  1  0.457851  0.010876  0.052736  0.104713  0.008222  3.944021  0.007
C  C36  1  0.16456524  0.25449943  0.06828952  1  -0.017929  -0.000198  -0.085387  -0.137194  -0.000914  3.976762  0.0
C  C37  1  0.83543265  0.74549705  0.93171463  1  -0.017907  -0.000198  -0.085485  -0.137387  -0.000913  3.976883  0.0
C  C38  1  0.19378022  0.16193944  0.15245431  1  0.000876  0.010921  -0.060262  -0.003263  0.008341  3.927385  0.006
C  C39  1  0.80621914  0.83805604  0.84754882  1  0.000896  0.01092  -0.060258  -0.003281  0.008341  3.927419  0.006
C  C40  1  0.24242698  0.03003099  0.12120341  1  0.008232  0.001273  -0.072629  -0.142191  0.001021  3.89171  -0.001
C  C41  1  0.75757383  0.96996549  0.87879615  1  0.008395  0.001273  -0.072533  -0.141965  0.00102  3.891487  -0.001
C  C42  1  0.25942101  0.99397208  0.00620030  1  0.431481  0.010417  0.12245  0.161137  0.008271  3.996106  0.007
C  C43  1  0.74057978  0.00602540  0.99380093  1  0.431589  0.010416  0.122424  0.161037  0.00827  3.996118  0.007
C  C44  1  0.29785298  0.85481441  0.96601189  1  0.492912  0.011446  0.125944  0.167194  0.008893  3.989495  0.008
C  C45  1  0.70214346  0.14518307  0.03398991  1  0.492922  0.011447  0.125943  0.167224  0.008894  3.989547  0.008
C  C46  1  0.30199352  0.74585297  0.04165879  1  -1.1e-05  -0.001306  -0.073987  -0.138915  -0.002125  3.908426  -0.002
C  C47  1  0.69801021  0.25414250  0.95834041  1  2.1e-05  -0.001306  -0.074005  -0.139006  -0.002125  3.908452  -0.002
C  C48  1  0.32643999  0.61716512  0.99716825  1  -0.006102  0.011942  -0.07037  -0.03358  0.009283  3.974204  0.007
C  C49  1  0.67355647  0.38283137  0.00283103  1  -0.006083  0.011943  -0.070364  -0.033517  0.009284  3.974047  0.007
C  C50  1  0.35075885  0.60007187  0.87839281  1  -0.072949  -0.000854  -0.08479  -0.142841  -0.001489  3.978987  -0.001
C  C51  1  0.64923615  0.39992461  0.12160750  1  -0.072777  -0.000855  -0.084822  -0.142911  -0.00149  3.978956  -0.001
C  C52  1  0.34980202  0.71390738  0.80835500  1  0.487527  0.012229  0.059129  0.111221  0.009441  3.934749  0.008
C  C53  1  0.65019730  0.28609212  0.19164470  1  0.487289  0.012229  0.059105  0.111151  0.009441  3.934929  0.008
C  C54  1  0.72275342  0.35538750  0.62581439  1  -0.066699  0.004093  -0.01117  -0.040396  0.002673  3.959556  0.002
C  C55  1  0.27724738  0.64461099  0.37418177  1  -0.068389  0.004094  -0.011191  -0.040381  0.002673  3.959555  0.002
C  C56  1  0.90579440  0.32891244  0.65017388  1  0.006155  0.003235  -0.020705  -0.072259  0.00226  3.963424  0.002
C  C57  1  0.09420635  0.67108906  0.34982645  1  0.006012  0.003236  -0.020673  -0.072126  0.00226  3.963338  0.002
C  C58  1  0.02387280  0.43676507  0.66375445  1  -0.045375  0.002003  -0.086955  -0.091444  0.001362  3.98264  0.001
C  C59  1  0.97612942  0.56323643  0.33623979  1  -0.045318  0.002004  -0.08688  -0.091414  0.001363  3.982608  0.001
C  C60  1  0.96404569  0.56879678  0.65100612  1  -0.118109  0.002258  -0.096431  -0.093353  0.001787  4.009567  0.001
C  C61  1  0.03595795  0.43120673  0.34899042  1  -0.118029  0.002258  -0.09649  -0.093447  0.001787  4.009852  0.001
C  C62  1  0.78366759  0.59448868  0.62448559  1  0.042507  0.002381  -0.088387  -0.067892  0.00188  3.991894  0.001
C  C63  1  0.21633321  0.40551082  0.37550718  1  0.041887  0.002382  -0.088362  -0.067817  0.00188  3.991926  0.001
C  C64  1  0.66365456  0.48811688  0.61238618  1  -0.104357  0.002116  -0.094517  -0.12484  0.001546  3.993825  0.001
C  C65  1  0.33634625  0.51188161  0.38760745  1  -0.101977  0.002115  -0.094516  -0.124877  0.001546  3.993771  0.001
C  C66  1  0.58480453  0.24366447  0.62023035  1  1.604109  0.007662  0.218805  0.591811  0.008066  4.224628  0.007
C  C67  1  0.41519772  0.75633301  0.37976985  1  1.603941  0.007662  0.218782  0.591704  0.008065  4.224755  0.007
C  C68  1  0.98224722  0.18840149  0.65705015  1  1.570115  0.01012  0.214968  0.579318  0.009943  4.190458  0.009
C  C69  1  0.01775207  0.81160001  0.34295036  1  1.570288  0.01012  0.214804  0.579062  0.009944  4.190542  0.009
N  N70  1  0.23710239  0.08510632  0.92423483  1  -1.239873  0.055065  -0.312857  -0.278771  0.037826  3.481115  0.022
N  N71  1  0.76289693  0.91489217  0.07576742  1  -1.239924  0.055062  -0.312891  -0.278758  0.037826  3.481149  0.022
N  N72  1  0.32282747  0.83797226  0.85089861  1  -1.250134  0.051993  -0.310685  -0.282857  0.035215  3.496917  0.016
N  N73  1  0.67717329  0.16202824  0.14910174  1  -1.250179  0.051994  -0.310649  -0.282745  0.035213  3.496931  0.016
O  O74  1  0.51340029  0.18539542  0.71661371  1  -1.190284  0.057839  -0.313203  -0.560259  0.039749  2.347474  0.024
O  O75  1  0.48660190  0.81460608  0.28338727  1  -1.190369  0.057849  -0.313204  -0.560207  0.039747  2.34748  0.024
O  O76  1  0.54623145  0.21849474  0.52340709  1  -1.201636  0.009109  -0.312741  -0.574156  0.00558  2.230809  0.006
O  O77  1  0.45377079  0.78150274  0.47659395  1  -1.201439  0.009109  -0.312746  -0.574162  0.00558  2.230856  0.006
O  O78  1  0.91823405  0.09472172  0.60406359  1  -1.197233  0.009397  -0.311726  -0.562175  0.005375  2.22755  0.007
O  O79  1  0.08176380  0.90527878  0.39593882  1  -1.197281  0.009397  -0.311593  -0.562046  0.005375  2.227606  0.007
O  O80  1  0.11180184  0.17259295  0.71585216  1  -1.203602  0.060465  -0.313789  -0.563834  0.042458  2.372037  0.028
O  O81  1  0.88819598  0.82740956  0.28414938  1  -1.203553  0.060459  -0.313755  -0.563742  0.042459  2.372066  0.028
O  O82  1  0.16608785  0.90114691  0.63630783  1  -1.29622  0.064236  -0.575415  -0.765242  0.046704  2.188934  0.03
O  O83  1  0.83391580  0.09885359  0.36369466  1  -1.296285  0.064244  -0.575381  -0.765222  0.046703  2.188981  0.03
O  O84  1  0.59350277  0.92498365  0.62652308  1  -1.267014  0.052575  -0.569895  -0.762776  0.039181  2.113194  0.026
O  O85  1  0.40649941  0.07501886  0.37347788  1  -1.26697  0.052576  -0.569867  -0.762687  0.039181  2.113303  0.026
