# generated using pymatgen
data_CdH28C46(N4O3)2
_symmetry_space_group_name_H-M   'P 1'
_cell_length_a   8.65989750
_cell_length_b   10.55779500
_cell_length_c   11.25594211
_cell_angle_alpha   62.68089809
_cell_angle_beta   80.50735107
_cell_angle_gamma   77.42049556
_symmetry_Int_Tables_number   1
_chemical_formula_structural   CdH28C46(N4O3)2
_chemical_formula_sum   'Cd1 H28 C46 N8 O6'
_cell_volume   889.88319664
_cell_formula_units_Z   1
loop_
 _symmetry_equiv_pos_site_id
 _symmetry_equiv_pos_as_xyz
  1  'x, y, z'
loop_
 _atom_site_type_symbol
 _atom_site_label
 _atom_site_symmetry_multiplicity
 _atom_site_fract_x
 _atom_site_fract_y
 _atom_site_fract_z
 _atom_site_occupancy
 _atom_site_hle17_bader_spin_density
 _atom_site_hle17_ddec_charge
 _atom_site_hle17_ddec_spin_density
 _atom_site_hle17_ddec_sum_bond_order
 _atom_site_hle17_magmom
 _atom_site_hse06_10hf_bader_spin_density
 _atom_site_hse06_10hf_ddec_charge
 _atom_site_hse06_10hf_ddec_spin_density
 _atom_site_hse06_10hf_ddec_sum_bond_order
 _atom_site_hse06_10hf_magmom
 _atom_site_hse06_bader_spin_density
 _atom_site_hse06_ddec_charge
 _atom_site_hse06_ddec_spin_density
 _atom_site_hse06_ddec_sum_bond_order
 _atom_site_hse06_magmom
 _atom_site_pbe_bader_spin_density
 _atom_site_pbe_cm5_charge
 _atom_site_pbe_ddec_charge
 _atom_site_pbe_ddec_spin_density
 _atom_site_pbe_ddec_sum_bond_order
 _atom_site_pbe_magmom
Cd  Cd0  1  0.50000166  0.49999928  0.49999942  1  0  1.060235  0  1.716259  0  0  0.846273  0  2.160003  0  0  0.900694  0  2.114912  0  0  0.794195  0.808336  0  2.19124  0
H  H1  1  0.20859721  0.88642542  0.11371994  1  0  0.33398  0  0.924836  0  0  0.312464  0  0.991076  0  0  0.321395  0  0.982971  0  0  0.313787  0.306278  0  0.996641  0
H  H2  1  0.79140126  0.11357424  0.88628086  1  0  0.333973  0  0.924816  0  0  0.31251  0  0.99099  0  0  0.32144  0  0.982883  0  0  0.313804  0.306323  0  0.996555  0
H  H3  1  0.64317828  0.67388001  0.62730821  1  0  0.381478  0  0.925466  0  0  0.352206  0  1.004332  0  0  0.36358  0  0.989636  0  0  0.289895  0.344321  0  1.012404  0
H  H4  1  0.35681861  0.32612179  0.37269097  1  0  0.381478  0  0.925449  0  0  0.352206  0  1.004315  0  0  0.363582  0  0.989628  0  0  0.289897  0.344322  0  1.012384  0
H  H5  1  0.87516209  0.63978702  0.49413153  1  0  0.113342  0  0.94503  0  0  0.125125  0  1.000598  0  0  0.128516  0  0.9997  0  0  0.101037  0.122755  0  1.001607  0
H  H6  1  0.12483655  0.36021803  0.50586600  1  0  0.113263  0  0.945092  0  0  0.125048  0  1.000664  0  0  0.12844  0  0.999769  0  0  0.101026  0.122676  0  1.001677  0
H  H7  1  0.05599069  0.75881700  0.29577352  1  0  0.102542  0  0.970036  0  0  0.11187  0  1.033791  0  0  0.115928  0  1.030608  0  0  0.098951  0.108748  0  1.036686  0
H  H8  1  0.94400818  0.24118699  0.70422622  1  0  0.102485  0  0.970112  0  0  0.111862  0  1.033822  0  0  0.115897  0  1.030667  0  0  0.09895  0.108736  0  1.036722  0
H  H9  1  0.62618342  0.05532137  0.45592901  1  0  0.110835  0  0.975351  0  0  0.118495  0  1.041757  0  0  0.122146  0  1.039945  0  0  0.100249  0.115983  0  1.042798  0
H  H10  1  0.37381090  0.94468149  0.54406740  1  0  0.110765  0  0.975366  0  0  0.118455  0  1.041751  0  0  0.122107  0  1.039939  0  0  0.100214  0.115941  0  1.042796  0
H  H11  1  0.26962691  0.69927199  0.95721910  1  0  0.098085  0  0.995565  0  0  0.09817  0  1.075541  0  0  0.102631  0  1.072208  0  0  0.097554  0.094838  0  1.078218  0
H  H12  1  0.73037161  0.30072769  0.04278523  1  0  0.098051  0  0.995554  0  0  0.098141  0  1.075548  0  0  0.102592  0  1.072222  0  0  0.097534  0.094808  0  1.078227  0
H  H13  1  0.66897808  0.15288581  0.58358025  1  0  0.059201  0  0.969517  0  0  0.069971  0  1.036151  0  0  0.071748  0  1.034009  0  0  0.110798  0.068532  0  1.037849  0
H  H14  1  0.33102467  0.84710953  0.41642098  1  0  0.059261  0  0.969544  0  0  0.070012  0  1.036179  0  0  0.071797  0  1.034028  0  0  0.110808  0.068576  0  1.037873  0
H  H15  1  0.18427544  0.72237333  0.53900485  1  0  0.068222  0  0.963786  0  0  0.079473  0  1.026142  0  0  0.081443  0  1.024477  0  0  0.112839  0.077502  0  1.028555  0
H  H16  1  0.81572787  0.27762523  0.46099311  1  0  0.068226  0  0.963826  0  0  0.079495  0  1.026164  0  0  0.081459  0  1.024507  0  0  0.112853  0.077525  0  1.028581  0
H  H17  1  0.92706437  0.49158696  0.91416135  1  0  0.109257  0  0.934436  0  0  0.119948  0  0.99488  0  0  0.122614  0  0.993422  0  0  0.11431  0.118198  0  0.995502  0
H  H18  1  0.07293896  0.50841162  0.08583838  1  0  0.109284  0  0.934367  0  0  0.119976  0  0.994803  0  0  0.122641  0  0.993345  0  0  0.11433  0.118221  0  0.99544  0
H  H19  1  0.80878462  0.17496768  0.25804262  1  0  0.087554  0  0.985564  0  0  0.096675  0  1.053017  0  0  0.099075  0  1.051559  0  0  0.099426  0.094911  0  1.05433  0
H  H20  1  0.19121305  0.82503629  0.74195551  1  0  0.087517  0  0.985641  0  0  0.096594  0  1.053135  0  0  0.098994  0  1.051677  0  0  0.099393  0.094826  0  1.05445  0
H  H21  1  0.59992369  0.36486766  0.22715691  1  0  0.091132  0  0.965227  0  0  0.101064  0  1.028547  0  0  0.103827  0  1.027687  0  0  0.099351  0.099071  0  1.029347  0
H  H22  1  0.40007363  0.63513201  0.77284582  1  0  0.091157  0  0.965231  0  0  0.101053  0  1.028579  0  0  0.103817  0  1.027719  0  0  0.099363  0.099061  0  1.029375  0
H  H23  1  0.63865722  0.90592928  0.75948021  1  0  0.117415  0  0.9314  0  0  0.129899  0  0.982819  0  0  0.133435  0  0.981628  0  0  0.113742  0.127271  0  0.984029  0
H  H24  1  0.36134299  0.09406713  0.24052090  1  0  0.117447  0  0.931361  0  0  0.129928  0  0.982782  0  0  0.133467  0  0.981584  0  0  0.113739  0.127302  0  0.983996  0
H  H25  1  0.42444489  0.87779396  0.94578061  1  0  0.106624  0  0.946826  0  0  0.116704  0  1.008648  0  0  0.119872  0  1.006574  0  0  0.111011  0.114484  0  1.010014  0
H  H26  1  0.57555532  0.12220245  0.05422049  1  0  0.10665  0  0.946821  0  0  0.11671  0  1.008653  0  0  0.119875  0  1.006587  0  0  0.111033  0.114494  0  1.01002  0
H  H27  1  0.96374628  0.72545838  0.71063898  1  0  0.114804  0  0.937465  0  0  0.125728  0  0.99258  0  0  0.12903  0  0.991647  0  0  0.113164  0.123136  0  0.99397  0
H  H28  1  0.03625702  0.27454018  0.28935898  1  0  0.114776  0  0.937402  0  0  0.125702  0  0.99252  0  0  0.129004  0  0.991587  0  0  0.113156  0.123112  0  0.993915  0
C  C29  1  0.16819893  0.62351633  0.62925166  1  0  0.13022  0  3.723316  0  0  0.096795  0  3.979951  0  0  0.104577  0  3.996839  0  0  0.050064  0.091578  0  3.97014  0
C  C30  1  0.83180557  0.37648225  0.37074791  1  0  0.130225  0  3.723296  0  0  0.096765  0  3.979948  0  0  0.104553  0  3.996837  0  0  0.050049  0.09155  0  3.970141  0
C  C31  1  0.04266279  0.62484653  0.72521864  1  0  -0.105577  0  3.736903  0  0  -0.120695  0  3.998105  0  0  -0.125932  0  4.01675  0  0  -0.07809  -0.118003  0  3.986618  0
C  C32  1  0.95734190  0.37515097  0.27478138  1  0  -0.105515  0  3.736677  0  0  -0.120639  0  3.997906  0  0  -0.125876  0  4.016548  0  0  -0.078065  -0.117949  0  3.986425  0
C  C33  1  0.02297738  0.49698448  0.83683782  1  0  -0.017968  0  3.652952  0  0  -0.04622  0  3.904466  0  0  -0.042927  0  3.920005  0  0  -0.055686  -0.047574  0  3.893247  0
C  C34  1  0.97702809  0.50301518  0.16316114  1  0  -0.017995  0  3.652692  0  0  -0.046238  0  3.904209  0  0  -0.042942  0  3.919749  0  0  -0.055726  -0.047603  0  3.892995  0
C  C35  1  0.12782309  0.36946590  0.85024367  1  0  -0.013828  0  3.769584  0  0  -0.000657  0  4.001211  0  0  -0.00312  0  4.024356  0  0  0.006006  0.001046  0  3.985255  0
C  C36  1  0.87218357  0.63053377  0.14975601  1  0  -0.013934  0  3.769592  0  0  -0.000729  0  4.001225  0  0  -0.003202  0  4.024386  0  0  0.005969  0.000979  0  3.985255  0
C  C37  1  0.11299050  0.23181425  0.95975432  1  0  0.101696  0  3.870025  0  0  0.094135  0  4.129874  0  0  0.096081  0  4.153122  0  0  0.087043  0.093119  0  4.113212  0
C  C38  1  0.88701381  0.76818541  0.04024480  1  0  0.101895  0  3.869849  0  0  0.094317  0  4.129722  0  0  0.096265  0  4.152967  0  0  0.087182  0.093304  0  4.113046  0
C  C39  1  0.21245227  0.10616337  0.96389623  1  0  0.10555  0  3.802797  0  0  0.084371  0  4.062156  0  0  0.086839  0  4.085626  0  0  0.09128  0.083499  0  4.045448  0
C  C40  1  0.78754971  0.89383630  0.03610409  1  0  0.105384  0  3.802589  0  0  0.084173  0  4.062032  0  0  0.086647  0  4.085494  0  0  0.091214  0.083305  0  4.045312  0
C  C41  1  0.33838697  0.10808469  0.86492032  1  0  -0.025631  0  3.787433  0  0  -0.012037  0  4.02499  0  0  -0.014506  0  4.048037  0  0  0.004776  -0.011375  0  4.009971  0
C  C42  1  0.66161421  0.89191281  0.13508018  1  0  -0.025587  0  3.787487  0  0  -0.012003  0  4.025015  0  0  -0.014475  0  4.048061  0  0  0.004702  -0.011339  0  4.009994  0
C  C43  1  0.44089543  0.98402705  0.86570799  1  0  -0.028813  0  3.664739  0  0  -0.055923  0  3.916902  0  0  -0.053047  0  3.933059  0  0  -0.061888  -0.057284  0  3.906301  0
C  C44  1  0.55910341  0.01597044  0.13429282  1  0  -0.028846  0  3.664746  0  0  -0.055947  0  3.916923  0  0  -0.053067  0  3.933075  0  0  -0.061903  -0.057314  0  3.906333  0
C  C45  1  0.55965533  0.99934687  0.76412099  1  0  -0.095893  0  3.711353  0  0  -0.110582  0  3.970825  0  0  -0.115501  0  3.988953  0  0  -0.077803  -0.108336  0  3.959232  0
C  C46  1  0.44034485  0.00064952  0.23587834  1  0  -0.095869  0  3.711346  0  0  -0.110559  0  3.970809  0  0  -0.115477  0  3.988939  0  0  -0.077772  -0.108318  0  3.959228  0
C  C47  1  0.57531767  0.13858644  0.66379800  1  0  0.145655  0  3.706564  0  0  0.106364  0  3.973331  0  0  0.115504  0  3.988224  0  0  0.05003  0.100787  0  3.962958  0
C  C48  1  0.42468116  0.86141104  0.33620193  1  0  0.145564  0  3.70651  0  0  0.106306  0  3.973256  0  0  0.115437  0  3.988149  0  0  0.050043  0.100728  0  3.962886  0
C  C49  1  0.36037336  0.24604111  0.75698382  1  0  0.131903  0  3.733804  0  0  0.124173  0  3.974557  0  0  0.128274  0  3.997508  0  0  0.11642  0.121125  0  3.959773  0
C  C50  1  0.63962899  0.75395638  0.24301652  1  0  0.131754  0  3.734149  0  0  0.124133  0  3.974769  0  0  0.128235  0  3.99772  0  0  0.116449  0.121081  0  3.959985  0
C  C51  1  0.25263008  0.37667225  0.74857237  1  0  0.127863  0  3.735045  0  0  0.117087  0  3.978523  0  0  0.120973  0  4.001662  0  0  0.114923  0.114247  0  3.963274  0
C  C52  1  0.74737442  0.62332633  0.25142720  1  0  0.127978  0  3.734993  0  0  0.117123  0  3.978494  0  0  0.121012  0  4.001632  0  0  0.114932  0.114291  0  3.963234  0
C  C53  1  0.03637720  0.05551879  0.13969047  1  0  0.346023  0  3.754436  0  0  0.313632  0  4.030644  0  0  0.329153  0  4.044426  0  0  0.21919  0.302996  0  4.021571  0
C  C54  1  0.96362437  0.94448303  0.86030807  1  0  0.346074  0  3.754435  0  0  0.313667  0  4.030655  0  0  0.329174  0  4.044456  0  0  0.219183  0.303032  0  4.021581  0
C  C55  1  0.94518021  0.97654544  0.26319768  1  0  -0.05813  0  3.847163  0  0  -0.041747  0  4.089344  0  0  -0.047993  0  4.114296  0  0  -0.031871  -0.036989  0  4.071947  0
C  C56  1  0.05481628  0.02345852  0.73679973  1  0  -0.058245  0  3.847361  0  0  -0.041813  0  4.089499  0  0  -0.048055  0  4.114448  0  0  -0.031837  -0.037061  0  4.072101  0
C  C57  1  0.82458465  0.05777008  0.31229794  1  0  -0.068577  0  3.778652  0  0  -0.08979  0  4.024041  0  0  -0.088042  0  4.044878  0  0  -0.091279  -0.090585  0  4.009221  0
C  C58  1  0.17541320  0.94223280  0.68769976  1  0  -0.0686  0  3.778591  0  0  -0.089796  0  4.024003  0  0  -0.088046  0  4.044838  0  0  -0.091345  -0.090588  0  4.009187  0
C  C59  1  0.72476716  0.99147345  0.42372901  1  0  -0.210299  0  3.760359  0  0  -0.226484  0  4.008726  0  0  -0.23444  0  4.029748  0  0  -0.115281  -0.220165  0  3.993197  0
C  C60  1  0.27522796  0.00853158  0.57626723  1  0  -0.210117  0  3.760264  0  0  -0.226328  0  4.008588  0  0  -0.234287  0  4.029616  0  0  -0.115188  -0.220003  0  3.993045  0
C  C61  1  0.74222462  0.83989786  0.49085734  1  0  0.343901  0  3.835901  0  0  0.336706  0  4.094257  0  0  0.350111  0  4.109948  0  0  0.080049  0.327371  0  4.083642  0
C  C62  1  0.25777088  0.16010500  0.50913979  1  0  0.343693  0  3.836048  0  0  0.336539  0  4.094377  0  0  0.349942  0  4.110068  0  0  0.080004  0.327202  0  4.083765  0
C  C63  1  0.86315122  0.75731503  0.44346358  1  0  -0.219914  0  3.76116  0  0  -0.237011  0  4.016498  0  0  -0.245226  0  4.03827  0  0  -0.114985  -0.231315  0  4.003039  0
C  C64  1  0.13684530  0.24268894  0.55653560  1  0  -0.219705  0  3.761212  0  0  -0.236808  0  4.016562  0  0  -0.245017  0  4.038322  0  0  -0.114995  -0.23111  0  4.003104  0
C  C65  1  0.96377397  0.82486791  0.33140515  1  0  -0.078445  0  3.757851  0  0  -0.105049  0  4.017047  0  0  -0.103423  0  4.036358  0  0  -0.09619  -0.106233  0  4.004735  0
C  C66  1  0.03622508  0.17513499  0.66859416  1  0  -0.078369  0  3.758166  0  0  -0.105042  0  4.017376  0  0  -0.103397  0  4.036696  0  0  -0.096146  -0.106222  0  4.005064  0
C  C67  1  0.35383150  0.58186415  0.21208553  1  0  0.664607  0  3.89387  0  0  0.609334  0  4.198294  0  0  0.643174  0  4.18884  0  0  0.209195  0.585969  0  4.204682  0
C  C68  1  0.64616623  0.41813336  0.78791898  1  0  0.664593  0  3.893821  0  0  0.609359  0  4.1982  0  0  0.643197  0  4.188746  0  0  0.209173  0.585988  0  4.204599  0
C  C69  1  0.42810125  0.53731898  0.10351335  1  0  -0.073977  0  3.758203  0  0  -0.050637  0  3.98819  0  0  -0.056864  0  4.010158  0  0  -0.022215  -0.046629  0  3.973683  0
C  C70  1  0.57189491  0.46268069  0.89649042  1  0  -0.073993  0  3.758104  0  0  -0.050653  0  3.988055  0  0  -0.056877  0  4.01002  0  0  -0.022208  -0.046639  0  3.973547  0
C  C71  1  0.37215380  0.61343563  0.97495227  1  0  -0.088033  0  3.74426  0  0  -0.106539  0  3.991592  0  0  -0.108124  0  4.010899  0  0  -0.090527  -0.10561  0  3.979082  0
C  C72  1  0.62784273  0.38656187  0.02505063  1  0  -0.087997  0  3.744171  0  0  -0.106515  0  3.991505  0  0  -0.108088  0  4.010817  0  0  -0.090512  -0.105589  0  3.978996  0
C  C73  1  0.55622352  0.42351617  0.12750774  1  0  -0.067898  0  3.731598  0  0  -0.089725  0  3.976003  0  0  -0.090493  0  3.997215  0  0  -0.089386  -0.089069  0  3.961964  0
C  C74  1  0.44377324  0.57648028  0.87249825  1  0  -0.067878  0  3.731624  0  0  -0.089665  0  3.976014  0  0  -0.090435  0  3.99723  0  0  -0.089377  -0.089014  0  3.961977  0
N  N75  1  0.47917954  0.25753670  0.65953558  1  0  -0.347893  0  3.252055  0  0  -0.276844  0  3.517611  0  0  -0.294971  0  3.5353  0  0  -0.322209  -0.264377  0  3.505214  0
N  N76  1  0.52082417  0.74245971  0.34046416  1  0  -0.347851  0  3.252198  0  0  -0.276845  0  3.517727  0  0  -0.294974  0  3.535422  0  0  -0.322247  -0.264381  0  3.505334  0
N  N77  1  0.27021283  0.50466557  0.64071847  1  0  -0.352953  0  3.267146  0  0  -0.279059  0  3.533183  0  0  -0.297516  0  3.551018  0  0  -0.327977  -0.26653  0  3.52141  0
N  N78  1  0.72979049  0.49533300  0.35928038  1  0  -0.352984  0  3.26696  0  0  -0.279049  0  3.533005  0  0  -0.297508  0  3.550841  0  0  -0.327969  -0.266528  0  3.521238  0
N  N79  1  0.00539866  0.19962673  0.06884525  1  0  -0.444541  0  2.976207  0  0  -0.414486  0  3.250959  0  0  -0.429556  0  3.265082  0  0  -0.337823  -0.40379  0  3.24126  0
N  N80  1  0.99460527  0.80037510  0.93115386  1  0  -0.44454  0  2.976308  0  0  -0.414483  0  3.251069  0  0  -0.429548  0  3.265196  0  0  -0.3378  -0.403793  0  3.241369  0
N  N81  1  0.16075078  0.99502845  0.07845439  1  0  -0.378944  0  3.345003  0  0  -0.317937  0  3.57885  0  0  -0.335656  0  3.59188  0  0  -0.3734  -0.305702  0  3.56961  0
N  N82  1  0.83924847  0.00497337  0.92154536  1  0  -0.378945  0  3.344937  0  0  -0.317961  0  3.578745  0  0  -0.335676  0  3.591781  0  0  -0.373453  -0.305728  0  3.569505  0
O  O83  1  0.36629499  0.48513225  0.33542048  1  0  -0.687032  0  2.064516  0  0  -0.616724  0  2.321395  0  0  -0.643568  0  2.306921  0  0  -0.340556  -0.597227  0  2.330445  0
O  O84  1  0.63370214  0.51486851  0.66458269  1  0  -0.687091  0  2.064508  0  0  -0.616803  0  2.321386  0  0  -0.643644  0  2.306908  0  0  -0.340566  -0.597303  0  2.330438  0
O  O85  1  0.28552072  0.70958103  0.17896845  1  0  -0.612572  0  1.997543  0  0  -0.569018  0  2.237411  0  0  -0.591629  0  2.228854  0  0  -0.315414  -0.553663  0  2.243189  0
O  O86  1  0.71447387  0.29042079  0.82103371  1  0  -0.612481  0  1.997637  0  0  -0.568981  0  2.237505  0  0  -0.591595  0  2.228956  0  0  -0.315375  -0.553625  0  2.243289  0
O  O87  1  0.63943331  0.78159487  0.59766646  1  0  -0.545105  0  2.129051  0  0  -0.496366  0  2.350058  0  0  -0.517742  0  2.340672  0  0  -0.359625  -0.481469  0  2.354371  0
O  O88  1  0.36056220  0.21840801  0.40233156  1  0  -0.545053  0  2.129144  0  0  -0.496349  0  2.350169  0  0  -0.51773  0  2.340796  0  0  -0.359595  -0.481452  0  2.35448  0
