# generated using pymatgen
data_ZnH11C14NO7F
_symmetry_space_group_name_H-M   'P 1'
_cell_length_a   7.89579531
_cell_length_b   8.95117930
_cell_length_c   15.14586266
_cell_angle_alpha   92.46148479
_cell_angle_beta   84.74989189
_cell_angle_gamma   83.19744047
_symmetry_Int_Tables_number   1
_chemical_formula_structural   ZnH11C14NO7F
_chemical_formula_sum   'Zn2 H22 C28 N2 O14 F2'
_cell_volume   1056.89715176
_cell_formula_units_Z   2
loop_
 _symmetry_equiv_pos_site_id
 _symmetry_equiv_pos_as_xyz
  1  'x, y, z'
loop_
 _atom_site_type_symbol
 _atom_site_label
 _atom_site_symmetry_multiplicity
 _atom_site_fract_x
 _atom_site_fract_y
 _atom_site_fract_z
 _atom_site_occupancy
 _atom_site_pbe_bader_charge
 _atom_site_pbe_bader_spin_density
 _atom_site_pbe_cm5_charge
 _atom_site_pbe_ddec_charge
 _atom_site_pbe_ddec_spin_density
 _atom_site_pbe_ddec_sum_bond_order
 _atom_site_pbe_magmom
Zn  Zn0  1  0.68958288  0.50279285  0.48819368  1  1.299728  0  0.680142  0.817678  0  2.42841  0
Zn  Zn1  1  0.33123985  0.51519283  0.50185643  1  1.299877  0  0.680996  0.82162  0  2.383718  0
H  H2  1  0.65781747  0.33254382  0.75013488  1  0.112706  0  0.109245  0.119292  0  1.012612  0
H  H3  1  0.81172090  0.95078167  0.81108281  1  0.100528  0  0.110869  0.119972  0  0.96546  0
H  H4  1  0.22097170  0.85701702  0.61684077  1  0.07503  0  0.096267  0.107205  0  1.01705  0
H  H5  1  0.09564511  0.89734375  0.52571965  1  0.086865  0  0.101633  0.117493  0  1.000866  0
H  H6  1  0.07842221  0.02985390  0.61890562  1  0.032069  0  0.102006  0.103922  0  0.997487  0
H  H7  1  0.79477287  0.14846391  0.36126150  1  0.053757  0  0.093876  0.103945  0  1.031603  0
H  H8  1  0.73674845  0.97389091  0.31555248  1  0.017325  0  0.086584  0.078488  0  1.005153  0
H  H9  1  0.94136085  0.97960054  0.35816469  1  0.060311  0  0.103112  0.109272  0  0.986662  0
H  H10  1  0.12166814  0.45174481  0.68958499  1  0.106243  0  0.107866  0.126355  0  1.004513  0
H  H11  1  0.19897997  0.27398801  0.62957255  1  0.15228  0  0.111024  0.136352  0  1.026318  0
H  H12  1  0.99666550  0.29600999  0.69930837  1  0.077565  0  0.11765  0.134136  0  0.973593  0
H  H13  1  0.31850577  0.67574071  0.24061567  1  0.069733  0  0.106461  0.112999  0  1.022103  0
H  H14  1  0.82270824  0.68729700  0.34635794  1  0.106191  0  0.110033  0.128901  0  1.0086  0
H  H15  1  0.97515723  0.53138220  0.29927547  1  0.098291  0  0.111321  0.126302  0  0.971017  0
H  H16  1  0.03312294  0.71971866  0.29977485  1  0.070121  0  0.116828  0.130237  0  0.989747  0
H  H17  1  0.29814269  0.73460275  0.79717991  1  0.102463  0  0.103291  0.112109  0  1.011235  0
H  H18  1  0.67323911  0.26999672  0.19359873  1  0.089408  0  0.102696  0.110702  0  1.013681  0
H  H19  1  0.09063865  0.02775812  0.07172724  1  0.098481  0  0.09396  0.10051  0  1.025885  0
H  H20  1  0.31500806  0.01968798  0.08632391  1  0.05559  0  0.099243  0.098894  0  0.992929  0
H  H21  1  0.15848670  0.05108694  0.18089231  1  0.085692  0  0.109886  0.118325  0  0.969028  0
H  H22  1  0.66235112  0.98005638  0.90862609  1  0.067557  0  0.099238  0.098889  0  0.993382  0
H  H23  1  0.88800664  0.97788516  0.91798754  1  0.091054  0  0.093662  0.100545  0  1.028108  0
C  C24  1  0.48243838  0.79651013  0.48686549  1  1.590351  0  0.21069  0.556314  0  4.195193  0
C  C25  1  0.39210635  0.59125810  0.19404652  1  0.019487  0  -0.089401  -0.150595  0  3.943965  0
C  C26  1  0.47951102  0.53533749  0.76508407  1  0.014208  0  -0.015993  -0.009469  0  3.993464  0
C  C27  1  0.49444916  0.47104669  0.22574739  1  0.053972  0  -0.012281  0.002773  0  3.99477  0
C  C28  1  0.37772781  0.64207919  0.82323158  1  -0.062625  0  -0.089918  -0.148281  0  3.950365  0
C  C29  1  0.59243893  0.36193264  0.16772482  1  -0.044905  0  -0.091987  -0.15505  0  3.9528  0
C  C30  1  0.38167964  0.63149403  0.91532617  1  0.061764  0  -0.018167  -0.010231  0  4.09447  0
C  C31  1  0.58576889  0.37075808  0.07569195  1  0.068238  0  -0.016906  -0.004671  0  4.095427  0
C  C32  1  0.48283880  0.50730501  0.94905446  1  0.025515  0  -0.004949  0.003617  0  3.97743  0
C  C33  1  0.48403731  0.49460055  0.04199207  1  -0.059944  0  -0.007155  -0.002696  0  3.97965  0
C  C34  1  0.58076222  0.39656010  0.88839956  1  0.023376  0  -0.012138  0.004796  0  4.043333  0
C  C35  1  0.56315199  0.22106793  0.50047902  1  1.557733  0  0.202936  0.554201  0  4.192728  0
C  C36  1  0.38750054  0.60615353  0.10262576  1  -0.039402  0  -0.011492  0.009284  0  4.047463  0
C  C37  1  0.28640430  0.74048366  0.97825000  1  0.473806  0  0.077352  0.098969  0  4.062711  0
C  C38  1  0.68057932  0.26137827  0.01285082  1  0.375774  0  0.075987  0.095811  0  4.063825  0
C  C39  1  0.18999524  0.99283322  0.11525803  1  0.345369  0  -0.13593  -0.172998  0  3.892244  0
C  C40  1  0.78383119  0.00960304  0.87671613  1  0.334913  0  -0.135373  -0.173231  0  3.892026  0
C  C41  1  0.16576986  0.94619847  0.57669796  1  0.385662  0  -0.139803  -0.171779  0  3.859659  0
C  C42  1  0.80554695  0.02581973  0.36671685  1  0.400821  0  -0.146593  -0.179689  0  3.92554  0
C  C43  1  0.08561761  0.35130420  0.65575124  1  0.281274  0  -0.130504  -0.21589  0  3.783496  0
C  C44  1  0.95828738  0.64175861  0.33522205  1  0.33345  0  -0.12791  -0.204568  0  3.808417  0
C  C45  1  0.28800986  0.73312917  0.06861597  1  0.540275  0  0.072837  0.08153  0  4.106202  0
C  C46  1  0.67946045  0.26885425  0.92243052  1  0.603935  0  0.074499  0.083804  0  4.104459  0
C  C47  1  0.45235301  0.96546636  0.50384733  1  0.537262  0  0.083602  0.044699  0  3.95507  0
C  C48  1  0.58061828  0.05426657  0.48464503  1  0.556738  0  0.053436  -0.009932  0  3.973558  0
C  C49  1  0.49824922  0.46690225  0.32441164  1  1.577163  0  0.217621  0.605765  0  4.158618  0
C  C50  1  0.48692590  0.54653916  0.66646094  1  1.552042  0  0.215695  0.59633  0  4.159258  0
C  C51  1  0.58038014  0.41412178  0.79705189  1  -0.053176  0  -0.086118  -0.139184  0  3.934378  0
N  N52  1  0.06130644  0.48328257  0.52587116  1  0.068555  0  -0.039972  0.041762  0  3.348548  0
N  N53  1  0.95756379  0.53216691  0.47232712  1  0.087552  0  -0.049069  0.03521  0  3.341823  0
O  O54  1  0.62997924  0.72978855  0.49704621  1  -1.147274  0  -0.308538  -0.525136  0  2.403703  0
O  O55  1  0.76863902  0.16806592  0.86006360  1  -1.085631  0  -0.190832  -0.151158  0  2.58114  0
O  O56  1  0.29474109  0.03127056  0.53689555  1  -1.061169  0  -0.176957  -0.114203  0  2.632841  0
O  O57  1  0.74186324  0.98675543  0.45352019  1  -1.049288  0  -0.204562  -0.148688  0  2.617152  0
O  O58  1  0.98413620  0.39511599  0.58340338  1  -0.598468  0  -0.043513  -0.003184  0  2.476834  0
O  O59  1  0.03214464  0.63022151  0.41935602  1  -0.610732  0  -0.05608  -0.027075  0  2.482415  0
O  O60  1  0.41662668  0.29553466  0.52426477  1  -1.166482  0  -0.319394  -0.556633  0  2.409897  0
O  O61  1  0.35506171  0.73293228  0.46530170  1  -1.158313  0  -0.313756  -0.538571  0  2.367442  0
O  O62  1  0.70329678  0.27890870  0.48801341  1  -1.134554  0  -0.317787  -0.524691  0  2.397969  0
O  O63  1  0.64108530  0.48001908  0.35468043  1  -1.167807  0  -0.312472  -0.557033  0  2.328971  0
O  O64  1  0.34732583  0.58714675  0.63215355  1  -1.169193  0  -0.320588  -0.567165  0  2.330077  0
O  O65  1  0.35628202  0.45586230  0.36897992  1  -1.155693  0  -0.315342  -0.538009  0  2.323532  0
O  O66  1  0.63330281  0.51087771  0.62460275  1  -1.153379  0  -0.308388  -0.533881  0  2.365019  0
O  O67  1  0.19865994  0.83423078  0.13092672  1  -1.082357  0  -0.19162  -0.152884  0  2.580502  0
F  F68  1  0.18749325  0.85675630  0.94438164  1  -0.640945  0  -0.094791  -0.130427  0  1.39063  0
F  F69  1  0.77975269  0.14543784  0.04696170  1  -0.63676  0  -0.096262  -0.132005  0  1.388092  0
