# generated using pymatgen
data_CdH26C32N6O5
_symmetry_space_group_name_H-M   'P 1'
_cell_length_a   9.47453127
_cell_length_b   12.20904677
_cell_length_c   13.08000000
_cell_angle_alpha   79.63463608
_cell_angle_beta   88.36488381
_cell_angle_gamma   83.22785774
_symmetry_Int_Tables_number   1
_chemical_formula_structural   CdH26C32N6O5
_chemical_formula_sum   'Cd2 H52 C64 N12 O10'
_cell_volume   1477.91128403
_cell_formula_units_Z   2
loop_
 _symmetry_equiv_pos_site_id
 _symmetry_equiv_pos_as_xyz
  1  'x, y, z'
loop_
 _atom_site_type_symbol
 _atom_site_label
 _atom_site_symmetry_multiplicity
 _atom_site_fract_x
 _atom_site_fract_y
 _atom_site_fract_z
 _atom_site_occupancy
 _atom_site_hle17_bader_spin_density
 _atom_site_hle17_ddec_charge
 _atom_site_hle17_ddec_spin_density
 _atom_site_hle17_ddec_sum_bond_order
 _atom_site_hle17_magmom
 _atom_site_hse06_10hf_bader_spin_density
 _atom_site_hse06_10hf_ddec_charge
 _atom_site_hse06_10hf_ddec_spin_density
 _atom_site_hse06_10hf_ddec_sum_bond_order
 _atom_site_hse06_10hf_magmom
 _atom_site_hse06_bader_spin_density
 _atom_site_hse06_ddec_charge
 _atom_site_hse06_ddec_spin_density
 _atom_site_hse06_ddec_sum_bond_order
 _atom_site_hse06_magmom
 _atom_site_pbe_bader_charge
 _atom_site_pbe_bader_spin_density
 _atom_site_pbe_cm5_charge
 _atom_site_pbe_ddec_charge
 _atom_site_pbe_ddec_spin_density
 _atom_site_pbe_ddec_sum_bond_order
 _atom_site_pbe_magmom
Cd  Cd0  1  0.25348772  0.08970096  0.10732975  1  0  1.147047  0  1.633515  0  0  0.959005  0  2.067722  0  0  1.015714  0  2.016198  0  1.278353  0  0.774356  0.918658  0  2.103339  0
Cd  Cd1  1  0.74651532  0.91030150  0.89267467  1  0  1.147052  0  1.633459  0  0  0.959015  0  2.06765  0  0  1.015726  0  2.016129  0  1.278277  0  0.774351  0.918671  0  2.103267  0
H  H2  1  0.00073646  0.10922398  0.92385075  1  0  0.11487  0  0.96444  0  0  0.123834  0  1.027765  0  0  0.126701  0  1.024075  0  0.180992  0  0.137719  0.121544  0  1.03065  0
H  H3  1  0.99927011  0.89077597  0.07615096  1  0  0.114867  0  0.964371  0  0  0.12383  0  1.02771  0  0  0.126697  0  1.024018  0  0.181002  0  0.137706  0.12154  0  1.030595  0
H  H4  1  0.26753759  0.35503366  0.95223062  1  0  0.098861  0  0.98143  0  0  0.107026  0  1.045558  0  0  0.10883  0  1.045457  0  0.135777  0  0.112737  0.105591  0  1.045921  0
H  H5  1  0.73245005  0.64497299  0.04778182  1  0  0.098789  0  0.981457  0  0  0.106977  0  1.045551  0  0  0.10878  0  1.04545  0  0.135748  0  0.112739  0.105542  0  1.045914  0
H  H6  1  0.06633805  0.44381597  0.79851162  1  0  0.115139  0  0.946884  0  0  0.129113  0  1.000754  0  0  0.131842  0  0.999658  0  0.138066  0  0.122496  0.127287  0  1.001381  0
H  H7  1  0.93365877  0.55618565  0.20149154  1  0  0.115158  0  0.946837  0  0  0.129108  0  1.000734  0  0  0.131836  0  0.999628  0  0.138106  0  0.122517  0.127284  0  1.001357  0
H  H8  1  0.80015484  0.35489285  0.79039016  1  0  0.082319  0  0.95055  0  0  0.095475  0  1.015023  0  0  0.095855  0  1.015875  0  0.082964  0  0.110135  0.09506  0  1.014574  0
H  H9  1  0.19985055  0.64510793  0.20961066  1  0  0.082246  0  0.95059  0  0  0.095473  0  1.014992  0  0  0.095857  0  1.015847  0  0.082932  0  0.11012  0.095057  0  1.014544  0
H  H10  1  0.82724207  0.20835787  0.80053706  1  0  0.101387  0  0.914512  0  0  0.117152  0  0.975561  0  0  0.118297  0  0.974504  0  0.103111  0  0.120707  0.116074  0  0.976572  0
H  H11  1  0.17276089  0.79163788  0.19946696  1  0  0.101339  0  0.914476  0  0  0.117115  0  0.975535  0  0  0.11826  0  0.974476  0  0.103223  0  0.12069  0.116036  0  0.976548  0
H  H12  1  0.11549901  0.19220352  0.68892050  1  0  0.089813  0  0.970052  0  0  0.099312  0  1.034855  0  0  0.101733  0  1.034708  0  0.057235  0  0.099422  0.097351  0  1.035415  0
H  H13  1  0.88450772  0.80778804  0.31108720  1  0  0.089947  0  0.970053  0  0  0.099461  0  1.034822  0  0  0.101885  0  1.034671  0  0.057389  0  0.099485  0.097485  0  1.035423  0
H  H14  1  0.18144065  0.20764961  0.50229987  1  0  0.085529  0  0.953282  0  0  0.099595  0  1.008604  0  0  0.101991  0  1.007812  0  0.069482  0  0.099819  0.097905  0  1.009122  0
H  H15  1  0.81856982  0.79234531  0.49770642  1  0  0.085526  0  0.953206  0  0  0.099537  0  1.008596  0  0  0.101933  0  1.007803  0  0.069605  0  0.099806  0.097852  0  1.009112  0
H  H16  1  0.01549842  0.31859354  0.36711264  1  0  0.099541  0  0.937327  0  0  0.110888  0  0.994542  0  0  0.114406  0  0.992033  0  0.09108  0  0.105721  0.108317  0  0.996626  0
H  H17  1  0.98451741  0.68140808  0.63289165  1  0  0.099523  0  0.937265  0  0  0.110838  0  0.994507  0  0  0.114358  0  0.991996  0  0.091065  0  0.105702  0.108269  0  0.996585  0
H  H18  1  0.79243209  0.42210444  0.42178417  1  0  0.085776  0  0.990366  0  0  0.097466  0  1.053496  0  0  0.099895  0  1.052616  0  0.062948  0  0.096643  0.095591  0  1.0543  0
H  H19  1  0.20757712  0.57788460  0.57822007  1  0  0.085945  0  0.990258  0  0  0.097589  0  1.053425  0  0  0.100018  0  1.052548  0  0.062853  0  0.0967  0.095716  0  1.054225  0
H  H20  1  0.80153764  0.55412120  0.66623648  1  0  0.087651  0  0.96002  0  0  0.099216  0  1.020109  0  0  0.101555  0  1.019668  0  0.071778  0  0.098282  0.097472  0  1.020657  0
H  H21  1  0.19847884  0.44586868  0.33376595  1  0  0.08765  0  0.959903  0  0  0.099217  0  1.020005  0  0  0.101557  0  1.019568  0  0.071925  0  0.098311  0.097474  0  1.020552  0
H  H22  1  0.58387276  0.65483592  0.73288516  1  0  0.112576  0  0.980554  0  0  0.115172  0  1.051678  0  0  0.119417  0  1.048352  0  0.162024  0  0.100912  0.112142  0  1.054168  0
H  H23  1  0.41614136  0.34515564  0.26710251  1  0  0.112615  0  0.980653  0  0  0.115237  0  1.051739  0  0  0.119485  0  1.048411  0  0.161886  0  0.100935  0.112205  0  1.054231  0
H  H24  1  0.34935168  0.58636285  0.71809142  1  0  0.087755  0  0.96204  0  0  0.098319  0  1.022538  0  0  0.100203  0  1.023038  0  0.07249  0  0.098101  0.097015  0  1.022262  0
H  H25  1  0.65066155  0.41364212  0.28190931  1  0  0.087733  0  0.962116  0  0  0.098366  0  1.022509  0  0  0.100244  0  1.023032  0  0.072034  0  0.098095  0.097063  0  1.022232  0
H  H26  1  0.33416043  0.41904926  0.63642597  1  0  0.08044  0  0.963901  0  0  0.093178  0  1.026064  0  0  0.095817  0  1.024785  0  0.047265  0  0.097166  0.09115  0  1.027251  0
H  H27  1  0.66584379  0.58095236  0.36358239  1  0  0.080388  0  0.963861  0  0  0.093086  0  1.02608  0  0  0.095722  0  1.024808  0  0.047285  0  0.097151  0.091071  0  1.027257  0
H  H28  1  0.44890773  0.29169281  0.52175800  1  0  0.084538  0  0.919427  0  0  0.099751  0  0.982645  0  0  0.100294  0  0.982558  0  0.083607  0  0.111763  0.099468  0  0.982392  0
H  H29  1  0.55108877  0.70830378  0.47824678  1  0  0.084476  0  0.919491  0  0  0.099718  0  0.982706  0  0  0.100279  0  0.982606  0  0.083614  0  0.111748  0.099436  0  0.982453  0
H  H30  1  0.63587773  0.25984594  0.52007995  1  0  0.084175  0  0.947194  0  0  0.096771  0  1.014742  0  0  0.097088  0  1.015851  0  0.090961  0  0.112342  0.096692  0  1.013534  0
H  H31  1  0.36412425  0.74015651  0.47992220  1  0  0.084257  0  0.9471  0  0  0.096846  0  1.01466  0  0  0.097166  0  1.015774  0  0.090914  0  0.112364  0.096757  0  1.013479  0
H  H32  1  0.32948218  0.23626275  0.71760205  1  0  0.104221  0  0.984563  0  0  0.113083  0  1.050291  0  0  0.115365  0  1.049784  0  0.105529  0  0.116145  0.111399  0  1.050915  0
H  H33  1  0.67050660  0.76372881  0.28238156  1  0  0.104239  0  0.984635  0  0  0.113056  0  1.050412  0  0  0.115335  0  1.049907  0  0.105666  0  0.116101  0.11139  0  1.050989  0
H  H34  1  0.41213468  0.05324323  0.87103823  1  0  0.112238  0  0.966054  0  0  0.119189  0  1.031097  0  0  0.122241  0  1.028773  0  0.147793  0  0.118445  0.116851  0  1.033051  0
H  H35  1  0.58784334  0.94674246  0.12894812  1  0  0.11231  0  0.966058  0  0  0.119185  0  1.03115  0  0  0.122239  0  1.028818  0  0.14789  0  0.118417  0.116826  0  1.033149  0
H  H36  1  0.74487246  0.09493878  0.65174479  1  0  0.095156  0  0.942396  0  0  0.104503  0  1.00797  0  0  0.106513  0  1.006034  0  0.135293  0  0.133165  0.103026  0  1.009347  0
H  H37  1  0.25513362  0.90506452  0.34826325  1  0  0.09514  0  0.94245  0  0  0.104506  0  1.007989  0  0  0.106515  0  1.006053  0  0.135225  0  0.133168  0.103033  0  1.009359  0
H  H38  1  0.52890918  0.40667847  0.94637282  1  0  0.096358  0  0.938531  0  0  0.109585  0  0.995213  0  0  0.112208  0  0.994336  0  0.078948  0  0.107001  0.10758  0  0.996054  0
H  H39  1  0.47109484  0.59331728  0.05361818  1  0  0.096448  0  0.93845  0  0  0.109585  0  0.995242  0  0  0.112197  0  0.994395  0  0.079009  0  0.106995  0.107579  0  0.996084  0
H  H40  1  0.74689756  0.50639156  0.92488174  1  0  0.110802  0  0.941388  0  0  0.12077  0  1.000799  0  0  0.124515  0  0.99902  0  0.107425  0  0.107719  0.118121  0  1.002118  0
H  H41  1  0.25310198  0.49360587  0.07510907  1  0  0.11087  0  0.941318  0  0  0.120832  0  1.000731  0  0  0.12458  0  0.998945  0  0.107627  0  0.107746  0.11818  0  1.002049  0
H  H42  1  0.94920390  0.43422377  0.04944199  1  0  0.059201  0  0.958439  0  0  0.067441  0  1.025172  0  0  0.069779  0  1.023576  0  0.043819  0  0.105557  0.065791  0  1.026365  0
H  H43  1  0.05078700  0.56578958  0.95055702  1  0  0.059299  0  0.958292  0  0  0.067534  0  1.02502  0  0  0.069858  0  1.023439  0  0.043808  0  0.10557  0.065885  0  1.026213  0
H  H44  1  0.49679564  0.09335964  0.42932554  1  0  0.062815  0  0.939437  0  0  0.073039  0  1.002457  0  0  0.075789  0  0.999788  0  0.066988  0  0.1074  0.071075  0  1.004438  0
H  H45  1  0.50319757  0.90663779  0.57066617  1  0  0.06284  0  0.939336  0  0  0.073048  0  1.002374  0  0  0.075801  0  0.999701  0  0.066985  0  0.107409  0.071083  0  1.004355  0
H  H46  1  0.71723109  0.97966304  0.51152711  1  0  0.095203  0  0.9623  0  0  0.105695  0  1.024437  0  0  0.109405  0  1.021983  0  0.074764  0  0.103004  0.103043  0  1.026314  0
H  H47  1  0.28275850  0.02033019  0.48846613  1  0  0.095143  0  0.962282  0  0  0.105651  0  1.024415  0  0  0.109358  0  1.021967  0  0.074904  0  0.103021  0.103001  0  1.026289  0
H  H48  1  0.94483200  0.98270901  0.40772262  1  0  0.096775  0  0.944971  0  0  0.109551  0  1.002552  0  0  0.112124  0  1.001434  0  0.050903  0  0.105422  0.107719  0  1.00335  0
H  H49  1  0.05516141  0.01729429  0.59227803  1  0  0.096751  0  0.94493  0  0  0.109485  0  1.002569  0  0  0.112084  0  1.00142  0  0.050808  0  0.105413  0.107654  0  1.003365  0
H  H50  1  0.17901031  0.93839749  0.96118199  1  0  0.42148  0  0.880968  0  0  0.387689  0  0.950662  0  0  0.398965  0  0.934223  0  0.641271  0  0.281966  0.379674  0  0.962337  0
H  H51  1  0.82098627  0.06160581  0.03882242  1  0  0.421516  0  0.880913  0  0  0.387732  0  0.950591  0  0  0.399008  0  0.934153  0  0.641262  0  0.282  0.379717  0  0.962266  0
H  H52  1  0.34154415  0.90527071  0.99505118  1  0  0.417187  0  0.892891  0  0  0.383534  0  0.961458  0  0  0.395373  0  0.944435  0  0.650745  0  0.277819  0.375156  0  0.973453  0
H  H53  1  0.65845324  0.09473426  0.00494835  1  0  0.417157  0  0.892926  0  0  0.383521  0  0.961461  0  0  0.395358  0  0.944441  0  0.650681  0  0.277812  0.375142  0  0.973456  0
C  C54  1  0.04833274  0.18694055  0.91265823  1  0  0.180549  0  3.632531  0  0  0.117117  0  3.894711  0  0  0.132514  0  3.90631  0  1.00147  0  0.145549  0.107404  0  3.886464  0
C  C55  1  0.95166644  0.81305939  0.08734745  1  0  0.180517  0  3.632551  0  0  0.117079  0  3.894735  0  0  0.132475  0  3.906337  0  1.001196  0  0.145526  0.107367  0  3.886484  0
C  C56  1  0.18377786  0.31669924  0.92250080  1  0  0.005381  0  3.773567  0  0  -0.028166  0  4.039849  0  0  -0.025008  0  4.061016  0  0.320583  0  -0.003964  -0.030021  0  4.02547  0
C  C57  1  0.81621954  0.68330573  0.07750408  1  0  0.005495  0  3.773592  0  0  -0.028091  0  4.039912  0  0  -0.024929  0  4.061071  0  0.320386  0  -0.003945  -0.029945  0  4.025534  0
C  C58  1  0.08485453  0.36173496  0.84704923  1  0  -0.097268  0  3.707038  0  0  -0.138548  0  3.970557  0  0  -0.139126  0  3.990953  0  0.331172  0  -0.010411  -0.137978  0  3.956539  0
C  C59  1  0.91514018  0.63826666  0.15295397  1  0  -0.097211  0  3.706888  0  0  -0.138455  0  3.970424  0  0  -0.139023  0  3.990812  0  0.331379  0  -0.010356  -0.137886  0  3.956407  0
C  C60  1  0.87781748  0.28554136  0.77531515  1  0  -0.043894  0  3.66103  0  0  -0.110753  0  3.910371  0  0  -0.10612  0  3.920629  0  0.296323  0  -0.046724  -0.113583  0  3.903469  0
C  C61  1  0.12218430  0.71445523  0.22469180  1  0  -0.043725  0  3.660852  0  0  -0.110663  0  3.910209  0  0  -0.106036  0  3.920474  0  0.296034  0  -0.0467  -0.113494  0  3.90331  0
C  C62  1  0.91837150  0.29998414  0.66131360  1  0  0.02558  0  3.721603  0  0  0.039272  0  3.96352  0  0  0.037831  0  3.987428  0  -0.000841  0  -0.013753  0.039893  0  3.947678  0
C  C63  1  0.08162618  0.70001161  0.33869129  1  0  0.025682  0  3.721665  0  0  0.03942  0  3.963612  0  0  0.037977  0  3.987525  0  -0.000951  0  -0.013704  0.040045  0  3.947766  0
C  C64  1  0.04548560  0.24408721  0.62996827  1  0  -0.129986  0  3.781666  0  0  -0.151425  0  4.034881  0  0  -0.15419  0  4.057168  0  -0.024788  0  -0.100043  -0.150075  0  4.020749  0
C  C65  1  0.95451711  0.75591021  0.37003547  1  0  -0.130202  0  3.782007  0  0  -0.151666  0  4.035208  0  0  -0.154433  0  4.057493  0  -0.024598  0  -0.100097  -0.150323  0  4.021078  0
C  C66  1  0.08225666  0.25212542  0.52512434  1  0  -0.071708  0  3.798686  0  0  -0.085255  0  4.049426  0  0  -0.08737  0  4.071969  0  -0.092822  0  -0.094668  -0.083378  0  4.034009  0
C  C67  1  0.91775214  0.74787369  0.47487747  1  0  -0.071888  0  3.798985  0  0  -0.085406  0  4.049764  0  0  -0.087523  0  4.072307  0  -0.092967  0  -0.094825  -0.083533  0  4.034356  0
C  C68  1  0.99025230  0.31523577  0.44945533  1  0  -0.062789  0  3.778772  0  0  -0.079054  0  4.031488  0  0  -0.081027  0  4.05295  0  -0.092312  0  -0.090266  -0.077683  0  4.016629  0
C  C69  1  0.00975463  0.68476166  0.55054450  1  0  -0.062465  0  3.778946  0  0  -0.078661  0  4.031534  0  0  -0.080635  0  4.052992  0  -0.09244  0  -0.090061  -0.077291  0  4.016677  0
C  C70  1  0.86424265  0.37199183  0.48007690  1  0  -0.11367  0  3.756277  0  0  -0.132762  0  4.001091  0  0  -0.135052  0  4.022374  0  0.024024  0  -0.094177  -0.130487  0  3.986099  0
C  C71  1  0.13576348  0.62800392  0.51992705  1  0  -0.114059  0  3.756453  0  0  -0.133098  0  4.001273  0  0  -0.13539  0  4.022558  0  0.024965  0  -0.094309  -0.13082  0  3.986278  0
C  C72  1  0.82673193  0.36595355  0.58540681  1  0  0.00618  0  3.768119  0  0  0.017692  0  4.000803  0  0  0.016923  0  4.025246  0  -0.080058  0  -0.008686  0.017717  0  3.984193  0
C  C73  1  0.17327147  0.63404640  0.41459649  1  0  0.006301  0  3.76801  0  0  0.017774  0  4.000765  0  0  0.017005  0  4.025208  0  -0.081315  0  -0.008654  0.017799  0  3.98415  0
C  C74  1  0.69201060  0.42781668  0.61701435  1  0  0.007368  0  3.762798  0  0  0.018029  0  3.995148  0  0  0.017524  0  4.019468  0  -0.04322  0  -0.009145  0.018719  0  3.978424  0
C  C75  1  0.30799589  0.57217656  0.38299154  1  0  0.007273  0  3.762777  0  0  0.017906  0  3.995322  0  0  0.017399  0  4.019645  0  -0.042627  0  -0.009186  0.018598  0  3.978593  0
C  C76  1  0.69838128  0.52432286  0.66058942  1  0  -0.120064  0  3.756036  0  0  -0.13622  0  3.999484  0  0  -0.139324  0  4.021222  0  -0.103993  0  -0.092756  -0.13395  0  3.984688  0
C  C77  1  0.30163224  0.47567289  0.33941056  1  0  -0.120037  0  3.755832  0  0  -0.136164  0  3.999313  0  0  -0.139267  0  4.021048  0  -0.104023  0  -0.092824  -0.133897  0  3.984525  0
C  C78  1  0.57676829  0.58130440  0.69749968  1  0  -0.062457  0  3.751943  0  0  -0.075692  0  4.001233  0  0  -0.077442  0  4.021473  0  -0.041342  0  -0.090554  -0.074655  0  3.987608  0
C  C79  1  0.42324287  0.41869303  0.30249700  1  0  -0.062662  0  3.752262  0  0  -0.075937  0  4.001584  0  0  -0.077685  0  4.021821  0  -0.041109  0  -0.090635  -0.0749  0  3.987958  0
C  C80  1  0.44520630  0.54244695  0.68947415  1  0  -0.071338  0  3.775395  0  0  -0.084597  0  4.026035  0  0  -0.087008  0  4.048641  0  -0.093198  0  -0.094883  -0.083  0  4.010802  0
C  C81  1  0.55480355  0.45755215  0.31052687  1  0  -0.071261  0  3.775511  0  0  -0.084539  0  4.026105  0  0  -0.086954  0  4.048702  0  -0.092948  0  -0.094814  -0.082944  0  4.010878  0
C  C82  1  0.43710392  0.44838743  0.64435884  1  0  -0.121321  0  3.783993  0  0  -0.143094  0  4.035836  0  0  -0.145113  0  4.057275  0  -0.029977  0  -0.095657  -0.141498  0  4.021416  0
C  C83  1  0.56289961  0.55161167  0.35564460  1  0  -0.121209  0  3.783878  0  0  -0.142916  0  4.035823  0  0  -0.144933  0  4.057258  0  -0.030016  0  -0.095616  -0.141338  0  4.02141  0
C  C84  1  0.55908060  0.38965325  0.60861843  1  0  0.028939  0  3.712602  0  0  0.044533  0  3.951591  0  0  0.042848  0  3.975499  0  -0.013754  0  -0.013178  0.045605  0  3.935099  0
C  C85  1  0.44092386  0.61034670  0.39138714  1  0  0.029101  0  3.712564  0  0  0.044574  0  3.951804  0  0  0.042895  0  3.975718  0  -0.013815  0  -0.013126  0.045647  0  3.935316  0
C  C86  1  0.54518484  0.28256161  0.56884364  1  0  -0.039618  0  3.661362  0  0  -0.111524  0  3.919394  0  0  -0.106291  0  3.929383  0  0.265806  0  -0.049069  -0.114935  0  3.912003  0
C  C87  1  0.45481316  0.71743917  0.43115887  1  0  -0.039629  0  3.661398  0  0  -0.111553  0  3.919557  0  0  -0.106346  0  3.929565  0  0.265938  0  -0.049102  -0.11497  0  3.912168  0
C  C88  1  0.42578031  0.17835837  0.72630120  1  0  -0.081399  0  3.696495  0  0  -0.119986  0  3.951825  0  0  -0.120072  0  3.972629  0  0.311433  0  -0.009398  -0.119888  0  3.93801  0
C  C89  1  0.57421046  0.82163403  0.27369217  1  0  -0.081393  0  3.696411  0  0  -0.119944  0  3.951746  0  0  -0.120028  0  3.972549  0  0.311089  0  -0.009375  -0.11984  0  3.937928  0
C  C90  1  0.46861381  0.08841685  0.80217391  1  0  0.028355  0  3.728436  0  0  -0.005289  0  3.991407  0  0  -0.002457  0  4.011594  0  0.399875  0  -0.000275  -0.007151  0  3.977857  0
C  C91  1  0.53137497  0.91157471  0.19781581  1  0  0.028138  0  3.728471  0  0  -0.005437  0  3.991474  0  0  -0.002601  0  4.011661  0  0.40027  0  -0.00035  -0.007295  0  3.977927  0
C  C92  1  0.64322594  0.10656860  0.69094148  1  0  0.144276  0  3.682185  0  0  0.083747  0  3.950054  0  0  0.096732  0  3.964935  0  0.948214  0  0.134709  0.075452  0  3.939615  0
C  C93  1  0.35677747  0.89343134  0.30906412  1  0  0.144167  0  3.682107  0  0  0.083618  0  3.949992  0  0  0.096605  0  3.964874  0  0.948142  0  0.134635  0.075325  0  3.939551  0
C  C94  1  0.48078857  0.22651130  0.08923703  1  0  0.656542  0  3.936845  0  0  0.596906  0  4.246661  0  0  0.632179  0  4.237915  0  1.601044  0  0.20287  0.573004  0  4.251559  0
C  C95  1  0.51921446  0.77349116  0.91076280  1  0  0.656571  0  3.93674  0  0  0.596967  0  4.24662  0  0  0.632241  0  4.237872  0  1.60101  0  0.202834  0.573058  0  4.251523  0
C  C96  1  0.60792110  0.29068112  0.08273761  1  0  -0.103317  0  3.682549  0  0  -0.081663  0  3.913691  0  0  -0.089319  0  3.932525  0  -0.059908  0  0.000901  -0.077156  0  3.90145  0
C  C97  1  0.39207994  0.70932050  0.91725705  1  0  -0.103453  0  3.68253  0  0  -0.082037  0  3.913977  0  0  -0.08969  0  3.932812  0  -0.059852  0  0.000802  -0.0775  0  3.901685  0
C  C98  1  0.61696282  0.38051870  0.00057084  1  0  -0.036153  0  3.721575  0  0  -0.061855  0  3.966924  0  0  -0.059318  0  3.984953  0  -0.048798  0  -0.070627  -0.063098  0  3.954613  0
C  C99  1  0.38303965  0.61948041  0.99941886  1  0  -0.036188  0  3.72161  0  0  -0.061761  0  3.967046  0  0  -0.05923  0  3.985078  0  -0.048771  0  -0.070628  -0.063012  0  3.954729  0
C  C100  1  0.73907767  0.43495467  0.98749795  1  0  -0.128273  0  3.752316  0  0  -0.14232  0  4.010175  0  0  -0.147324  0  4.029744  0  -0.063302  0  -0.089186  -0.139163  0  3.996876  0
C  C101  1  0.26092362  0.56504528  0.01249699  1  0  -0.128205  0  3.752174  0  0  -0.142205  0  4.009946  0  0  -0.147208  0  4.029513  0  -0.063283  0  -0.089069  -0.139044  0  3.996646  0
C  C102  1  0.85008354  0.39597317  0.05756221  1  0  0.116715  0  3.767124  0  0  0.089322  0  4.033073  0  0  0.095207  0  4.049885  0  0.548194  0  0.035736  0.085326  0  4.0218  0
C  C103  1  0.14990890  0.60403684  0.94244116  1  0  0.116475  0  3.766852  0  0  0.089085  0  4.03281  0  0  0.094979  0  4.049627  0  0.547993  0  0.035608  0.085089  0  4.02154  0
C  C104  1  0.72449515  0.25933297  0.15064716  1  0  0.15425  0  3.744884  0  0  0.147497  0  3.9916  0  0  0.153487  0  4.009471  0  0.55829  0  0.121196  0.14333  0  3.979804  0
C  C105  1  0.27549826  0.74067032  0.84934814  1  0  0.154331  0  3.744951  0  0  0.147688  0  3.991669  0  0  0.153673  0  4.009547  0  0.558438  0  0.121267  0.143511  0  3.979869  0
C  C106  1  0.72412710  0.16981810  0.24433657  1  0  0.167338  0  3.728648  0  0  0.157945  0  3.977022  0  0  0.164995  0  3.99464  0  0.530187  0  0.127309  0.153176  0  3.96519  0
C  C107  1  0.27586936  0.83018604  0.75566388  1  0  0.167379  0  3.728729  0  0  0.157968  0  3.977094  0  0  0.165026  0  3.994709  0  0.530143  0  0.127362  0.153212  0  3.965276  0
C  C108  1  0.59981625  0.09570823  0.38966188  1  0  0.115235  0  3.768994  0  0  0.086328  0  4.038524  0  0  0.09299  0  4.054685  0  0.532187  0  0.036044  0.081889  0  4.027648  0
C  C109  1  0.40017939  0.90429423  0.61033123  1  0  0.115263  0  3.768699  0  0  0.086374  0  4.038218  0  0  0.093036  0  4.054378  0  0.532183  0  0.036045  0.081937  0  4.027339  0
C  C110  1  0.72127883  0.03115871  0.43441181  1  0  -0.14416  0  3.787111  0  0  -0.160856  0  4.049218  0  0  -0.16676  0  4.069635  0  -0.132771  0  -0.096245  -0.157249  0  4.03559  0
C  C111  1  0.27871096  0.96884039  0.56558274  1  0  -0.144176  0  3.787011  0  0  -0.160899  0  4.049131  0  0  -0.166803  0  4.069555  0  -0.133152  0  -0.096279  -0.157293  0  4.035499  0
C  C112  1  0.84781031  0.03371518  0.37738937  1  0  -0.035339  0  3.73754  0  0  -0.061449  0  3.983435  0  0  -0.058476  0  4.00262  0  0.032502  0  -0.074074  -0.062996  0  3.970305  0
C  C113  1  0.15218522  0.96628811  0.62260818  1  0  -0.035264  0  3.737488  0  0  -0.061339  0  3.983402  0  0  -0.058386  0  4.002575  0  0.032871  0  -0.074067  -0.06287  0  3.970285  0
C  C114  1  0.84983344  0.10007015  0.27867841  1  0  -0.105855  0  3.687907  0  0  -0.086647  0  3.92254  0  0  -0.095372  0  3.941692  0  0.015039  0  -0.001998  -0.081345  0  3.909966  0
C  C115  1  0.15016290  0.89993482  0.72132190  1  0  -0.105854  0  3.687838  0  0  -0.086662  0  3.922484  0  0  -0.095383  0  3.941646  0  0.014881  0  -0.002021  -0.081412  0  3.909979  0
C  C116  1  0.97947819  0.08867837  0.21081641  1  0  0.657665  0  3.956603  0  0  0.600271  0  4.264935  0  0  0.636219  0  4.255385  0  1.577393  0  0.196625  0.575855  0  4.270527  0
C  C117  1  0.02052370  0.91133918  0.78917785  1  0  0.657362  0  3.956677  0  0  0.599996  0  4.264977  0  0  0.635919  0  4.25546  0  1.578385  0  0.196374  0.575595  0  4.270565  0
N  N118  1  0.15957531  0.20793962  0.96269546  1  0  -0.386788  0  3.250267  0  0  -0.308075  0  3.527089  0  0  -0.330477  0  3.544274  0  -1.216457  0  -0.357809  -0.292729  0  3.514848  0
N  N119  1  0.84042139  0.79206284  0.03731062  1  0  -0.386794  0  3.25031  0  0  -0.308049  0  3.527122  0  0  -0.330453  0  3.54431  0  -1.216422  0  -0.357754  -0.292701  0  3.514877  0
N  N120  1  0.99956286  0.27815108  0.84238859  1  0  -0.061052  0  3.601371  0  0  0.034825  0  3.818317  0  0  0.019706  0  3.845079  0  -1.255603  0  -0.246329  0.044835  0  3.799867  0
N  N121  1  0.00043749  0.72184802  0.15761415  1  0  -0.061222  0  3.601291  0  0  0.034655  0  3.818264  0  0  0.019533  0  3.845027  0  -1.255373  0  -0.24644  0.044667  0  3.799816  0
N  N122  1  0.53707554  0.18888347  0.65581426  1  0  -0.070706  0  3.577896  0  0  0.026048  0  3.794993  0  0  0.010727  0  3.822101  0  -1.206589  0  -0.245443  0.036208  0  3.776532  0
N  N123  1  0.46292449  0.81111061  0.34418322  1  0  -0.070784  0  3.5779  0  0  0.026016  0  3.794979  0  0  0.010699  0  3.822094  0  -1.206681  0  -0.245407  0.036175  0  3.77652  0
N  N124  1  0.60417212  0.04425369  0.77910400  1  0  -0.372015  0  3.231629  0  0  -0.297087  0  3.508353  0  0  -0.318265  0  3.526575  0  -1.193973  0  -0.352025  -0.282646  0  3.495723  0
N  N125  1  0.39582320  0.95574374  0.22089837  1  0  -0.371689  0  3.231567  0  0  -0.296732  0  3.508225  0  0  -0.317912  0  3.526452  0  -1.194148  0  -0.351824  -0.282293  0  3.49559  0
N  N126  1  0.84303677  0.31154105  0.13753834  1  0  -0.33018  0  3.068502  0  0  -0.299878  0  3.336013  0  0  -0.310325  0  3.349689  0  -1.193671  0  -0.316843  -0.29272  0  3.327128  0
N  N127  1  0.15695794  0.68846057  0.86245875  1  0  -0.330128  0  3.068372  0  0  -0.299832  0  3.335856  0  0  -0.310277  0  3.349528  0  -1.19376  0  -0.316811  -0.292673  0  3.326975  0
N  N128  1  0.60162153  0.16537571  0.29826378  1  0  -0.314536  0  3.074684  0  0  -0.279258  0  3.340575  0  0  -0.290892  0  3.356055  0  -1.180048  0  -0.304755  -0.271168  0  3.330124  0
N  N129  1  0.39836872  0.83462758  0.70173312  1  0  -0.314575  0  3.074736  0  0  -0.279276  0  3.340598  0  0  -0.290917  0  3.356081  0  -1.180086  0  -0.304755  -0.271185  0  3.330142  0
O  O130  1  0.49873197  0.13604424  0.05133555  1  0  -0.649173  0  1.993643  0  0  -0.577078  0  2.225834  0  0  -0.607222  0  2.216635  0  -1.170271  0  -0.31464  -0.555411  0  2.231048  0
O  O131  1  0.50126250  0.86395905  0.94866585  1  0  -0.649134  0  1.993597  0  0  -0.577017  0  2.225773  0  0  -0.607161  0  2.21657  0  -1.170252  0  -0.314591  -0.555358  0  2.230993  0
O  O132  1  0.36428974  0.26487003  0.12538706  1  0  -0.616834  0  1.923811  0  0  -0.562845  0  2.157245  0  0  -0.589768  0  2.147059  0  -1.155162  0  -0.318186  -0.543932  0  2.164095  0
O  O133  1  0.63571398  0.73513494  0.87461539  1  0  -0.61684  0  1.923749  0  0  -0.562845  0  2.157194  0  0  -0.589765  0  2.147005  0  -1.155174  0  -0.318187  -0.543933  0  2.164046  0
O  O134  1  0.96348815  0.06359566  0.12211781  1  0  -0.655929  0  1.991512  0  0  -0.59436  0  2.222681  0  0  -0.622985  0  2.214322  0  -1.185497  0  -0.317179  -0.573758  0  2.227444  0
O  O135  1  0.03649246  0.93643026  0.87787472  1  0  -0.655724  0  1.991387  0  0  -0.594209  0  2.222604  0  0  -0.622825  0  2.214257  0  -1.18584  0  -0.317045  -0.573619  0  2.227381  0
O  O136  1  0.09939557  0.09777771  0.24837535  1  0  -0.638489  0  1.932183  0  0  -0.577918  0  2.170646  0  0  -0.606366  0  2.158798  0  -1.154613  0  -0.338857  -0.558051  0  2.178609  0
O  O137  1  0.90060922  0.90222726  0.75161638  1  0  -0.638398  0  1.931955  0  0  -0.577803  0  2.170349  0  0  -0.60625  0  2.15853  0  -1.155194  0  -0.338755  -0.557933  0  2.178298  0
O  O138  1  0.24574180  0.93547054  0.01920025  1  0  -0.859033  0  1.856028  0  0  -0.801371  0  2.061449  0  0  -0.823462  0  2.025825  0  -1.292384  0  -0.601152  -0.785579  0  2.086289  0
O  O139  1  0.75425490  0.06453192  0.98080201  1  0  -0.858986  0  1.855995  0  0  -0.801328  0  2.061396  0  0  -0.823418  0  2.02578  0  -1.292218  0  -0.601159  -0.785552  0  2.086268  0
