# generated using pymatgen
data_CdH6C8(NCl)4
_symmetry_space_group_name_H-M   'P 1'
_cell_length_a   3.77259177
_cell_length_b   10.21932055
_cell_length_c   16.19401649
_cell_angle_alpha   89.99966891
_cell_angle_beta   89.99979717
_cell_angle_gamma   92.91686655
_symmetry_Int_Tables_number   1
_chemical_formula_structural   CdH6C8(NCl)4
_chemical_formula_sum   'Cd2 H12 C16 N8 Cl8'
_cell_volume   623.52430149
_cell_formula_units_Z   2
loop_
 _symmetry_equiv_pos_site_id
 _symmetry_equiv_pos_as_xyz
  1  'x, y, z'
loop_
 _atom_site_type_symbol
 _atom_site_label
 _atom_site_symmetry_multiplicity
 _atom_site_fract_x
 _atom_site_fract_y
 _atom_site_fract_z
 _atom_site_occupancy
 _atom_site_hle17_bader_spin_density
 _atom_site_hle17_ddec_charge
 _atom_site_hle17_ddec_spin_density
 _atom_site_hle17_ddec_sum_bond_order
 _atom_site_hle17_magmom
 _atom_site_hse06_10hf_bader_spin_density
 _atom_site_hse06_10hf_ddec_charge
 _atom_site_hse06_10hf_ddec_spin_density
 _atom_site_hse06_10hf_ddec_sum_bond_order
 _atom_site_hse06_10hf_magmom
 _atom_site_hse06_bader_spin_density
 _atom_site_hse06_ddec_charge
 _atom_site_hse06_ddec_spin_density
 _atom_site_hse06_ddec_sum_bond_order
 _atom_site_hse06_magmom
 _atom_site_pbe_bader_spin_density
 _atom_site_pbe_cm5_charge
 _atom_site_pbe_ddec_charge
 _atom_site_pbe_ddec_spin_density
 _atom_site_pbe_ddec_sum_bond_order
 _atom_site_pbe_magmom
Cd  Cd0  1  0.50000833  0.50000230  0.50000081  1  0  0.922602  0  1.98972  0  0  0.757904  0  2.44341  0  0  0.803995  0  2.404912  0  0  0.584742  0.727292  0  2.466961  0
Cd  Cd1  1  0.50000167  0.99999987  0.00000100  1  0  0.922645  0  1.989677  0  0  0.757937  0  2.44338  0  0  0.804029  0  2.404879  0  0  0.584762  0.727323  0  2.466932  0
H  H2  1  0.25281780  0.18997884  0.48303782  1  0  0.099758  0  0.97216  0  0  0.098667  0  1.051653  0  0  0.102634  0  1.048309  0  0  0.099891  0.095704  0  1.054263  0
H  H3  1  0.74718349  0.31002373  0.98303315  1  0  0.099738  0  0.972186  0  0  0.098665  0  1.051646  0  0  0.102631  0  1.048306  0  0  0.099912  0.095703  0  1.054255  0
H  H4  1  0.74718879  0.81002875  0.51696441  1  0  0.099718  0  0.972165  0  0  0.098635  0  1.051666  0  0  0.102604  0  1.048321  0  0  0.09988  0.095671  0  1.054283  0
H  H5  1  0.25281080  0.68997412  0.01696599  1  0  0.09973  0  0.972182  0  0  0.09866  0  1.051666  0  0  0.102626  0  1.048326  0  0  0.099887  0.095697  0  1.054277  0
H  H6  1  0.70130224  0.44179296  0.30527766  1  0  0.100655  0  0.969009  0  0  0.096973  0  1.051173  0  0  0.101077  0  1.047069  0  0  0.109187  0.09366  0  1.054575  0
H  H7  1  0.29870519  0.05820146  0.80527743  1  0  0.100683  0  0.96901  0  0  0.097065  0  1.05109  0  0  0.101137  0  1.047014  0  0  0.10923  0.093743  0  1.05453  0
H  H8  1  0.29869256  0.55820784  0.69472086  1  0  0.100704  0  0.968951  0  0  0.097018  0  1.051117  0  0  0.101131  0  1.047015  0  0  0.109204  0.093704  0  1.054529  0
H  H9  1  0.70130961  0.94179237  0.19472295  1  0  0.100628  0  0.968992  0  0  0.096983  0  1.051112  0  0  0.101085  0  1.04701  0  0  0.109192  0.093664  0  1.05454  0
H  H10  1  0.74405219  0.24930549  0.20646063  1  0  0.090951  0  0.965923  0  0  0.091933  0  1.039187  0  0  0.095259  0  1.036959  0  0  0.100828  0.089586  0  1.040835  0
H  H11  1  0.25594803  0.25068596  0.70645788  1  0  0.090936  0  0.965849  0  0  0.091913  0  1.039128  0  0  0.095241  0  1.036895  0  0  0.100836  0.089566  0  1.040784  0
H  H12  1  0.25592159  0.75069638  0.79353851  1  0  0.091014  0  0.965933  0  0  0.091954  0  1.039212  0  0  0.095284  0  1.036976  0  0  0.100855  0.089607  0  1.040864  0
H  H13  1  0.74406643  0.74930591  0.29354002  1  0  0.090982  0  0.965956  0  0  0.091943  0  1.039218  0  0  0.095271  0  1.036987  0  0  0.100884  0.089596  0  1.04087  0
C  C14  1  0.38544086  0.09966286  0.36507583  1  0  0.228096  0  3.824793  0  0  0.226556  0  4.104441  0  0  0.232776  0  4.122134  0  0  0.140215  0.221657  0  4.093118  0
C  C15  1  0.61455264  0.40033204  0.86507343  1  0  0.228398  0  3.824569  0  0  0.226761  0  4.104347  0  0  0.232982  0  4.122038  0  0  0.140208  0.221849  0  4.093042  0
C  C16  1  0.61454915  0.90034089  0.63492516  1  0  0.228341  0  3.824638  0  0  0.226754  0  4.104357  0  0  0.232974  0  4.122048  0  0  0.140329  0.22185  0  4.093039  0
C  C17  1  0.38545139  0.59966087  0.13492633  1  0  0.228411  0  3.824655  0  0  0.226775  0  4.104457  0  0  0.232996  0  4.122148  0  0  0.140301  0.221874  0  4.093135  0
C  C18  1  0.36306023  0.20308954  0.42121491  1  0  0.014954  0  3.685011  0  0  -0.022754  0  3.943907  0  0  -0.021141  0  3.962479  0  0  0.037541  -0.023789  0  3.931899  0
C  C19  1  0.63693895  0.29691166  0.92120916  1  0  0.014801  0  3.685211  0  0  -0.022893  0  3.94413  0  0  -0.021283  0  3.962708  0  0  0.037495  -0.023912  0  3.932106  0
C  C20  1  0.63693824  0.79691711  0.57878855  1  0  0.014831  0  3.685194  0  0  -0.022885  0  3.944117  0  0  -0.021274  0  3.96269  0  0  0.037465  -0.023906  0  3.932102  0
C  C21  1  0.36306295  0.70308419  0.07878937  1  0  0.014776  0  3.685224  0  0  -0.022952  0  3.944195  0  0  -0.02134  0  3.962769  0  0  0.037466  -0.023983  0  3.932184  0
C  C22  1  0.61348003  0.34233843  0.32275718  1  0  0.071987  0  3.649771  0  0  0.037907  0  3.909579  0  0  0.041456  0  3.92631  0  0  0.044283  0.035643  0  3.898496  0
C  C23  1  0.38652800  0.15766072  0.82275341  1  0  0.071913  0  3.649866  0  0  0.037717  0  3.90978  0  0  0.041296  0  3.92653  0  0  0.044253  0.035441  0  3.89871  0
C  C24  1  0.38651032  0.65766728  0.67724505  1  0  0.072058  0  3.64971  0  0  0.037973  0  3.909468  0  0  0.041513  0  3.926189  0  0  0.044371  0.03571  0  3.898401  0
C  C25  1  0.61348697  0.84233409  0.17724634  1  0  0.07213  0  3.64959  0  0  0.037998  0  3.909384  0  0  0.041552  0  3.926117  0  0  0.044378  0.035727  0  3.898315  0
C  C26  1  0.63348392  0.23694551  0.26842495  1  0  0.093787  0  3.664409  0  0  0.07157  0  3.925417  0  0  0.072818  0  3.942525  0  0  0.051825  0.070353  0  3.914601  0
C  C27  1  0.36651806  0.26304535  0.76842329  1  0  0.093941  0  3.664512  0  0  0.071765  0  3.925489  0  0  0.073012  0  3.94259  0  0  0.051898  0.070552  0  3.914681  0
C  C28  1  0.36650079  0.76305827  0.73157481  1  0  0.093729  0  3.664862  0  0  0.071608  0  3.925747  0  0  0.072852  0  3.942858  0  0  0.05183  0.070393  0  3.914932  0
C  C29  1  0.63349358  0.73694555  0.23157647  1  0  0.093806  0  3.664642  0  0  0.071675  0  3.925547  0  0  0.072921  0  3.942654  0  0  0.051833  0.070456  0  3.914738  0
N  N30  1  0.52146911  0.11503811  0.28997702  1  0  -0.284394  0  3.069658  0  0  -0.253973  0  3.331978  0  0  -0.26225  0  3.346934  0  0  -0.294095  -0.248076  0  3.322526  0
N  N31  1  0.47852530  0.38495651  0.78997171  1  0  -0.284603  0  3.069668  0  0  -0.254143  0  3.331977  0  0  -0.262418  0  3.346934  0  0  -0.294158  -0.248243  0  3.322532  0
N  N32  1  0.47850450  0.88496279  0.71002459  1  0  -0.284573  0  3.069811  0  0  -0.254152  0  3.33209  0  0  -0.262425  0  3.347035  0  0  -0.294243  -0.248252  0  3.322641  0
N  N33  1  0.52148703  0.61503831  0.21002558  1  0  -0.284629  0  3.069744  0  0  -0.254186  0  3.332032  0  0  -0.262462  0  3.346986  0  0  -0.294265  -0.248284  0  3.322572  0
N  N34  1  0.48044135  0.32383936  0.39910955  1  0  -0.255745  0  3.261615  0  0  -0.181031  0  3.516839  0  0  -0.197384  0  3.539577  0  0  -0.306728  -0.170223  0  3.500479  0
N  N35  1  0.51956294  0.17615909  0.89910683  1  0  -0.2557  0  3.261422  0  0  -0.180959  0  3.516664  0  0  -0.197307  0  3.539386  0  0  -0.306712  -0.170143  0  3.5003  0
N  N36  1  0.51956456  0.67616432  0.60088959  1  0  -0.25573  0  3.261303  0  0  -0.181047  0  3.51658  0  0  -0.197396  0  3.539312  0  0  -0.306724  -0.170242  0  3.500231  0
N  N37  1  0.48044194  0.82383871  0.10089231  1  0  -0.255782  0  3.261203  0  0  -0.18107  0  3.516464  0  0  -0.197421  0  3.539196  0  0  -0.306736  -0.170257  0  3.500108  0
Cl  Cl38  1  0.01604839  0.62402408  0.41781613  1  0  -0.536441  0  1.019847  0  0  -0.471411  0  1.308248  0  0  -0.489521  0  1.28787  0  0  -0.296674  -0.459191  0  1.320828  0
Cl  Cl39  1  0.98395904  0.87597694  0.91781717  1  0  -0.536438  0  1.01982  0  0  -0.471403  0  1.308207  0  0  -0.489514  0  1.287825  0  0  -0.29668  -0.459183  0  1.320789  0
Cl  Cl40  1  0.98396580  0.37598152  0.58218610  1  0  -0.536421  0  1.019835  0  0  -0.471394  0  1.308242  0  0  -0.489504  0  1.287868  0  0  -0.296667  -0.459172  0  1.320824  0
Cl  Cl41  1  0.01603824  0.12402286  0.08218444  1  0  -0.536431  0  1.019817  0  0  -0.471409  0  1.308218  0  0  -0.48952  0  1.28784  0  0  -0.296677  -0.459186  0  1.320798  0
Cl  Cl42  1  0.23450053  0.94334647  0.39345397  1  0  -0.084904  0  1.407706  0  0  -0.073391  0  1.66438  0  0  -0.077727  0  1.66003  0  0  0.021348  -0.068974  0  1.666824  0
Cl  Cl43  1  0.76548059  0.55665393  0.89344898  1  0  -0.085019  0  1.407631  0  0  -0.07346  0  1.664285  0  0  -0.077796  0  1.659935  0  0  0.021341  -0.069036  0  1.666735  0
Cl  Cl44  1  0.76548452  0.05665927  0.60654887  1  0  -0.084944  0  1.407642  0  0  -0.073405  0  1.664309  0  0  -0.077743  0  1.65996  0  0  0.021344  -0.068984  0  1.666756  0
Cl  Cl45  1  0.23451618  0.44334293  0.10654954  1  0  -0.084946  0  1.407639  0  0  -0.073389  0  1.664306  0  0  -0.077725  0  1.659954  0  0  0.021349  -0.068981  0  1.666752  0
