# generated using pymatgen
data_Al6H62C84O37
_symmetry_space_group_name_H-M   'P 1'
_cell_length_a   13.43344257
_cell_length_b   13.64165028
_cell_length_c   27.48836322
_cell_angle_alpha   89.54435877
_cell_angle_beta   90.19844734
_cell_angle_gamma   59.05600505
_symmetry_Int_Tables_number   1
_chemical_formula_structural   Al6H62C84O37
_chemical_formula_sum   'Al6 H62 C84 O37'
_cell_volume   4320.09131467
_cell_formula_units_Z   1
loop_
 _symmetry_equiv_pos_site_id
 _symmetry_equiv_pos_as_xyz
  1  'x, y, z'
loop_
 _atom_site_type_symbol
 _atom_site_label
 _atom_site_symmetry_multiplicity
 _atom_site_fract_x
 _atom_site_fract_y
 _atom_site_fract_z
 _atom_site_occupancy
 _atom_site_pbe_bader_charge
 _atom_site_pbe_bader_spin_density
 _atom_site_pbe_cm5_charge
 _atom_site_pbe_ddec_charge
 _atom_site_pbe_ddec_spin_density
 _atom_site_pbe_ddec_sum_bond_order
 _atom_site_pbe_magmom
Al  Al0  1  0.84511843  0.56895044  0.49570047  1  2.49562  0  0.397529  1.690221  0  2.54784  0
Al  Al1  1  0.59611963  0.59040305  0.49725129  1  2.479381  0  0.502228  1.656699  0  2.522306  0
Al  Al2  1  0.60220510  0.80667863  0.49855282  1  2.478885  0  0.503956  1.659098  0  2.513096  0
Al  Al3  1  0.83455077  0.07367431  0.98716641  1  2.492521  0  0.395298  1.684634  0  2.557002  0
Al  Al4  1  0.07499361  0.07197821  0.98320347  1  2.483409  0  0.503603  1.662237  0  2.51142  0
Al  Al5  1  0.08724262  0.84638157  0.98550126  1  2.477905  0  0.505545  1.66013  0  2.51038  0
H  H6  1  0.37356356  0.96241061  0.20339906  1  0.032821  0  0.097848  0.102331  0  0.967217  0
H  H7  1  0.45446137  0.92992230  0.62677128  1  0.113682  0  0.112283  0.115437  0  0.994605  0
H  H8  1  0.93970212  0.60586596  0.62936779  1  0.098333  0  0.112741  0.117407  0  0.992393  0
H  H9  1  0.61413916  0.42810308  0.62475489  1  0.103844  0  0.108541  0.111973  0  0.996823  0
H  H10  1  0.37120186  0.66703030  0.78049026  1  0.070674  0  0.104135  0.102805  0  1.002524  0
H  H11  1  0.68326368  0.95143580  0.78216235  1  0.075661  0  0.10127  0.099009  0  1.006486  0
H  H12  1  0.97892089  0.33034887  0.77082441  1  0.042225  0  0.101651  0.099855  0  1.007055  0
H  H13  1  0.31347617  0.69632377  0.86734612  1  0.061416  0  0.112357  0.115029  0  0.985437  0
H  H14  1  0.71924097  0.97708108  0.86890580  1  0.105031  0  0.114207  0.118623  0  0.984184  0
H  H15  1  0.00936989  0.27933851  0.85906288  1  0.086616  0  0.109578  0.111356  0  0.990618  0
H  H16  1  0.39667805  0.95766115  0.71355333  1  0.063115  0  0.102367  0.099904  0  1.007409  0
H  H17  1  0.97741217  0.65543400  0.20127037  1  0.062138  0  0.096148  0.101301  0  0.974529  0
H  H18  1  0.97680543  0.63553192  0.71529366  1  0.068568  0  0.100495  0.097857  0  1.008332  0
H  H19  1  0.65577322  0.35621779  0.71042715  1  0.077948  0  0.099472  0.096309  0  1.01141  0
H  H20  1  0.25221720  0.02597174  0.76562104  1  0.077983  0  0.103266  0.101134  0  1.006986  0
H  H21  1  0.04961456  0.71455047  0.76428620  1  0.050216  0  0.100434  0.098374  0  1.009181  0
H  H22  1  0.74327826  0.20482211  0.76143323  1  0.058251  0  0.101319  0.099859  0  1.007008  0
H  H23  1  0.20274045  0.05209490  0.85326287  1  0.084162  0  0.110789  0.113429  0  1.002718  0
H  H24  1  0.08269375  0.73521816  0.85176989  1  0.101353  0  0.106499  0.108664  0  1.006972  0
H  H25  1  0.76825532  0.16209574  0.85041178  1  0.102701  0  0.110103  0.11361  0  1.002652  0
H  H26  1  0.31029544  0.69461632  0.70246026  1  0.05251  0  0.10271  0.100129  0  1.005267  0
H  H27  1  0.70502175  0.98952426  0.70319237  1  0.071172  0  0.100325  0.097363  0  1.009038  0
H  H28  1  0.68660149  0.35200111  0.18457789  1  0.045877  0  0.098875  0.105214  0  0.969117  0
H  H29  1  0.01228238  0.26504890  0.69331445  1  0.023784  0  0.100511  0.097645  0  1.007572  0
H  H30  1  0.45211157  0.90336032  0.28251234  1  0.059017  0  0.099356  0.108918  0  0.987728  0
H  H31  1  0.97668309  0.66313898  0.28734737  1  0.020458  0  0.097138  0.102143  0  0.965484  0
H  H32  1  0.66225689  0.35607911  0.27017930  1  0.017651  0  0.097139  0.101998  0  0.966757  0
H  H33  1  0.37493126  0.66346899  0.61645868  1  0.08785  0  0.112655  0.115892  0  0.985578  0
H  H34  1  0.66574781  0.95671697  0.61806368  1  0.111439  0  0.110261  0.113434  0  0.990328  0
H  H35  1  0.96700200  0.34326757  0.60832090  1  0.130065  0  0.116584  0.122875  0  0.982877  0
H  H36  1  0.16106107  0.92540522  0.30159646  1  0.045723  0  0.097111  0.098506  0  0.977223  0
H  H37  1  0.87301512  0.97209053  0.29538188  1  0.062767  0  0.093709  0.093593  0  0.996107  0
H  H38  1  0.97947166  0.17099376  0.29754695  1  0.039781  0  0.095273  0.09605  0  0.991949  0
H  H39  1  0.52480422  0.75810791  0.26749075  1  0.035979  0  0.10045  0.110151  0  0.972794  0
H  H40  1  0.22666917  0.00728093  0.29105815  1  0.04067  0  0.098513  0.102555  0  0.97255  0
H  H41  1  0.99051323  0.83542166  0.31208150  1  0.020922  0  0.098588  0.102069  0  0.977461  0
H  H42  1  0.84631779  0.17524028  0.30393905  1  0.046265  0  0.097415  0.099993  0  0.982996  0
H  H43  1  0.16623501  0.02234879  0.20997114  1  0.087835  0  0.097261  0.109203  0  1.005557  0
H  H44  1  0.04919205  0.78732232  0.23029436  1  0.049454  0  0.092113  0.094857  0  1.002979  0
H  H45  1  0.82815914  0.15774908  0.21934855  1  0.061339  0  0.094773  0.105885  0  1.01002  0
H  H46  1  0.12970240  0.91574091  0.21833872  1  0.049442  0  0.09502  0.095804  0  1.02277  0
H  H47  1  0.96250048  0.93610947  0.21931039  1  0.047162  0  0.097921  0.10311  0  1.003965  0
H  H48  1  0.97835658  0.10614980  0.21867801  1  0.046343  0  0.096198  0.100354  0  1.017355  0
H  H49  1  0.26675398  0.72406218  0.28224061  1  0.038688  0  0.110519  0.066907  0  0.951905  0
H  H50  1  0.83993805  0.67530681  0.28197197  1  0.087753  0  0.10024  0.115014  0  1.012616  0
H  H51  1  0.67557484  0.00137511  0.28225599  1  0.035516  0  0.101843  0.048774  0  0.968294  0
H  H52  1  0.97920340  0.35748184  0.29069655  1  0.056031  0  0.10664  0.055981  0  0.957491  0
H  H53  1  0.27697918  0.62873353  0.20639617  1  0.591117  0  0.3329  0.370002  0  0.875764  0
H  H54  1  0.66568942  0.10161499  0.21078007  1  0.595768  0  0.330755  0.363736  0  0.881485  0
H  H55  1  0.11114546  0.26251378  0.23187977  1  0.587404  0  0.330276  0.362475  0  0.884075  0
H  H56  1  0.49876939  0.58313089  0.26096456  1  0.605642  0  0.301813  0.338074  0  0.976225  0
H  H57  1  0.61683243  0.88069184  0.23068767  1  0.62269  0  0.309819  0.348192  0  0.946721  0
H  H58  1  0.85504649  0.52648891  0.23191719  1  0.627434  0  0.310998  0.349132  0  0.942942  0
H  H59  1  0.44905842  0.64730276  0.16018106  1  0.589432  0  0.335337  0.378152  0  0.871471  0
H  H60  1  0.69844923  0.93197610  0.14613802  1  0.620765  0  0.329526  0.380971  0  0.878665  0
H  H61  1  0.66267514  0.48602251  0.26728277  1  0.039679  0  0.098949  0.099258  0  1.016471  0
H  H62  1  0.95234923  0.38802761  0.15124108  1  0.605612  0  0.323403  0.37033  0  0.895926  0
H  H63  1  0.48066965  0.82264204  0.18630133  1  0.037717  0  0.093771  0.092955  0  0.991782  0
H  H64  1  0.82542054  0.71570354  0.19774083  1  0.053017  0  0.092629  0.090092  0  0.995598  0
H  H65  1  0.72411247  0.45855811  0.18669039  1  0.026468  0  0.092329  0.092356  0  0.995328  0
H  H66  1  0.03804285  0.51000828  0.51624693  1  0.544093  0  0.285584  0.374536  0  0.936823  0
H  H67  1  0.64055164  0.19839339  0.96410897  1  0.571465  0  0.287214  0.375555  0  0.934659  0
C  C68  1  0.76275155  0.78346768  0.43167556  1  1.622253  0  0.278822  0.71795  0  4.154934  0
C  C69  1  0.28464880  0.86333618  0.14430744  1  -0.541598  0  -0.004568  0.023958  0  3.991208  0
C  C70  1  0.90185018  0.84347984  0.14948341  1  -0.226395  0  -0.012301  -0.003296  0  4.018557  0
C  C71  1  0.89046238  0.25733979  0.14562210  1  -0.320497  0  -0.013889  -0.008715  0  4.029794  0
C  C72  1  0.37338476  0.81064390  0.34236103  1  -0.368186  0  0.001258  0.030406  0  3.967111  0
C  C73  1  0.80770602  0.83079338  0.34402078  1  -0.523299  0  -0.010294  0.003678  0  3.980478  0
C  C74  1  0.80369608  0.37266262  0.33894913  1  -0.478225  0  -0.011778  -0.002323  0  3.993966  0
C  C75  1  0.40081754  0.79916554  0.38515849  1  0.153311  0  -0.045481  -0.225839  0  3.937605  0
C  C76  1  0.78852729  0.81703992  0.38592553  1  0.282092  0  -0.04457  -0.214218  0  3.948733  0
C  C77  1  0.78418335  0.40450649  0.38079491  1  0.210342  0  -0.042593  -0.210932  0  3.954726  0
C  C78  1  0.91718208  0.19655473  0.05336560  1  1.661125  0  0.278319  0.716843  0  4.162856  0
C  C79  1  0.76208651  0.45920439  0.42724461  1  1.669357  0  0.283368  0.72077  0  4.152232  0
C  C80  1  0.21751908  0.89517643  0.05233085  1  1.622764  0  0.283547  0.730707  0  4.1416  0
C  C81  1  0.92753083  0.87626349  0.05658049  1  1.681273  0  0.281016  0.715866  0  4.161232  0
C  C82  1  0.41752614  0.79562254  0.61620425  1  -0.019224  0  -0.012662  -0.048714  0  3.973538  0
C  C83  1  0.80065543  0.77932256  0.61872796  1  -0.044645  0  -0.014858  -0.046652  0  3.97722  0
C  C84  1  0.78824653  0.39015635  0.61190409  1  -0.110823  0  -0.014002  -0.042752  0  3.979207  0
C  C85  1  0.42160707  0.87973604  0.64367906  1  -0.049996  0  -0.075266  -0.074502  0  3.968125  0
C  C86  1  0.88961016  0.68954945  0.64608520  1  0.034848  0  -0.077859  -0.078738  0  3.975451  0
C  C87  1  0.70114302  0.39120618  0.64018943  1  0.02559  0  -0.079271  -0.083597  0  3.985848  0
C  C88  1  0.38844743  0.89520377  0.69215935  1  -0.053673  0  -0.087048  -0.132875  0  3.978096  0
C  C89  1  0.91021909  0.70703994  0.69384116  1  -0.12045  0  -0.090284  -0.134606  0  3.990377  0
C  C90  1  0.45706881  0.76969535  0.43191167  1  1.604401  0  0.287501  0.735968  0  4.13329  0
C  C91  1  0.72520931  0.35022048  0.68781371  1  -0.134298  0  -0.09179  -0.136472  0  3.993418  0
C  C92  1  0.34900491  0.82833566  0.71458964  1  0.025407  0  0.000832  0.078927  0  3.982417  0
C  C93  1  0.84334335  0.81465966  0.71559472  1  -0.025338  0  -0.002556  0.074155  0  3.997055  0
C  C94  1  0.83664544  0.30662715  0.70814457  1  0.038842  0  -0.002698  0.073674  0  4.001088  0
C  C95  1  0.77500048  0.75555232  0.56894114  1  1.566381  0  0.267987  0.637098  0  4.100761  0
C  C96  1  0.76024756  0.44716336  0.56337657  1  1.570362  0  0.269192  0.630838  0  4.104758  0
C  C97  1  0.46526512  0.77145989  0.56615965  1  1.553004  0  0.275986  0.643603  0  4.086956  0
C  C98  1  0.34325111  0.74562500  0.68633907  1  -0.097208  0  -0.086835  -0.132493  0  3.974829  0
C  C99  1  0.75568154  0.90466665  0.68748115  1  -0.053846  0  -0.090386  -0.134995  0  3.986433  0
C  C100  1  0.92444875  0.30203132  0.67868205  1  0.007108  0  -0.089595  -0.135041  0  3.990058  0
C  C101  1  0.34135772  0.72683713  0.21298904  1  0.957211  0  0.151417  0.398241  0  3.85384  0
C  C102  1  0.37781685  0.72873994  0.63797889  1  0.032419  0  -0.07414  -0.075682  0  3.969761  0
C  C103  1  0.73405333  0.88725090  0.63974513  1  -0.026073  0  -0.079308  -0.08361  0  3.985895  0
C  C104  1  0.90053048  0.34395646  0.63121939  1  -0.049756  0  -0.073928  -0.076555  0  3.967798  0
C  C105  1  0.33258322  0.75216309  0.79599523  1  -0.00559  0  -0.086785  -0.132121  0  3.971676  0
C  C106  1  0.77139532  0.90541480  0.79698720  1  -0.09422  0  -0.08948  -0.134325  0  3.984643  0
C  C107  1  0.93443948  0.29117245  0.78791077  1  -0.019826  0  -0.089348  -0.135536  0  3.983475  0
C  C108  1  0.30207617  0.76759186  0.84482636  1  -0.02888  0  -0.075628  -0.07815  0  3.978907  0
C  C109  1  0.79045354  0.91892007  0.84554075  1  -0.020035  0  -0.076316  -0.079711  0  3.976602  0
C  C110  1  0.95046222  0.26449935  0.83730213  1  -0.015213  0  -0.080316  -0.082856  0  3.993542  0
C  C111  1  0.24092091  0.96789604  0.83698276  1  0.008045  0  -0.075969  -0.075264  0  3.969158  0
C  C112  1  0.75197597  0.93583520  0.21172415  1  0.950209  0  0.151515  0.400083  0  3.861973  0
C  C113  1  0.99547669  0.78152368  0.83613666  1  -0.083852  0  -0.080767  -0.082924  0  3.983627  0
C  C114  1  0.81326269  0.19960489  0.83243192  1  -0.035015  0  -0.078493  -0.078535  0  3.973989  0
C  C115  1  0.26941354  0.95244660  0.78799961  1  -0.065269  0  -0.086246  -0.13019  0  3.974585  0
C  C116  1  0.97629072  0.76988948  0.78735172  1  0.00221  0  -0.089796  -0.135018  0  3.986059  0
C  C117  1  0.79933034  0.22421790  0.78290910  1  -0.052443  0  -0.088818  -0.134453  0  3.984057  0
C  C118  1  0.31652963  0.84427735  0.76648123  1  -0.065778  0  0.004362  0.080952  0  3.979615  0
C  C119  1  0.86389196  0.83072718  0.76690493  1  -0.020531  0  -0.000143  0.07701  0  3.994592  0
C  C120  1  0.85805636  0.27224954  0.75986405  1  -0.027867  0  7.9e-05  0.079505  0  3.993199  0
C  C121  1  0.25663586  0.87561539  0.86588555  1  0.007165  0  -0.015663  -0.055095  0  3.985995  0
C  C122  1  0.90264680  0.85634068  0.86562028  1  0.017305  0  -0.016804  -0.049761  0  3.982996  0
C  C123  1  0.94767865  0.32981417  0.21574616  1  0.959273  0  0.150083  0.393282  0  3.870723  0
C  C124  1  0.88854176  0.22016157  0.86007282  1  -0.011069  0  -0.018029  -0.054604  0  3.993109  0
C  C125  1  0.90613698  0.18783722  0.91235900  1  1.53487  0  0.26932  0.640379  0  4.099426  0
C  C126  1  0.21458807  0.89635449  0.91667328  1  1.546223  0  0.276934  0.646113  0  4.085759  0
C  C127  1  0.92348537  0.87692790  0.91660202  1  1.551535  0  0.269655  0.637646  0  4.095189  0
C  C128  1  0.44113361  0.83854442  0.26408684  1  -0.004774  0  -0.158722  -0.199593  0  3.852049  0
C  C129  1  0.88947509  0.71520513  0.27130751  1  -0.008877  0  -0.158278  -0.200505  0  3.85526  0
C  C130  1  0.71236673  0.39506439  0.25848480  1  0.013006  0  -0.155367  -0.191277  0  3.856273  0
C  C131  1  0.22650637  0.93041843  0.27958384  1  -0.038539  0  -0.151014  -0.186644  0  3.852624  0
C  C132  1  0.91771626  0.88087538  0.28634729  1  -0.029523  0  -0.153519  -0.197018  0  3.863566  0
C  C133  1  0.89123200  0.20888112  0.28245718  1  -0.035044  0  -0.153119  -0.195233  0  3.863113  0
C  C134  1  0.34744296  0.71849868  0.26984231  1  0.520428  0  0.002451  0.073894  0  3.804916  0
C  C135  1  0.19743573  0.93629743  0.22470989  1  -0.06012  0  -0.156837  -0.191892  0  3.834389  0
C  C136  1  0.96097807  0.86158976  0.23332424  1  -0.024059  0  -0.155459  -0.174246  0  3.830766  0
C  C137  1  0.89404494  0.17962353  0.22819170  1  -0.026424  0  -0.158151  -0.178809  0  3.826537  0
C  C138  1  0.26554990  0.87367471  0.10068905  1  0.313889  0  -0.048138  -0.229302  0  3.941039  0
C  C139  1  0.91360613  0.84884276  0.10585457  1  -0.064109  0  -0.044407  -0.219704  0  3.948196  0
C  C140  1  0.90150477  0.23936531  0.10214415  1  0.045443  0  -0.044209  -0.215698  0  3.950979  0
C  C141  1  0.34776283  0.82454482  0.29061761  1  0.142206  0  -0.002698  0.104171  0  3.900036  0
C  C142  1  0.83311029  0.83649361  0.29319173  1  0.150816  0  0.001858  0.125009  0  3.88278  0
C  C143  1  0.82678665  0.34033043  0.28836051  1  0.142669  0  0.002442  0.123569  0  3.883246  0
C  C144  1  0.40624911  0.87127757  0.21026368  1  -0.015699  0  -0.155254  -0.182476  0  3.871687  0
C  C145  1  0.71964894  0.91728430  0.26422133  1  0.507724  0  0.002558  0.06434  0  3.817182  0
C  C146  1  0.89434792  0.72353061  0.21556484  1  -0.070107  0  -0.156799  -0.188389  0  3.881086  0
C  C147  1  0.74031203  0.37868079  0.20386106  1  -0.027163  0  -0.155469  -0.188814  0  3.876405  0
C  C148  1  0.30693463  0.84993836  0.19633850  1  0.12501  0  -0.001319  0.059418  0  3.88539  0
C  C149  1  0.87952125  0.84042703  0.20082259  1  0.114718  0  -0.00224  0.062349  0  3.88638  0
C  C150  1  0.86956075  0.28456956  0.19671261  1  0.12455  0  -0.002692  0.062985  0  3.891679  0
C  C151  1  0.90300423  0.38541900  0.26652058  1  0.501142  0  0.005411  0.074068  0  3.789848  0
O  O152  1  0.83487803  0.48541062  0.44152203  1  -1.213487  0  -0.200601  -0.533345  0  2.274833  0
O  O153  1  0.83477851  0.46424149  0.54374373  1  -1.23048  0  -0.213503  -0.563646  0  2.353475  0
O  O154  1  0.48358530  0.67963863  0.54606168  1  -1.257335  0  -0.23203  -0.593366  0  2.306653  0
O  O155  1  0.68234736  0.83449252  0.54750289  1  -1.270755  0  -0.248043  -0.612245  0  2.289428  0
O  O156  1  0.84406763  0.65798976  0.55166736  1  -1.258842  0  -0.221209  -0.583954  0  2.371761  0
O  O157  1  0.65811893  0.47999649  0.54569246  1  -1.275813  0  -0.250062  -0.613829  0  2.284589  0
O  O158  1  0.49090103  0.84190647  0.54719069  1  -1.270658  0  -0.235489  -0.598783  0  2.302827  0
O  O159  1  0.67931110  0.65647324  0.49742659  1  -1.612204  0  -0.391428  -1.26767  0  2.291512  0
O  O160  1  0.00083719  0.99659961  0.98547234  1  -1.613444  0  -0.391192  -1.266139  0  2.285052  0
O  O161  1  0.84493752  0.17097476  0.03819125  1  -1.208151  0  -0.203288  -0.543573  0  2.284311  0
O  O162  1  0.19090481  0.99039693  0.03213161  1  -1.240667  0  -0.228386  -0.590073  0  2.247471  0
O  O163  1  0.48078223  0.67308662  0.45020075  1  -1.249925  0  -0.228904  -0.591528  0  2.238573  0
O  O164  1  0.02013189  0.80329566  0.03408064  1  -1.255685  0  -0.241912  -0.604284  0  2.228834  0
O  O165  1  0.84533448  0.96591135  0.93700583  1  -1.247739  0  -0.218721  -0.575864  0  2.360022  0
O  O166  1  0.99694870  0.17823745  0.93342557  1  -1.276022  0  -0.250126  -0.616296  0  2.282603  0
O  O167  1  0.20096568  0.82029589  0.93800687  1  -1.26891  0  -0.235981  -0.600025  0  2.3022  0
O  O168  1  0.83405667  0.16764236  0.93267401  1  -1.255467  0  -0.223697  -0.587558  0  2.365498  0
O  O169  1  0.18813130  0.99241062  0.93551313  1  -1.27397  0  -0.236179  -0.602011  0  2.307463  0
O  O170  1  0.02279361  0.80427785  0.93614161  1  -1.283365  0  -0.252421  -0.618795  0  2.279119  0
O  O171  1  0.25737287  0.70383497  0.19396657  1  -1.105611  0  -0.387492  -0.54521  0  2.231083  0
O  O172  1  0.74711360  0.04214598  0.20758287  1  -1.107417  0  -0.383354  -0.536399  0  2.251103  0
O  O173  1  0.06269052  0.23433851  0.21916551  1  -1.105972  0  -0.38528  -0.536379  0  2.242751  0
O  O174  1  0.66442678  0.85565427  0.45124832  1  -1.259303  0  -0.245436  -0.609322  0  2.220644  0
O  O175  1  0.44048656  0.61251365  0.28661559  1  -1.11586  0  -0.407255  -0.482408  0  2.21692  0
O  O176  1  0.64683267  0.87058333  0.26398332  1  -1.127923  0  -0.394229  -0.467617  0  2.249948  0
O  O177  1  0.83672952  0.50640714  0.26353640  1  -1.143381  0  -0.393561  -0.46428  0  2.226039  0
O  O178  1  0.45378548  0.64494474  0.19567683  1  -1.101149  0  -0.387068  -0.551062  0  2.240076  0
O  O179  1  0.67094052  0.93372681  0.17929166  1  -1.143251  0  -0.38973  -0.56127  0  2.237629  0
O  O180  1  0.94402489  0.41526173  0.18470949  1  -1.134478  0  -0.391016  -0.558967  0  2.241197  0
O  O181  1  0.84877801  0.97204312  0.04032646  1  -1.218769  0  -0.199978  -0.5301  0  2.280587  0
O  O182  1  0.00660166  0.18387311  0.03020038  1  -1.252448  0  -0.24728  -0.611859  0  2.224766  0
O  O183  1  0.19941856  0.81948303  0.03415067  1  -1.242047  0  -0.230222  -0.59127  0  2.241991  0
O  O184  1  0.83515460  0.68537583  0.44812310  1  -1.212564  0  -0.206678  -0.556363  0  2.281042  0
O  O185  1  0.66910712  0.47975729  0.44948358  1  -1.258251  0  -0.24139  -0.609165  0  2.240908  0
O  O186  1  0.48453356  0.83793049  0.45082435  1  -1.242027  0  -0.227611  -0.592778  0  2.245493  0
O  O187  1  0.99734218  0.48735958  0.49428646  1  -1.338653  0  -0.58159  -0.999887  0  1.799594  0
O  O188  1  0.68260892  0.14519720  0.99035747  1  -1.365198  0  -0.581432  -0.996903  0  1.80011  0
