# generated using pymatgen
data_ZnH17C21N2ClO8
_symmetry_space_group_name_H-M   'P 1'
_cell_length_a   9.47374739
_cell_length_b   9.96661558
_cell_length_c   12.79907257
_cell_angle_alpha   67.81401069
_cell_angle_beta   85.68005160
_cell_angle_gamma   69.50174801
_symmetry_Int_Tables_number   1
_chemical_formula_structural   ZnH17C21N2ClO8
_chemical_formula_sum   'Zn2 H34 C42 N4 Cl2 O16'
_cell_volume   1045.91744117
_cell_formula_units_Z   2
loop_
 _symmetry_equiv_pos_site_id
 _symmetry_equiv_pos_as_xyz
  1  'x, y, z'
loop_
 _atom_site_type_symbol
 _atom_site_label
 _atom_site_symmetry_multiplicity
 _atom_site_fract_x
 _atom_site_fract_y
 _atom_site_fract_z
 _atom_site_occupancy
 _atom_site_hle17_bader_spin_density
 _atom_site_hle17_ddec_charge
 _atom_site_hle17_ddec_spin_density
 _atom_site_hle17_ddec_sum_bond_order
 _atom_site_hle17_magmom
 _atom_site_hse06_10hf_bader_spin_density
 _atom_site_hse06_10hf_ddec_charge
 _atom_site_hse06_10hf_ddec_spin_density
 _atom_site_hse06_10hf_ddec_sum_bond_order
 _atom_site_hse06_10hf_magmom
 _atom_site_hse06_bader_spin_density
 _atom_site_hse06_ddec_charge
 _atom_site_hse06_ddec_spin_density
 _atom_site_hse06_ddec_sum_bond_order
 _atom_site_hse06_magmom
 _atom_site_pbe_bader_spin_density
 _atom_site_pbe_cm5_charge
 _atom_site_pbe_ddec_charge
 _atom_site_pbe_ddec_spin_density
 _atom_site_pbe_ddec_sum_bond_order
 _atom_site_pbe_magmom
Zn  Zn0  1  0.76371746  0.00601414  0.13141953  1  0  1.080063  0  1.740958  0  0  0.894619  0  2.206475  0  0  0.94452  0  2.14697  0  0  0.68784  0.85817  0  2.248757  0
Zn  Zn1  1  0.23628544  0.99398089  0.86858306  1  0  1.080054  0  1.74098  0  0  0.894635  0  2.206501  0  0  0.944539  0  2.146999  0  0  0.687875  0.858191  0  2.248787  0
H  H2  1  0.20001366  0.12016626  0.57108006  1  0  0.400201  0  0.871929  0  0  0.376426  0  0.94304  0  0  0.386407  0  0.931302  0  0  0.309858  0.369385  0  0.951111  0
H  H3  1  0.79998659  0.87983339  0.42892288  1  0  0.400213  0  0.87192  0  0  0.376431  0  0.943046  0  0  0.38641  0  0.93131  0  0  0.309851  0.369385  0  0.951123  0
H  H4  1  0.58297130  0.76632951  0.91027936  1  0  0.299267  0  0.949338  0  0  0.27754  0  1.017884  0  0  0.285312  0  1.013026  0  0  0.302598  0.272189  0  1.02102  0
H  H5  1  0.41702619  0.23366900  0.08972014  1  0  0.299297  0  0.949259  0  0  0.277504  0  1.017903  0  0  0.285274  0  1.01305  0  0  0.302586  0.272154  0  1.021039  0
H  H6  1  0.22627455  0.78997794  0.47751956  1  0  0.104143  0  0.967598  0  0  0.113117  0  1.031756  0  0  0.114585  0  1.03291  0  0  0.100183  0.111886  0  1.031106  0
H  H7  1  0.77371858  0.21002403  0.52247995  1  0  0.10411  0  0.967654  0  0  0.113098  0  1.03179  0  0  0.114565  0  1.032945  0  0  0.100166  0.111868  0  1.031139  0
H  H8  1  0.36013285  0.75890952  0.64838720  1  0  0.115407  0  0.95974  0  0  0.125097  0  1.021591  0  0  0.127989  0  1.020763  0  0  0.103925  0.123092  0  1.022267  0
H  H9  1  0.63986771  0.24109247  0.35160880  1  0  0.115433  0  0.959716  0  0  0.125116  0  1.021573  0  0  0.128009  0  1.020745  0  0  0.103934  0.123112  0  1.022249  0
H  H10  1  0.50882045  0.26322001  0.75207543  1  0  0.111745  0  0.947152  0  0  0.122657  0  1.009018  0  0  0.125421  0  1.008019  0  0  0.102671  0.120647  0  1.009957  0
H  H11  1  0.49117797  0.73678196  0.24792459  1  0  0.111731  0  0.94717  0  0  0.122643  0  1.009049  0  0  0.125406  0  1.00805  0  0  0.102659  0.120633  0  1.009988  0
H  H12  1  0.37085323  0.29589157  0.57982505  1  0  0.110961  0  0.97732  0  0  0.118972  0  1.03975  0  0  0.122047  0  1.037977  0  0  0.09917  0.116813  0  1.040966  0
H  H13  1  0.62914493  0.70410809  0.42017487  1  0  0.110965  0  0.977316  0  0  0.119003  0  1.039712  0  0  0.122079  0  1.037937  0  0  0.099192  0.11684  0  1.040935  0
H  H14  1  0.43162104  0.68392372  0.83211225  1  0  0.096695  0  0.929838  0  0  0.105108  0  0.997466  0  0  0.107204  0  0.995751  0  0  0.113365  0.103745  0  0.998724  0
H  H15  1  0.56838031  0.31607596  0.16788515  1  0  0.096693  0  0.929914  0  0  0.105096  0  0.997559  0  0  0.107189  0  0.995838  0  0  0.113367  0.103732  0  0.998818  0
H  H16  1  0.59255681  0.66601253  0.74877920  1  0  0.08328  0  0.932431  0  0  0.092643  0  1.001051  0  0  0.093484  0  1.000805  0  0  0.108679  0.092094  0  1.001192  0
H  H17  1  0.40744441  0.33399061  0.25121721  1  0  0.083257  0  0.93245  0  0  0.092628  0  1.001059  0  0  0.093462  0  1.000812  0  0  0.108668  0.092079  0  1.001201  0
H  H18  1  0.87336212  0.39716758  0.10810633  1  0  0.128908  0  0.948912  0  0  0.135542  0  1.010558  0  0  0.139168  0  1.007944  0  0  0.114603  0.133022  0  1.012407  0
H  H19  1  0.12663511  0.60282861  0.89189387  1  0  0.128938  0  0.948869  0  0  0.135567  0  1.010528  0  0  0.13919  0  1.007925  0  0  0.114601  0.133052  0  1.012367  0
H  H20  1  0.02558404  0.41611008  0.25053725  1  0  0.107336  0  0.948545  0  0  0.11779  0  1.004817  0  0  0.119716  0  1.005969  0  0  0.109298  0.116299  0  1.004255  0
H  H21  1  0.97441001  0.58388611  0.74946388  1  0  0.107282  0  0.948591  0  0  0.11774  0  1.004851  0  0  0.119659  0  1.006009  0  0  0.109239  0.116256  0  1.004281  0
H  H22  1  0.98022553  0.67567743  0.25873756  1  0  0.080818  0  0.976373  0  0  0.087835  0  1.045588  0  0  0.090398  0  1.042923  0  0  0.108708  0.085785  0  1.047728  0
H  H23  1  0.01977063  0.32431876  0.74126347  1  0  0.080865  0  0.976365  0  0  0.087885  0  1.045561  0  0  0.090447  0  1.042896  0  0  0.108742  0.085838  0  1.047702  0
H  H24  1  0.63797595  0.88871824  0.00414575  1  0  0.099933  0  0.937835  0  0  0.109889  0  1.001251  0  0  0.11268  0  0.99864  0  0  0.125088  0.10773  0  1.003159  0
H  H25  1  0.36202300  0.11127911  0.99585402  1  0  0.099933  0  0.9378  0  0  0.1099  0  1.001185  0  0  0.112695  0  0.998572  0  0  0.125086  0.107739  0  1.003095  0
H  H26  1  0.39384000  0.08748836  0.45288489  1  0  0.122767  0  0.972044  0  0  0.12841  0  1.040575  0  0  0.132771  0  1.037134  0  0  0.105881  0.12521  0  1.043153  0
H  H27  1  0.60616236  0.91251129  0.54711872  1  0  0.12274  0  0.971977  0  0  0.128357  0  1.040549  0  0  0.132718  0  1.037108  0  0  0.105867  0.125158  0  1.043126  0
H  H28  1  0.94128008  0.12457166  0.38189752  1  0  0.12678  0  0.954889  0  0  0.134429  0  1.020168  0  0  0.138042  0  1.01812  0  0  0.109873  0.131532  0  1.022414  0
H  H29  1  0.05872071  0.87543262  0.61810327  1  0  0.126823  0  0.954862  0  0  0.134477  0  1.020127  0  0  0.138091  0  1.018076  0  0  0.109903  0.13158  0  1.022372  0
H  H30  1  0.29482459  0.99369984  0.16960210  1  0  0.098032  0  0.986809  0  0  0.103751  0  1.062057  0  0  0.107629  0  1.058625  0  0  0.10085  0.101041  0  1.064191  0
H  H31  1  0.70517831  0.00630443  0.83039936  1  0  0.098023  0  0.986897  0  0  0.103738  0  1.062152  0  0  0.107619  0  1.058714  0  0  0.100827  0.101023  0  1.064297  0
H  H32  1  0.70545064  0.24814123  0.95322064  1  0  0.432511  0  0.866723  0  0  0.395893  0  0.939338  0  0  0.408187  0  0.921467  0  0  0.293063  0.387486  0  0.951546  0
H  H33  1  0.29455174  0.75185843  0.04678063  1  0  0.432511  0  0.866717  0  0  0.395886  0  0.939339  0  0  0.408181  0  0.921466  0  0  0.293071  0.387481  0  0.951544  0
H  H34  1  0.80601848  0.10362246  0.92009945  1  0  0.437369  0  0.866978  0  0  0.405452  0  0.93191  0  0  0.417131  0  0.915078  0  0  0.290373  0.397118  0  0.943827  0
H  H35  1  0.19398495  0.89637719  0.07990332  1  0  0.437357  0  0.867  0  0  0.405436  0  0.931935  0  0  0.417117  0  0.915102  0  0  0.290361  0.397103  0  0.943852  0
C  C36  1  0.29047036  0.54512046  0.51955621  1  0  0.123772  0  3.806583  0  0  0.134787  0  4.069092  0  0  0.135868  0  4.09126  0  0  0.002625  0.133659  0  4.05381  0
C  C37  1  0.70952317  0.45488035  0.48044361  1  0  0.123792  0  3.806735  0  0  0.134817  0  4.06923  0  0  0.135895  0  4.091403  0  0  0.002623  0.13369  0  4.053946  0
C  C38  1  0.28783039  0.67483038  0.53794993  1  0  -0.100727  0  3.763603  0  0  -0.121147  0  4.011145  0  0  -0.121364  0  4.03255  0  0  -0.09602  -0.120585  0  3.996688  0
C  C39  1  0.71216380  0.32517159  0.46205031  1  0  -0.100648  0  3.763708  0  0  -0.121062  0  4.011201  0  0  -0.121276  0  4.032606  0  0  -0.095959  -0.1205  0  3.996745  0
C  C40  1  0.36470101  0.65637474  0.63434761  1  0  -0.196407  0  3.749066  0  0  -0.214906  0  4.001878  0  0  -0.220876  0  4.022233  0  0  -0.111947  -0.211186  0  3.988584  0
C  C41  1  0.63529955  0.34362725  0.36564916  1  0  -0.196465  0  3.749115  0  0  -0.214996  0  4.001926  0  0  -0.220967  0  4.022283  0  0  -0.11199  -0.211278  0  3.988634  0
C  C42  1  0.44342981  0.50732425  0.71088650  1  0  0.256781  0  3.823073  0  0  0.245074  0  4.088628  0  0  0.255868  0  4.105021  0  0  0.073817  0.237608  0  4.07776  0
C  C43  1  0.55657365  0.49267543  0.28911080  1  0  0.256741  0  3.823096  0  0  0.245113  0  4.088539  0  0  0.255906  0  4.104934  0  0  0.073865  0.237649  0  4.077668  0
C  C44  1  0.44487548  0.37765771  0.69170600  1  0  -0.160271  0  3.747381  0  0  -0.18501  0  4.00868  0  0  -0.190012  0  4.029572  0  0  -0.105945  -0.181597  0  3.994904  0
C  C45  1  0.55512335  0.62234311  0.30829277  1  0  -0.160274  0  3.74747  0  0  -0.185038  0  4.008732  0  0  -0.190041  0  4.029626  0  0  -0.105959  -0.181626  0  3.994955  0
C  C46  1  0.36862125  0.39623565  0.59589606  1  0  -0.119647  0  3.780642  0  0  -0.139723  0  4.030011  0  0  -0.140952  0  4.051748  0  0  -0.100659  -0.138637  0  4.015003  0
C  C47  1  0.63137254  0.60376747  0.40410386  1  0  -0.119658  0  3.780683  0  0  -0.139755  0  4.030046  0  0  -0.140982  0  4.051782  0  0  -0.100678  -0.138669  0  4.015034  0
C  C48  1  0.54101614  0.60244536  0.82239575  1  0  -0.065375  0  3.66747  0  0  -0.125041  0  3.931065  0  0  -0.121039  0  3.933036  0  0  -0.062763  -0.128047  0  3.929912  0
C  C49  1  0.45898801  0.39755549  0.17759805  1  0  -0.065419  0  3.667366  0  0  -0.12511  0  3.93097  0  0  -0.121083  0  3.932914  0  0  -0.06279  -0.128116  0  3.92982  0
C  C50  1  0.64618026  0.54066019  0.92727410  1  0  0.578166  0  3.752322  0  0  0.530328  0  4.04607  0  0  0.558369  0  4.046012  0  0  0.251864  0.511265  0  4.046112  0
C  C51  1  0.35381873  0.45934643  0.07271985  1  0  0.578256  0  3.752503  0  0  0.530433  0  4.046201  0  0  0.55847  0  4.046139  0  0  0.251937  0.51137  0  4.046243  0
C  C52  1  0.74628188  0.64326920  0.04245940  1  0  0.224912  0  3.772761  0  0  0.222168  0  4.020736  0  0  0.226925  0  4.04209  0  0  0.111543  0.21871  0  4.006059  0
C  C53  1  0.25371417  0.35673047  0.95753985  1  0  0.225003  0  3.772712  0  0  0.222256  0  4.020663  0  0  0.227013  0  4.042024  0  0  0.111631  0.218796  0  4.005989  0
C  C54  1  0.85646085  0.50770623  0.11387131  1  0  -0.092294  0  3.64088  0  0  -0.120548  0  3.892273  0  0  -0.119744  0  3.90915  0  0  -0.064777  -0.12082  0  3.880713  0
C  C55  1  0.14353599  0.49229112  0.88612857  1  0  -0.092415  0  3.64092  0  0  -0.120691  0  3.892357  0  0  -0.119892  0  3.909234  0  0  -0.064817  -0.120966  0  3.880792  0
C  C56  1  0.94077203  0.51921486  0.19270557  1  0  -0.082935  0  3.727262  0  0  -0.092563  0  3.977248  0  0  -0.09828  0  3.999883  0  0  -0.074198  -0.089143  0  3.962449  0
C  C57  1  0.05922454  0.48078018  0.80729499  1  0  -0.082814  0  3.727378  0  0  -0.092425  0  3.977345  0  0  -0.098133  0  3.999984  0  0  -0.074105  -0.089013  0  3.962538  0
C  C58  1  0.91598784  0.66190120  0.19897871  1  0  0.121948  0  3.690533  0  0  0.084503  0  3.943651  0  0  0.090729  0  3.962171  0  0  0.045035  0.080493  0  3.931296  0
C  C59  1  0.08400793  0.33809614  0.80102200  1  0  0.121882  0  3.690622  0  0  0.084455  0  3.943756  0  0  0.090685  0  3.962271  0  0  0.045017  0.080441  0  3.931405  0
C  C60  1  0.72528177  0.78203626  0.05595933  1  0  0.036112  0  3.648138  0  0  -0.002766  0  3.89994  0  0  0.000969  0  3.918234  0  0  0.049283  -0.005005  0  3.887134  0
C  C61  1  0.27471506  0.21796109  0.94404054  1  0  0.036105  0  3.648057  0  0  -0.002723  0  3.899793  0  0  0.001007  0  3.918097  0  0  0.049259  -0.004964  0  3.886987  0
C  C62  1  0.52091865  0.01132925  0.27806798  1  0  0.655836  0  3.880096  0  0  0.602057  0  4.175505  0  0  0.63531  0  4.167984  0  0  0.216355  0.579731  0  4.17929  0
C  C63  1  0.47908622  0.98866923  0.72193740  1  0  0.65565  0  3.880323  0  0  0.601822  0  4.175829  0  0  0.63508  0  4.168302  0  0  0.216206  0.579498  0  4.179612  0
C  C64  1  0.35908673  0.04319728  0.30565802  1  0  -0.056936  0  3.821401  0  0  -0.032704  0  4.062609  0  0  -0.039072  0  4.085195  0  0  -0.026838  -0.027988  0  4.046019  0
C  C65  1  0.64091631  0.95680353  0.69434367  1  0  -0.056849  0  3.821413  0  0  -0.032645  0  4.062674  0  0  -0.039008  0  4.085244  0  0  -0.026809  -0.027934  0  4.046084  0
C  C66  1  0.31286389  0.08187939  0.40006270  1  0  -0.210036  0  3.706819  0  0  -0.24188  0  3.955407  0  0  -0.244322  0  3.972467  0  0  -0.101467  -0.240696  0  3.94388  0
C  C67  1  0.68713860  0.91811678  0.59994270  1  0  -0.210059  0  3.706948  0  0  -0.241875  0  3.955566  0  0  -0.244316  0  3.972621  0  0  -0.101524  -0.240691  0  3.944037  0
C  C68  1  0.16186258  0.11193419  0.42809889  1  0  0.330693  0  3.831114  0  0  0.329091  0  4.09203  0  0  0.339016  0  4.107177  0  0  0.084201  0.322151  0  4.081701  0
C  C69  1  0.83813832  0.88806661  0.57190524  1  0  0.330663  0  3.831148  0  0  0.329073  0  4.09204  0  0  0.338997  0  4.107188  0  0  0.084231  0.322131  0  4.081707  0
C  C70  1  0.05816867  0.10291803  0.36039160  1  0  -0.165815  0  3.649652  0  0  -0.19992  0  3.900256  0  0  -0.20054  0  3.916027  0  0  -0.087468  -0.199749  0  3.890759  0
C  C71  1  0.94183331  0.89708278  0.63961013  1  0  -0.165998  0  3.649717  0  0  -0.200112  0  3.900328  0  0  -0.20073  0  3.916093  0  0  -0.087618  -0.199954  0  3.890849  0
C  C72  1  0.10649938  0.05866333  0.26837405  1  0  -0.049046  0  3.790462  0  0  -0.023175  0  4.027186  0  0  -0.029953  0  4.048628  0  0  -0.020598  -0.019325  0  4.012835  0
C  C73  1  0.89350327  0.94133865  0.73162653  1  0  -0.048949  0  3.790398  0  0  -0.023078  0  4.027109  0  0  -0.029856  0  4.048553  0  0  -0.020546  -0.019218  0  4.012735  0
C  C74  1  0.25686828  0.03037700  0.23990063  1  0  -0.117598  0  3.742264  0  0  -0.161217  0  4.002332  0  0  -0.160156  0  4.021489  0  0  -0.099761  -0.161048  0  3.988711  0
C  C75  1  0.74313475  0.96962380  0.76010261  1  0  -0.117574  0  3.742312  0  0  -0.16118  0  4.002382  0  0  -0.160114  0  4.021522  0  0  -0.099679  -0.161014  0  3.988752  0
C  C76  1  0.99969190  0.03257146  0.20439906  1  0  0.647292  0  3.886332  0  0  0.598611  0  4.168836  0  0  0.633153  0  4.161478  0  0  0.209309  0.575866  0  4.172025  0
C  C77  1  0.00031153  0.96742819  0.79560293  1  0  0.64733  0  3.886319  0  0  0.598666  0  4.168798  0  0  0.633206  0  4.161441  0  0  0.209365  0.575919  0  4.171983  0
N  N78  1  0.65467031  0.65473750  0.95693307  1  0  -0.444099  0  3.366594  0  0  -0.389944  0  3.606029  0  0  -0.413632  0  3.618201  0  0  -0.393899  -0.37363  0  3.597176  0
N  N79  1  0.34532932  0.34526102  0.04306476  1  0  -0.444227  0  3.366465  0  0  -0.390043  0  3.605955  0  0  -0.41372  0  3.618102  0  0  -0.393986  -0.373726  0  3.5971  0
N  N80  1  0.80910692  0.79120013  0.13102825  1  0  -0.320065  0  3.361363  0  0  -0.233419  0  3.641561  0  0  -0.252895  0  3.658643  0  0  -0.329402  -0.220337  0  3.629957  0
N  N81  1  0.19089031  0.20879607  0.86897194  1  0  -0.32007  0  3.361295  0  0  -0.233499  0  3.641558  0  0  -0.252982  0  3.658649  0  0  -0.329443  -0.220412  0  3.629954  0
Cl  Cl82  1  0.19891173  0.56656804  0.39860804  1  0  -0.110504  0  1.344222  0  0  -0.092776  0  1.565022  0  0  -0.095368  0  1.559992  0  0  -0.009902  -0.091016  0  1.568444  0
Cl  Cl83  1  0.80108458  0.43343393  0.60139130  1  0  -0.110511  0  1.34426  0  0  -0.092797  0  1.565051  0  0  -0.095388  0  1.560022  0  0  -0.009905  -0.091038  0  1.568476  0
O  O84  1  0.52326232  0.47554456  0.80801933  1  0  -0.268908  0  2.388944  0  0  -0.199298  0  2.623961  0  0  -0.21609  0  2.62751  0  0  -0.180614  -0.187616  0  2.621388  0
O  O85  1  0.47674354  0.52445744  0.19197561  1  0  -0.268929  0  2.388892  0  0  -0.199328  0  2.623894  0  0  -0.216127  0  2.627436  0  0  -0.180693  -0.187647  0  2.621323  0
O  O86  1  0.71758253  0.40086978  0.97818811  1  0  -0.543348  0  1.975776  0  0  -0.487009  0  2.189065  0  0  -0.509183  0  2.182547  0  0  -0.274127  -0.472221  0  2.193569  0
O  O87  1  0.28242533  0.59912646  0.02180450  1  0  -0.543301  0  1.976242  0  0  -0.486939  0  2.189505  0  0  -0.509108  0  2.182975  0  0  -0.27405  -0.472155  0  2.194009  0
O  O88  1  0.54490434  0.05325497  0.17059041  1  0  -0.673841  0  2.084732  0  0  -0.591652  0  2.349671  0  0  -0.62073  0  2.336041  0  0  -0.325891  -0.571231  0  2.358557  0
O  O89  1  0.45509843  0.94674353  0.82941274  1  0  -0.673744  0  2.084994  0  0  -0.591546  0  2.349923  0  0  -0.620639  0  2.336319  0  0  -0.325797  -0.571123  0  2.358808  0
O  O90  1  0.62286931  0.94919577  0.35554639  1  0  -0.605368  0  1.99839  0  0  -0.55207  0  2.226752  0  0  -0.574535  0  2.216528  0  0  -0.297567  -0.535536  0  2.232432  0
O  O91  1  0.37713293  0.05080735  0.64445623  1  0  -0.60531  0  1.998372  0  0  -0.551979  0  2.226725  0  0  -0.574445  0  2.216504  0  0  -0.297508  -0.535446  0  2.232401  0
O  O92  1  0.11234703  0.14727920  0.51983542  1  0  -0.521798  0  2.105732  0  0  -0.4785  0  2.314683  0  0  -0.496914  0  2.306767  0  0  -0.356642  -0.464871  0  2.319379  0
O  O93  1  0.88765535  0.85272046  0.48016585  1  0  -0.521783  0  2.105615  0  0  -0.478467  0  2.314549  0  0  -0.496885  0  2.306638  0  0  -0.356634  -0.46484  0  2.319246  0
O  O94  1  0.85780706  0.08121932  0.22111351  1  0  -0.629814  0  2.021938  0  0  -0.559839  0  2.290388  0  0  -0.587844  0  2.275084  0  0  -0.320213  -0.540481  0  2.300464  0
O  O95  1  0.14219584  0.91877571  0.77888907  1  0  -0.629785  0  2.021899  0  0  -0.55985  0  2.290387  0  0  -0.587861  0  2.275096  0  0  -0.320258  -0.540492  0  2.300468  0
O  O96  1  0.04606192  0.96176546  0.13751961  1  0  -0.641199  0  2.003224  0  0  -0.580618  0  2.229591  0  0  -0.606431  0  2.218049  0  0  -0.311627  -0.561994  0  2.2363  0
O  O97  1  0.95394218  0.03823535  0.86248123  1  0  -0.641241  0  2.003201  0  0  -0.580667  0  2.229576  0  0  -0.606479  0  2.218035  0  0  -0.311658  -0.562043  0  2.236288  0
O  O98  1  0.71862770  0.13911866  0.96553589  1  0  -0.835677  0  1.894943  0  0  -0.766036  0  2.117839  0  0  -0.788945  0  2.078074  0  0  -0.577735  -0.749928  0  2.145074  0
O  O99  1  0.28137613  0.86087984  0.03446642  1  0  -0.835643  0  1.894958  0  0  -0.766  0  2.117875  0  0  -0.788903  0  2.078101  0  0  -0.577716  -0.749892  0  2.145106  0
