# generated using pymatgen
data_Zn4H10C28S2O13F4
_symmetry_space_group_name_H-M   'P 1'
_cell_length_a   18.56547126
_cell_length_b   19.73412267
_cell_length_c   32.84842037
_cell_angle_alpha   86.05312899
_cell_angle_beta   73.58454714
_cell_angle_gamma   61.93930909
_symmetry_Int_Tables_number   1
_chemical_formula_structural   Zn4H10C28S2O13F4
_chemical_formula_sum   'Zn16 H40 C112 S8 O52 F16'
_cell_volume   10157.93867677
_cell_formula_units_Z   4
loop_
 _symmetry_equiv_pos_site_id
 _symmetry_equiv_pos_as_xyz
  1  'x, y, z'
loop_
 _atom_site_type_symbol
 _atom_site_label
 _atom_site_symmetry_multiplicity
 _atom_site_fract_x
 _atom_site_fract_y
 _atom_site_fract_z
 _atom_site_occupancy
 _atom_site_pbe_bader_charge
 _atom_site_pbe_bader_spin_density
 _atom_site_pbe_cm5_charge
 _atom_site_pbe_ddec_charge
 _atom_site_pbe_ddec_spin_density
 _atom_site_pbe_ddec_sum_bond_order
 _atom_site_pbe_magmom
Zn  Zn0  1  0.87383855  0.55740944  0.51918811  1  1.317722  0  0.67047  0.959473  0  2.346808  0
Zn  Zn1  1  0.03907172  0.48357341  0.43815620  1  1.315192  0  0.676083  0.96299  0  2.401503  0
Zn  Zn2  1  0.04115516  0.39878929  0.52376919  1  1.319756  0  0.672822  0.962513  0  2.371487  0
Zn  Zn3  1  0.04725124  0.55943250  0.51816835  1  1.318989  0  0.673217  0.964291  0  2.369829  0
Zn  Zn4  1  0.62485355  0.19067567  0.73197228  1  1.310981  0  0.673005  0.961086  0  2.374213  0
Zn  Zn5  1  0.46377271  0.35115044  0.72630823  1  1.320425  0  0.672406  0.960502  0  2.374898  0
Zn  Zn6  1  0.45868772  0.26505539  0.81249819  1  1.307848  0  0.674408  0.964982  0  2.369036  0
Zn  Zn7  1  0.45251817  0.19308045  0.72941395  1  1.319639  0  0.672878  0.963666  0  2.36734  0
Zn  Zn8  1  0.46181402  0.76360629  0.31302089  1  1.316829  0  0.669567  0.957029  0  2.350951  0
Zn  Zn9  1  0.45461206  0.69139935  0.23042269  1  1.319848  0  0.67597  0.962405  0  2.402724  0
Zn  Zn10  1  0.62502110  0.69318498  0.22941183  1  1.312121  0  0.673482  0.963597  0  2.370862  0
Zn  Zn11  1  0.45877655  0.85129999  0.22629761  1  1.317365  0  0.672732  0.96218  0  2.371731  0
Zn  Zn12  1  0.03628732  0.89890469  0.02382359  1  1.318514  0  0.673164  0.960105  0  2.375577  0
Zn  Zn13  1  0.04970725  0.05733030  0.01910579  1  1.314689  0  0.670181  0.95794  0  2.350942  0
Zn  Zn14  1  0.87638838  0.05881367  0.01966215  1  1.319063  0  0.675883  0.964774  0  2.39793  0
Zn  Zn15  1  0.03640196  0.98496760  0.93753468  1  1.307587  0  0.67282  0.96264  0  2.371944  0
H  H16  1  0.69681131  0.78272426  0.59430337  1  0.109829  0  0.119026  0.144211  0  0.973549  0
H  H17  1  0.80288714  0.96711258  0.65568368  1  0.109057  0  0.121446  0.148133  0  0.968581  0
H  H18  1  0.18850464  0.27418350  0.34878810  1  0.129638  0  0.123916  0.151523  0  0.964547  0
H  H19  1  0.31168004  0.97520411  0.40150011  1  0.112915  0  0.119395  0.145201  0  0.973297  0
H  H20  1  0.54262967  0.48269626  0.62164011  1  0.059738  0  0.102079  0.114921  0  0.973714  0
H  H21  1  0.54792894  0.52278230  0.66693506  1  0.039808  0  0.100762  0.112022  0  0.975977  0
H  H22  1  0.64394766  0.57093144  0.61890306  1  0.051318  0  0.099475  0.110193  0  0.977767  0
H  H23  1  0.63873043  0.53085076  0.57354152  1  0.055349  0  0.098361  0.107906  0  0.982443  0
H  H24  1  0.35295147  0.67382518  0.43079857  1  0.066568  0  0.098182  0.107662  0  0.981857  0
H  H25  1  0.26229489  0.76201350  0.42826021  1  0.0296  0  0.099328  0.110438  0  0.977242  0
H  H26  1  0.16605630  0.71395685  0.47625755  1  0.065523  0  0.100363  0.111873  0  0.975876  0
H  H27  1  0.25661304  0.62580609  0.47881844  1  0.056895  0  0.101247  0.113092  0  0.974917  0
H  H28  1  0.54741078  0.76212772  0.42813183  1  0.032798  0  0.09924  0.11004  0  0.977918  0
H  H29  1  0.54232558  0.67398283  0.43063634  1  0.051911  0  0.09811  0.107265  0  0.982435  0
H  H30  1  0.63848724  0.62582886  0.47868532  1  0.061029  0  0.098107  0.107298  0  0.982178  0
H  H31  1  0.64360958  0.71395416  0.47617756  1  0.063033  0  0.099368  0.110451  0  0.97762  0
H  H32  1  0.33379962  0.17918851  0.63115200  1  0.074736  0  0.10112  0.112181  0  0.976445  0
H  H33  1  0.24325086  0.21921771  0.67649553  1  0.089796  0  0.102328  0.115138  0  0.972391  0
H  H34  1  0.14697854  0.26730703  0.62841886  1  0.047324  0  0.102072  0.115081  0  0.973981  0
H  H35  1  0.23761225  0.22722454  0.58311795  1  0.076916  0  0.100959  0.112359  0  0.976605  0
H  H36  1  0.31145774  0.58990810  0.78706789  1  0.11063  0  0.121122  0.14725  0  0.970068  0
H  H37  1  0.18865307  0.66015907  0.96294829  1  0.112142  0  0.122261  0.148767  0  0.968055  0
H  H38  1  0.95733402  0.07629995  0.81937010  1  0.074709  0  0.101847  0.1142  0  0.974284  0
H  H39  1  0.95212438  0.98828320  0.82196198  1  0.041815  0  0.100465  0.111522  0  0.976649  0
H  H40  1  0.85606387  0.03620579  0.77389222  1  0.066969  0  0.099933  0.110728  0  0.977531  0
H  H41  1  0.86113037  0.12431128  0.77124930  1  0.066655  0  0.101603  0.113821  0  0.975137  0
H  H42  1  0.16624036  0.21375129  0.97603892  1  0.064288  0  0.099824  0.110514  0  0.977555  0
H  H43  1  0.25691084  0.12568083  0.97864490  1  0.054678  0  0.099645  0.108981  0  0.9806  0
H  H44  1  0.35302138  0.17377439  0.93056107  1  0.077832  0  0.103371  0.116988  0  0.971866  0
H  H45  1  0.26237279  0.26178002  0.92799365  1  0.035566  0  0.100901  0.112924  0  0.975707  0
H  H46  1  0.57469105  0.46705262  0.15573383  1  0.12081  0  0.124608  0.152493  0  0.962402  0
H  H47  1  0.92660161  0.28291476  0.09430501  1  0.091828  0  0.119086  0.144322  0  0.974258  0
H  H48  1  0.25689031  0.03104638  0.07349936  1  0.057061  0  0.098898  0.108304  0  0.981454  0
H  H49  1  0.16610525  0.07129359  0.11881034  1  0.067107  0  0.100283  0.111228  0  0.977058  0
H  H50  1  0.26216208  0.02310143  0.16692274  1  0.076661  0  0.101239  0.113022  0  0.975321  0
H  H51  1  0.35287677  0.98293889  0.12165309  1  0.047647  0  0.102087  0.114999  0  0.973183  0
H  H52  1  0.95208208  0.72691404  0.08313537  1  0.039868  0  0.1002  0.111136  0  0.976866  0
H  H53  1  0.95734334  0.76707428  0.12841767  1  0.056825  0  0.103068  0.116393  0  0.97264  0
H  H54  1  0.86116080  0.71905111  0.17652672  1  0.062149  0  0.102679  0.115876  0  0.972621  0
H  H55  1  0.85599149  0.67884362  0.13123787  1  0.054011  0  0.100393  0.111322  0  0.977321  0
C  C56  1  0.86256777  0.56822555  0.43116512  1  1.570702  0  0.229786  0.628454  0  4.17128  0
C  C57  1  0.12353390  0.31520657  0.43849828  1  1.569838  0  0.216478  0.606228  0  4.224033  0
C  C58  1  0.86323857  0.43073508  0.56863745  1  1.595718  0  0.228728  0.627419  0  4.167586  0
C  C59  1  0.13796118  0.43198960  0.56849149  1  1.583873  0  0.230112  0.628507  0  4.169437  0
C  C60  1  0.87617513  0.68437738  0.56112590  1  1.559925  0  0.217322  0.610547  0  4.218193  0
C  C61  1  0.13759512  0.56868258  0.43091038  1  1.582378  0  0.229605  0.626237  0  4.171699  0
C  C62  1  0.63854118  0.31795266  0.68143413  1  1.566518  0  0.227829  0.62487  0  4.17487  0
C  C63  1  0.37708609  0.43469997  0.81121765  1  1.564084  0  0.216573  0.607828  0  4.221696  0
C  C64  1  0.63645568  0.18130840  0.81926320  1  1.556195  0  0.229656  0.628683  0  4.168228  0
C  C65  1  0.36197831  0.18119890  0.81826818  1  1.569218  0  0.22952  0.627787  0  4.168144  0
C  C66  1  0.62338110  0.06555085  0.68851100  1  1.553177  0  0.2176  0.610006  0  4.2202  0
C  C67  1  0.36313718  0.31941386  0.68093021  1  1.57706  0  0.230643  0.629617  0  4.167902  0
C  C68  1  0.36304980  0.68082080  0.31870704  1  1.569424  0  0.228088  0.625088  0  4.175178  0
C  C69  1  0.62304053  0.56555606  0.18824565  1  1.563092  0  0.216104  0.607234  0  4.226554  0
C  C70  1  0.63775504  0.68110188  0.31844490  1  1.567536  0  0.229272  0.629209  0  4.168168  0
C  C71  1  0.63655023  0.81937310  0.18097920  1  1.58109  0  0.228569  0.625975  0  4.171555  0
C  C72  1  0.37681816  0.93360967  0.31184803  1  1.549913  0  0.216797  0.610778  0  4.217904  0
C  C73  1  0.36226068  0.81828525  0.18112044  1  1.575041  0  0.228942  0.625191  0  4.175321  0
C  C74  1  0.13726109  0.93090292  0.06866488  1  1.591108  0  0.230128  0.62955  0  4.167757  0
C  C75  1  0.87871054  0.18439412  0.06141791  1  1.535016  0  0.21758  0.609341  0  4.221468  0
C  C76  1  0.86173256  0.93168413  0.06878966  1  1.564793  0  0.228399  0.625074  0  4.174662  0
C  C77  1  0.86181761  0.06914526  0.93147343  1  1.572367  0  0.229085  0.625287  0  4.174163  0
C  C78  1  0.12184165  0.81540298  0.93881033  1  1.535194  0  0.216569  0.606927  0  4.223848  0
C  C79  1  0.13727456  0.06845678  0.93106384  1  1.58053  0  0.229435  0.627987  0  4.169033  0
C  C80  1  0.73913924  0.80173804  0.60062567  1  0.037434  0  -0.090273  -0.137282  0  3.97621  0
C  C81  1  0.76064478  0.94796123  0.64936673  1  0.082305  0  -0.088399  -0.135987  0  3.967916  0
C  C82  1  0.82688010  0.75893983  0.58625644  1  -0.125518  0  -0.025014  -0.118673  0  3.99017  0
C  C83  1  0.67285400  0.99074439  0.66362553  1  -0.185732  0  -0.024903  -0.118675  0  3.989858  0
C  C84  1  0.78496619  0.87910543  0.62639296  1  -0.173592  0  -0.021394  -0.007711  0  4.064063  0
C  C85  1  0.71490503  0.87056657  0.62356570  1  -0.230269  0  -0.02189  -0.009311  0  4.069778  0
C  C86  1  0.20128958  0.22750005  0.36984500  1  0.02268  0  -0.085788  -0.132362  0  3.962186  0
C  C87  1  0.29907409  0.02174628  0.38037359  1  0.043401  0  -0.091459  -0.14091  0  3.980655  0
C  C88  1  0.17291397  0.24039363  0.41375063  1  -0.174604  0  -0.02568  -0.11907  0  3.993188  0
C  C89  1  0.32747324  0.00862492  0.33650472  1  -0.16453  0  -0.025332  -0.120121  0  3.994055  0
C  C90  1  0.25319360  0.10134848  0.39255613  1  -0.173927  0  -0.022446  -0.007308  0  4.071034  0
C  C91  1  0.24734424  0.14787723  0.35758290  1  -0.168965  0  -0.021116  -0.010562  0  4.065674  0
C  C92  1  0.69669012  0.34481546  0.65285916  1  0.054979  0  -0.017525  -0.167082  0  3.979771  0
C  C93  1  0.80799374  0.40077430  0.59704378  1  0.119931  0  -0.017295  -0.164842  0  3.97619  0
C  C94  1  0.66621726  0.41713390  0.63638483  1  -0.00269  0  -0.006795  0.06425  0  3.908754  0
C  C95  1  0.83963431  0.32763024  0.61342390  1  0.497238  0  0.099451  0.158462  0  4.041774  0
C  C96  1  0.71920719  0.44372551  0.60983371  1  -0.05952  0  -0.007342  0.063676  0  3.909563  0
C  C97  1  0.78621261  0.30077273  0.64018285  1  0.539159  0  0.099753  0.160008  0  4.041644  0
C  C98  1  0.58553006  0.49008924  0.63593097  1  0.006278  0  -0.148294  -0.195038  0  3.875607  0
C  C99  1  0.64568248  0.52027191  0.60582674  1  -0.010423  0  -0.149256  -0.194442  0  3.882238  0
C  C100  1  0.30583303  0.65209786  0.34623530  1  0.037765  0  -0.016857  -0.165663  0  3.979569  0
C  C101  1  0.19420973  0.59641512  0.40181279  1  -0.008267  0  -0.018809  -0.168515  0  3.981096  0
C  C102  1  0.28014477  0.66358880  0.39060967  1  -0.00522  0  -0.008091  0.062301  0  3.914138  0
C  C103  1  0.21958989  0.58431556  0.35704088  1  0.523489  0  0.10168  0.160262  0  4.040107  0
C  C104  1  0.22702440  0.63710026  0.41706484  1  0.029609  0  -0.006877  0.064978  0  3.912896  0
C  C105  1  0.27314254  0.61112847  0.33033329  1  0.561517  0  0.100412  0.159428  0  4.039896  0
C  C106  1  0.28831040  0.69916787  0.42737853  1  -0.000176  0  -0.150198  -0.196233  0  3.882717  0
C  C107  1  0.22802242  0.66905164  0.45742422  1  -0.012448  0  -0.148652  -0.194229  0  3.876183  0
C  C108  1  0.69604525  0.65213269  0.34611132  1  0.128401  0  -0.018383  -0.168517  0  3.976378  0
C  C109  1  0.80745953  0.59623788  0.40195913  1  -0.031003  0  -0.018506  -0.168325  0  3.981176  0
C  C110  1  0.66569295  0.66363237  0.39049551  1  -0.022353  0  -0.007557  0.064444  0  3.911015  0
C  C111  1  0.83911964  0.58424070  0.35718252  1  0.542755  0  0.100816  0.160286  0  4.041255  0
C  C112  1  0.71871114  0.63705968  0.41702895  1  0.085446  0  -0.008657  0.062772  0  3.914271  0
C  C113  1  0.78560259  0.61111988  0.33038975  1  0.477995  0  0.101428  0.161163  0  4.04066  0
C  C114  1  0.58507912  0.69927263  0.42722837  1  0.003784  0  -0.149448  -0.19355  0  3.881012  0
C  C115  1  0.64531321  0.66910534  0.45732701  1  -0.031321  0  -0.149029  -0.194155  0  3.882729  0
C  C116  1  0.30592484  0.34943135  0.65275680  1  0.082555  0  -0.018141  -0.169214  0  3.979289  0
C  C117  1  0.19432615  0.40519469  0.59706946  1  0.039662  0  -0.018045  -0.170523  0  3.981738  0
C  C118  1  0.27280104  0.30639018  0.64011185  1  -0.034056  0  -0.005939  0.066794  0  3.908662  0
C  C119  1  0.22709278  0.44934171  0.60968679  1  0.519597  0  0.098945  0.160186  0  4.044284  0
C  C120  1  0.21969200  0.33291514  0.61358765  1  0.024657  0  -0.006715  0.06557  0  3.908423  0
C  C121  1  0.28061442  0.42260604  0.63640691  1  0.509852  0  0.098445  0.15836  0  4.043725  0
C  C122  1  0.27179456  0.22984914  0.64420923  1  -0.056546  0  -0.147241  -0.194282  0  3.87372  0
C  C123  1  0.21154544  0.25993413  0.61411470  1  -0.012341  0  -0.149127  -0.197293  0  3.876228  0
C  C124  1  0.29884868  0.58155884  0.82091754  1  0.07402  0  -0.089428  -0.136435  0  3.971794  0
C  C125  1  0.20127547  0.66852156  0.92909717  1  0.079351  0  -0.088351  -0.135617  0  3.969321  0
C  C126  1  0.32732924  0.50918746  0.83632765  1  -0.236292  0  -0.025362  -0.119853  0  3.994868  0
C  C127  1  0.17253154  0.74087573  0.91369693  1  -0.202866  0  -0.024574  -0.118127  0  3.992223  0
C  C128  1  0.24725115  0.61041199  0.89537955  1  -0.20001  0  -0.021196  -0.00777  0  4.065632  0
C  C129  1  0.25290800  0.63965290  0.85464029  1  -0.195652  0  -0.022145  -0.009565  0  4.06852  0
C  C130  1  0.80353700  0.09825889  0.90389244  1  0.010972  0  -0.016673  -0.166417  0  3.979125  0
C  C131  1  0.69192113  0.15386947  0.84826828  1  -0.023808  0  -0.018987  -0.16908  0  3.982529  0
C  C132  1  0.83384438  0.08681105  0.85951167  1  -0.032558  0  -0.005217  0.066139  0  3.910735  0
C  C133  1  0.66046764  0.16590338  0.89302681  1  0.540509  0  0.099  0.158341  0  4.044726  0
C  C134  1  0.78073850  0.11328024  0.83300092  1  0.106457  0  -0.008674  0.061207  0  3.909141  0
C  C135  1  0.71400599  0.13924782  0.91976213  1  0.590878  0  0.101018  0.161124  0  4.04229  0
C  C136  1  0.91447107  0.05113412  0.82280847  1  -0.014419  0  -0.148436  -0.194158  0  3.875624  0
C  C137  1  0.85424824  0.08118155  0.79269217  1  -0.034352  0  -0.148215  -0.19455  0  3.87813  0
C  C138  1  0.19409135  0.09606198  0.90185239  1  0.057224  0  -0.018042  -0.167043  0  3.976725  0
C  C139  1  0.30553189  0.15182994  0.84598470  1  0.044616  0  -0.017243  -0.165147  0  3.977859  0
C  C140  1  0.22718798  0.13665863  0.91693998  1  -0.032137  0  -0.006633  0.064099  0  3.911237  0
C  C141  1  0.27269240  0.11081745  0.83029096  1  0.550804  0  0.099023  0.157752  0  4.042396  0
C  C142  1  0.28020956  0.16323581  0.89038412  1  0.004688  0  -0.006779  0.06373  0  3.909385  0
C  C143  1  0.21921610  0.08406490  0.85707938  1  0.519653  0  0.099189  0.158671  0  4.040787  0
C  C144  1  0.22823276  0.16883007  0.95722461  1  -0.016556  0  -0.148808  -0.192543  0  3.880317  0
C  C145  1  0.28844380  0.19892918  0.92710761  1  -0.000518  0  -0.148081  -0.19688  0  3.873344  0
C  C146  1  0.64241279  0.44790403  0.14940034  1  0.085235  0  -0.087164  -0.134421  0  3.961194  0
C  C147  1  0.85894773  0.30189291  0.10063408  1  0.049402  0  -0.090615  -0.138826  0  3.979619  0
C  C148  1  0.67324516  0.49066887  0.16359830  1  -0.221539  0  -0.025686  -0.120305  0  3.996641  0
C  C149  1  0.82836466  0.25904398  0.08633450  1  -0.124134  0  -0.025608  -0.120197  0  3.993093  0
C  C150  1  0.79137141  0.37058684  0.12361392  1  -0.166475  0  -0.022161  -0.008543  0  4.071641  0
C  C151  1  0.70994748  0.37904393  0.12645861  1  -0.207609  0  -0.020591  -0.009575  0  4.064722  0
C  C152  1  0.19398305  0.90104856  0.09706324  1  0.06515  0  -0.018612  -0.169365  0  3.981058  0
C  C153  1  0.30548183  0.84520306  0.15278039  1  0.038374  0  -0.016863  -0.167438  0  3.979771  0
C  C154  1  0.22697182  0.94409443  0.10982207  1  -0.008196  0  -0.007498  0.063972  0  3.911602  0
C  C155  1  0.27274257  0.80102718  0.14015049  1  0.516592  0  0.100307  0.160597  0  4.040843  0
C  C156  1  0.27997463  0.91754373  0.13637315  1  -0.004482  0  -0.006744  0.065712  0  3.911347  0
C  C157  1  0.21918907  0.82787273  0.11341521  1  0.528998  0  0.099611  0.15903  0  4.041389  0
C  C158  1  0.22808301  0.02058824  0.10578435  1  -0.022522  0  -0.148835  -0.194153  0  3.880261  0
C  C159  1  0.28825940  0.99040027  0.13592438  1  -0.012106  0  -0.148628  -0.196159  0  3.873794  0
C  C160  1  0.80350630  0.90485053  0.09714191  1  0.053095  0  -0.017848  -0.167606  0  3.982599  0
C  C161  1  0.69193168  0.84927704  0.15279280  1  0.132317  0  -0.016834  -0.165465  0  3.978563  0
C  C162  1  0.83385143  0.83255963  0.11360133  1  -0.009388  0  -0.006955  0.063841  0  3.912482  0
C  C163  1  0.66042001  0.92247438  0.13646442  1  0.496413  0  0.099169  0.158196  0  4.043548  0
C  C164  1  0.78073779  0.80607208  0.14012602  1  -0.054114  0  -0.006757  0.064016  0  3.908945  0
C  C165  1  0.71396464  0.94918181  0.10973736  1  0.546555  0  0.100607  0.159808  0  4.042665  0
C  C166  1  0.91446420  0.75964907  0.11412846  1  0.010207  0  -0.147963  -0.195271  0  3.876741  0
C  C167  1  0.85422513  0.72956606  0.14424376  1  -0.012247  0  -0.148014  -0.195068  0  3.87508  0
S  S168  1  0.88036048  0.80176366  0.60053918  1  0.267029  0  0.083223  0.12197  0  2.728123  0
S  S169  1  0.61946442  0.94790364  0.64930560  1  0.275965  0  0.081919  0.120434  0  2.732795  0
S  S170  1  0.20166894  0.15645795  0.44034049  1  0.272141  0  0.080272  0.117863  0  2.733726  0
S  S171  1  0.29885158  0.09251812  0.30983880  1  0.273958  0  0.086905  0.127716  0  2.726895  0
S  S172  1  0.29872957  0.51115868  0.89160260  1  0.333445  0  0.084442  0.123703  0  2.729928  0
S  S173  1  0.20122652  0.73891773  0.85841838  1  0.330096  0  0.082134  0.120515  0  2.732057  0
S  S174  1  0.78376909  0.44788259  0.14934029  1  0.303375  0  0.081395  0.119942  0  2.734433  0
S  S175  1  0.71779833  0.30170881  0.10059809  1  0.274917  0  0.090277  0.132268  0  2.724093  0
O  O176  1  0.99890992  0.50041503  0.50053181  1  -1.233582  0  -0.57085  -1.031269  0  2.532945  0
O  O177  1  0.82370653  0.58442491  0.47095232  1  -1.158372  0  -0.3106  -0.541184  0  2.30781  0
O  O178  1  0.10365024  0.37493902  0.41736970  1  -1.169827  0  -0.31316  -0.530333  0  2.320023  0
O  O179  1  0.94326869  0.38738955  0.55884769  1  -1.157409  0  -0.312259  -0.539531  0  2.367246  0
O  O180  1  0.94248828  0.53094817  0.41435505  1  -1.151302  0  -0.310114  -0.535244  0  2.372908  0
O  O181  1  0.82411774  0.49826877  0.55665645  1  -1.170776  0  -0.309083  -0.5379  0  2.307391  0
O  O182  1  0.10500866  0.31368085  0.47908378  1  -1.150707  0  -0.32034  -0.548914  0  2.335311  0
O  O183  1  0.11504686  0.38419593  0.55979252  1  -1.157367  0  -0.306649  -0.531024  0  2.31137  0
O  O184  1  0.95725755  0.65592785  0.55098940  1  -1.147342  0  -0.319868  -0.546145  0  2.337871  0
O  O185  1  0.11772316  0.49881900  0.55525853  1  -1.164982  0  -0.313439  -0.542392  0  2.365791  0
O  O186  1  0.83407678  0.65493842  0.55168762  1  -1.170075  0  -0.318925  -0.5436  0  2.311361  0
O  O187  1  0.11235626  0.53068788  0.41421259  1  -1.153889  0  -0.310694  -0.536667  0  2.371519  0
O  O188  1  0.11946329  0.58588611  0.47064656  1  -1.147554  0  -0.307858  -0.534478  0  2.311214  0
O  O189  1  0.49996388  0.24998421  0.74998433  1  -1.21743  0  -0.571238  -1.031602  0  2.532353  0
O  O190  1  0.67188318  0.25109914  0.69460293  1  -1.166685  0  -0.312644  -0.541599  0  2.367305  0
O  O191  1  0.39799872  0.43641752  0.77075064  1  -1.150116  0  -0.31658  -0.538616  0  2.31724  0
O  O192  1  0.55638233  0.21821807  0.83591310  1  -1.160239  0  -0.312834  -0.542494  0  2.366452  0
O  O193  1  0.55913280  0.36577915  0.69014254  1  -1.143844  0  -0.306332  -0.531097  0  2.312834  0
O  O194  1  0.67554029  0.16468155  0.77952782  1  -1.15051  0  -0.308082  -0.533981  0  2.314269  0
O  O195  1  0.39495455  0.37469793  0.83231815  1  -1.174974  0  -0.319943  -0.546161  0  2.335368  0
O  O196  1  0.38490167  0.21818208  0.83778426  1  -1.155893  0  -0.307137  -0.532174  0  2.310175  0
O  O197  1  0.54227833  0.09537911  0.69745335  1  -1.147366  0  -0.319451  -0.546456  0  2.33436  0
O  O198  1  0.38232289  0.16749072  0.77824105  1  -1.163881  0  -0.313053  -0.54287  0  2.365787  0
O  O199  1  0.66552810  0.09390793  0.69891065  1  -1.165386  0  -0.316444  -0.538527  0  2.315144  0
O  O200  1  0.38963609  0.36289249  0.69102529  1  -1.162829  0  -0.313852  -0.543831  0  2.367079  0
O  O201  1  0.38047903  0.25151425  0.69243037  1  -1.158858  0  -0.306804  -0.531935  0  2.310479  0
O  O202  1  0.50011806  0.75051811  0.25052277  1  -1.230857  0  -0.571104  -1.030517  0  2.533243  0
O  O203  1  0.38667061  0.71732227  0.33816056  1  -1.161297  0  -0.309706  -0.538337  0  2.309026  0
O  O204  1  0.54217112  0.59425610  0.19810302  1  -1.148544  0  -0.313208  -0.530889  0  2.320348  0
O  O205  1  0.67131670  0.66785266  0.27845672  1  -1.163013  0  -0.310916  -0.538574  0  2.367162  0
O  O206  1  0.38349668  0.66671927  0.27875810  1  -1.150307  0  -0.309557  -0.534328  0  2.374545  0
O  O207  1  0.55822239  0.71708067  0.33802065  1  -1.157267  0  -0.309358  -0.538277  0  2.308062  0
O  O208  1  0.66510045  0.59536279  0.19756530  1  -1.164117  0  -0.320132  -0.549267  0  2.338464  0
O  O209  1  0.67561644  0.75149486  0.19252948  1  -1.165639  0  -0.306802  -0.531505  0  2.313969  0
O  O210  1  0.39500517  0.93555143  0.27132206  1  -1.142318  0  -0.318459  -0.544375  0  2.33675  0
O  O211  1  0.55646405  0.86282167  0.19105660  1  -1.159808  0  -0.312558  -0.541577  0  2.368631  0
O  O212  1  0.39678846  0.87370638  0.33290740  1  -1.174084  0  -0.319154  -0.543474  0  2.311975  0
O  O213  1  0.38356739  0.75097479  0.19372137  1  -1.159274  0  -0.31075  -0.537127  0  2.372674  0
O  O214  1  0.38464320  0.86621451  0.19025429  1  -1.156896  0  -0.306809  -0.532115  0  2.311247  0
O  O215  1  0.00123465  0.99992185  0.99995387  1  -1.22217  0  -0.571178  -1.030561  0  2.532984  0
O  O216  1  0.11038482  0.88750055  0.05890435  1  -1.164229  0  -0.312893  -0.540466  0  2.369518  0
O  O217  1  0.95973620  0.15496488  0.05160738  1  -1.160838  0  -0.319771  -0.545708  0  2.315002  0
O  O218  1  0.82836351  0.99893662  0.05610033  1  -1.161729  0  -0.309767  -0.535449  0  2.371524  0
O  O219  1  0.12077665  0.99841773  0.05664810  1  -1.158008  0  -0.308723  -0.537054  0  2.310167  0
O  O220  1  0.94118209  0.88377903  0.05973832  1  -1.147547  0  -0.307971  -0.534212  0  2.313602  0
O  O221  1  0.83603372  0.15559920  0.05184334  1  -1.167806  0  -0.317092  -0.539379  0  2.339452  0
O  O222  1  0.82845887  0.08370701  0.97143201  1  -1.156344  0  -0.310612  -0.536487  0  2.371039  0
O  O223  1  0.10198291  0.87532621  0.91761997  1  -1.172823  0  -0.319857  -0.545987  0  2.336519  0
O  O224  1  0.94125010  0.03161840  0.91201506  1  -1.162077  0  -0.30725  -0.532805  0  2.312389  0
O  O225  1  0.10209362  0.81369275  0.97925203  1  -1.154018  0  -0.315042  -0.535826  0  2.316925  0
O  O226  1  0.12082314  0.08426642  0.97080276  1  -1.150909  0  -0.308649  -0.536665  0  2.311148  0
O  O227  1  0.11037722  0.03210871  0.91426342  1  -1.157869  0  -0.312849  -0.540283  0  2.366489  0
F  F228  1  0.92391150  0.27880583  0.60431208  1  -0.6158  0  -0.093734  -0.109894  0  1.390309  0
F  F229  1  0.82606027  0.22965313  0.65330439  1  -0.613619  0  -0.094158  -0.109973  0  1.388338  0
F  F230  1  0.19357722  0.54606139  0.33717487  1  -0.607954  0  -0.090006  -0.10408  0  1.388987  0
F  F231  1  0.29157141  0.59518633  0.28825746  1  -0.617459  0  -0.088905  -0.102834  0  1.390558  0
F  F232  1  0.92326382  0.54602126  0.33735126  1  -0.609935  0  -0.089116  -0.103339  0  1.390714  0
F  F233  1  0.82540680  0.59517398  0.28829993  1  -0.614677  0  -0.092105  -0.107633  0  1.390589  0
F  F234  1  0.20884921  0.52047872  0.59653123  1  -0.610482  0  -0.094833  -0.110995  0  1.389202  0
F  F235  1  0.30692140  0.47149429  0.64551454  1  -0.615518  0  -0.095584  -0.111769  0  1.388029  0
F  F236  1  0.57619975  0.20397736  0.91289164  1  -0.617606  0  -0.092758  -0.1086  0  1.389654  0
F  F237  1  0.67436880  0.15508202  0.96184929  1  -0.616509  0  -0.090634  -0.105007  0  1.3895  0
F  F238  1  0.29090813  0.09490089  0.78815944  1  -0.621184  0  -0.094272  -0.110062  0  1.388984  0
F  F239  1  0.19294150  0.04592249  0.83722356  1  -0.6108  0  -0.094214  -0.109778  0  1.388819  0
F  F240  1  0.29100092  0.72994500  0.15323102  1  -0.61029  0  -0.090086  -0.104653  0  1.389711  0
F  F241  1  0.19297587  0.77897910  0.10427490  1  -0.612205  0  -0.093495  -0.109247  0  1.38853  0
F  F242  1  0.57615558  0.97136167  0.14559891  1  -0.615301  0  -0.09404  -0.109918  0  1.389647  0
F  F243  1  0.67436844  0.02023987  0.09659545  1  -0.610516  0  -0.090692  -0.104858  0  1.38929  0
