# generated using pymatgen
data_CdP2H12C8(NO2)4
_symmetry_space_group_name_H-M   'P 1'
_cell_length_a   7.19054294
_cell_length_b   12.49052457
_cell_length_c   16.04101119
_cell_angle_alpha   90.00000632
_cell_angle_beta   90.00015811
_cell_angle_gamma   90.00010020
_symmetry_Int_Tables_number   1
_chemical_formula_structural   CdP2H12C8(NO2)4
_chemical_formula_sum   'Cd4 P8 H48 C32 N16 O32'
_cell_volume   1440.70181624
_cell_formula_units_Z   4
loop_
 _symmetry_equiv_pos_site_id
 _symmetry_equiv_pos_as_xyz
  1  'x, y, z'
loop_
 _atom_site_type_symbol
 _atom_site_label
 _atom_site_symmetry_multiplicity
 _atom_site_fract_x
 _atom_site_fract_y
 _atom_site_fract_z
 _atom_site_occupancy
 _atom_site_hle17_bader_spin_density
 _atom_site_hle17_ddec_charge
 _atom_site_hle17_ddec_spin_density
 _atom_site_hle17_ddec_sum_bond_order
 _atom_site_hle17_magmom
 _atom_site_hse06_10hf_bader_spin_density
 _atom_site_hse06_10hf_ddec_charge
 _atom_site_hse06_10hf_ddec_spin_density
 _atom_site_hse06_10hf_ddec_sum_bond_order
 _atom_site_hse06_10hf_magmom
 _atom_site_hse06_bader_spin_density
 _atom_site_hse06_ddec_charge
 _atom_site_hse06_ddec_spin_density
 _atom_site_hse06_ddec_sum_bond_order
 _atom_site_hse06_magmom
 _atom_site_pbe_bader_spin_density
 _atom_site_pbe_cm5_charge
 _atom_site_pbe_ddec_charge
 _atom_site_pbe_ddec_spin_density
 _atom_site_pbe_ddec_sum_bond_order
 _atom_site_pbe_magmom
Cd  Cd0  1  0.00000230  0.50000226  0.50000029  1  0  1.233843  0  1.712667  0  0  1.055514  0  2.172841  0  0  1.104098  0  2.120026  0  0  0.796033  1.0208  0  2.209161  0
Cd  Cd1  1  0.99999724  0.99999861  0.99999871  1  0  1.233768  0  1.712754  0  0  1.055413  0  2.172949  0  0  1.103998  0  2.120141  0  0  0.796005  1.020696  0  2.20927  0
Cd  Cd2  1  0.49999868  0.99999912  0.50000000  1  0  1.233812  0  1.712687  0  0  1.055443  0  2.172915  0  0  1.104025  0  2.120114  0  0  0.796043  1.020735  0  2.209245  0
Cd  Cd3  1  0.50000056  0.50000007  0.00000033  1  0  1.233756  0  1.712829  0  0  1.055409  0  2.173017  0  0  1.103993  0  2.12021  0  0  0.796023  1.020695  0  2.209352  0
P  P4  1  0.75538211  0.35929435  0.16124343  1  0  1.477632  0  4.901924  0  0  1.306466  0  5.416443  0  0  1.359396  0  5.375416  0  0  0.361025  1.269545  0  5.444211  0
P  P5  1  0.24461938  0.14070443  0.66124401  1  0  1.47753  0  4.902178  0  0  1.306544  0  5.41624  0  0  1.359537  0  5.375103  0  0  0.360952  1.269601  0  5.444052  0
P  P6  1  0.74462082  0.85929261  0.83875497  1  0  1.477628  0  4.902046  0  0  1.306483  0  5.416567  0  0  1.359412  0  5.375537  0  0  0.360998  1.26955  0  5.444357  0
P  P7  1  0.25538329  0.64070663  0.33875501  1  0  1.477496  0  4.902168  0  0  1.306347  0  5.416677  0  0  1.359279  0  5.375653  0  0  0.36095  1.269421  0  5.444447  0
P  P8  1  0.24462069  0.64070586  0.83875653  1  0  1.477741  0  4.901823  0  0  1.306776  0  5.415866  0  0  1.35977  0  5.374722  0  0  0.361072  1.269843  0  5.443659  0
P  P9  1  0.75537924  0.85929578  0.33875658  1  0  1.477604  0  4.90198  0  0  1.306706  0  5.415876  0  0  1.359697  0  5.374734  0  0  0.360986  1.26974  0  5.44374  0
P  P10  1  0.25537920  0.14070520  0.16124436  1  0  1.477549  0  4.902034  0  0  1.306569  0  5.416105  0  0  1.359557  0  5.374971  0  0  0.360956  1.26962  0  5.443928  0
P  P11  1  0.74461951  0.35929518  0.66124432  1  0  1.477502  0  4.902055  0  0  1.306324  0  5.416606  0  0  1.35925  0  5.375591  0  0  0.360932  1.269396  0  5.444383  0
H  H12  1  0.40501799  0.32296184  0.25897521  1  0  0.080323  0  0.942374  0  0  0.088124  0  1.008443  0  0  0.090856  0  1.005597  0  0  0.120374  0.086031  0  1.01056  0
H  H13  1  0.59497854  0.17703856  0.75897559  1  0  0.08034  0  0.942394  0  0  0.088146  0  1.008445  0  0  0.09088  0  1.005597  0  0  0.120387  0.086053  0  1.010563  0
H  H14  1  0.09497967  0.82295914  0.74102133  1  0  0.08032  0  0.942437  0  0  0.08811  0  1.008499  0  0  0.090842  0  1.005653  0  0  0.120365  0.086017  0  1.010616  0
H  H15  1  0.90502105  0.67703609  0.24102280  1  0  0.080379  0  0.942368  0  0  0.088164  0  1.008452  0  0  0.090896  0  1.005606  0  0  0.120399  0.086076  0  1.010568  0
H  H16  1  0.59498481  0.67704078  0.74102475  1  0  0.080333  0  0.942335  0  0  0.088111  0  1.008435  0  0  0.090845  0  1.005588  0  0  0.120373  0.086019  0  1.010553  0
H  H17  1  0.40502148  0.82296406  0.24102561  1  0  0.080388  0  0.942293  0  0  0.088129  0  1.008441  0  0  0.090862  0  1.005597  0  0  0.120406  0.086036  0  1.010559  0
H  H18  1  0.90501896  0.17703788  0.25897551  1  0  0.080328  0  0.942398  0  0  0.088111  0  1.008471  0  0  0.090843  0  1.005629  0  0  0.120372  0.086018  0  1.010584  0
H  H19  1  0.09498314  0.32296252  0.75897716  1  0  0.080374  0  0.942306  0  0  0.088159  0  1.008393  0  0  0.090891  0  1.005546  0  0  0.120385  0.086066  0  1.010505  0
H  H20  1  0.56794953  0.40624827  0.49852941  1  0  0.062399  0  0.942618  0  0  0.069048  0  1.012515  0  0  0.071442  0  1.008553  0  0  0.131365  0.067124  0  1.015607  0
H  H21  1  0.43205126  0.09375136  0.99852959  1  0  0.062408  0  0.942615  0  0  0.069066  0  1.012511  0  0  0.071459  0  1.008551  0  0  0.131364  0.06714  0  1.0156  0
H  H22  1  0.93204520  0.90624827  0.50146838  1  0  0.062394  0  0.942604  0  0  0.069047  0  1.012518  0  0  0.071438  0  1.008558  0  0  0.131354  0.067119  0  1.015613  0
H  H23  1  0.06795266  0.59375092  0.00146942  1  0  0.062403  0  0.94259  0  0  0.069063  0  1.012497  0  0  0.071455  0  1.00854  0  0  0.13136  0.067137  0  1.015585  0
H  H24  1  0.43205049  0.59375434  0.50147117  1  0  0.062426  0  0.942592  0  0  0.069075  0  1.012494  0  0  0.071468  0  1.00853  0  0  0.131378  0.067149  0  1.015585  0
H  H25  1  0.56794459  0.90625045  0.00147162  1  0  0.062407  0  0.942596  0  0  0.069081  0  1.012493  0  0  0.071476  0  1.008529  0  0  0.131379  0.067153  0  1.015579  0
H  H26  1  0.06794648  0.09375194  0.49853034  1  0  0.062393  0  0.942593  0  0  0.069051  0  1.012486  0  0  0.071445  0  1.008525  0  0  0.131359  0.067127  0  1.015574  0
H  H27  1  0.93205153  0.40624849  0.99853054  1  0  0.06242  0  0.942565  0  0  0.069096  0  1.01246  0  0  0.07149  0  1.008497  0  0  0.131361  0.06717  0  1.015552  0
H  H28  1  0.96219044  0.43496062  0.31167485  1  0  0.09694  0  0.942702  0  0  0.105407  0  1.0045  0  0  0.108385  0  1.001569  0  0  0.123577  0.103179  0  1.006604  0
H  H29  1  0.03780781  0.06503898  0.81167579  1  0  0.096921  0  0.942711  0  0  0.10538  0  1.004522  0  0  0.108358  0  1.001592  0  0  0.123558  0.103152  0  1.006634  0
H  H30  1  0.53780577  0.93495785  0.68832294  1  0  0.096937  0  0.942718  0  0  0.105388  0  1.004539  0  0  0.108368  0  1.001605  0  0  0.123559  0.103156  0  1.006657  0
H  H31  1  0.46219185  0.56503897  0.18832509  1  0  0.096907  0  0.942692  0  0  0.105373  0  1.004492  0  0  0.108351  0  1.001561  0  0  0.123558  0.103144  0  1.006601  0
H  H32  1  0.03781654  0.56503719  0.68832822  1  0  0.096984  0  0.942658  0  0  0.105449  0  1.004466  0  0  0.108427  0  1.001537  0  0  0.123591  0.103219  0  1.006576  0
H  H33  1  0.96218943  0.93496363  0.18832604  1  0  0.096961  0  0.942659  0  0  0.10541  0  1.004478  0  0  0.108387  0  1.001551  0  0  0.123564  0.10318  0  1.006583  0
H  H34  1  0.46219008  0.06504076  0.31167765  1  0  0.096977  0  0.942686  0  0  0.105432  0  1.004504  0  0  0.108412  0  1.00157  0  0  0.123586  0.103201  0  1.006618  0
H  H35  1  0.53780956  0.43496045  0.81167611  1  0  0.096945  0  0.942688  0  0  0.105403  0  1.004499  0  0  0.108381  0  1.001568  0  0  0.12358  0.103173  0  1.006611  0
H  H36  1  0.79308306  0.69290168  0.46261724  1  0  0.428914  0  0.869206  0  0  0.397854  0  0.932102  0  0  0.408201  0  0.917132  0  0  0.28623  0.390515  0  0.942695  0
H  H37  1  0.20691903  0.80709839  0.96261840  1  0  0.428941  0  0.869155  0  0  0.397882  0  0.932046  0  0  0.408231  0  0.917074  0  0  0.28624  0.39054  0  0.942646  0
H  H38  1  0.70691797  0.19290262  0.53738240  1  0  0.428934  0  0.86918  0  0  0.397877  0  0.932069  0  0  0.408225  0  0.917097  0  0  0.286238  0.390537  0  0.942663  0
H  H39  1  0.29308276  0.30709694  0.03738312  1  0  0.428896  0  0.869227  0  0  0.397836  0  0.932123  0  0  0.408184  0  0.917152  0  0  0.286221  0.390496  0  0.942718  0
H  H40  1  0.20691696  0.30709613  0.53738210  1  0  0.428898  0  0.869211  0  0  0.397834  0  0.932114  0  0  0.408182  0  0.917143  0  0  0.286212  0.390492  0  0.942713  0
H  H41  1  0.79308099  0.19290263  0.03738343  1  0  0.4289  0  0.869225  0  0  0.397837  0  0.932121  0  0  0.408187  0  0.917149  0  0  0.286215  0.390496  0  0.942719  0
H  H42  1  0.29308344  0.80709759  0.46261631  1  0  0.428937  0  0.869176  0  0  0.397886  0  0.932051  0  0  0.408235  0  0.91708  0  0  0.286257  0.390544  0  0.942651  0
H  H43  1  0.70691865  0.69290167  0.96261746  1  0  0.428922  0  0.869195  0  0  0.397867  0  0.932081  0  0  0.408215  0  0.91711  0  0  0.286234  0.390529  0  0.942672  0
H  H44  1  0.73169989  0.65816332  0.55583327  1  0  0.388459  0  0.929809  0  0  0.346498  0  1.011916  0  0  0.357558  0  0.996322  0  0  0.27749  0.338741  0  1.022812  0
H  H45  1  0.26829969  0.84183908  0.05583458  1  0  0.38848  0  0.929806  0  0  0.346523  0  1.011913  0  0  0.357584  0  0.996319  0  0  0.277496  0.338768  0  1.022803  0
H  H46  1  0.76829964  0.15816191  0.44416699  1  0  0.388457  0  0.929814  0  0  0.346507  0  1.011904  0  0  0.357567  0  0.996311  0  0  0.277492  0.338752  0  1.022797  0
H  H47  1  0.23169803  0.34183771  0.94416757  1  0  0.388465  0  0.929796  0  0  0.346507  0  1.011904  0  0  0.357568  0  0.996311  0  0  0.277486  0.338752  0  1.022794  0
H  H48  1  0.26830152  0.34183769  0.44416669  1  0  0.388486  0  0.929806  0  0  0.346526  0  1.011912  0  0  0.357588  0  0.996319  0  0  0.277507  0.33877  0  1.022806  0
H  H49  1  0.73169616  0.15816273  0.94416787  1  0  0.388461  0  0.929835  0  0  0.34651  0  1.011929  0  0  0.357571  0  0.996334  0  0  0.277494  0.338752  0  1.022825  0
H  H50  1  0.23169760  0.84183670  0.55583172  1  0  0.388474  0  0.929789  0  0  0.346519  0  1.011893  0  0  0.35758  0  0.9963  0  0  0.277483  0.338764  0  1.022784  0
H  H51  1  0.76830338  0.65816170  0.05583302  1  0  0.388449  0  0.929846  0  0  0.346497  0  1.011941  0  0  0.357559  0  0.996347  0  0  0.277482  0.338739  0  1.022837  0
H  H52  1  0.06617816  0.32924002  0.15016203  1  0  0.445652  0  0.858611  0  0  0.407864  0  0.932471  0  0  0.42009  0  0.915078  0  0  0.301354  0.399295  0  0.944617  0
H  H53  1  0.93382187  0.17076116  0.65016159  1  0  0.445623  0  0.858644  0  0  0.407831  0  0.932516  0  0  0.420057  0  0.915123  0  0  0.301338  0.399264  0  0.944656  0
H  H54  1  0.43381952  0.82923527  0.84983762  1  0  0.445651  0  0.858602  0  0  0.407883  0  0.93244  0  0  0.420111  0  0.915045  0  0  0.301334  0.399317  0  0.944581  0
H  H55  1  0.56618048  0.67076237  0.34983680  1  0  0.445671  0  0.858576  0  0  0.407903  0  0.932417  0  0  0.42013  0  0.915023  0  0  0.301349  0.399334  0  0.944564  0
H  H56  1  0.93382325  0.67076099  0.84983730  1  0  0.445633  0  0.858639  0  0  0.407863  0  0.932478  0  0  0.420088  0  0.915086  0  0  0.301341  0.399292  0  0.944628  0
H  H57  1  0.06617815  0.82923745  0.34983775  1  0  0.445671  0  0.858585  0  0  0.407895  0  0.932429  0  0  0.420121  0  0.915036  0  0  0.30135  0.399328  0  0.944572  0
H  H58  1  0.56617772  0.17076014  0.15016171  1  0  0.445656  0  0.858597  0  0  0.407875  0  0.932455  0  0  0.420101  0  0.915063  0  0  0.301337  0.399306  0  0.944601  0
H  H59  1  0.43382371  0.32923784  0.65016191  1  0  0.445658  0  0.858603  0  0  0.407856  0  0.932486  0  0  0.420084  0  0.915091  0  0  0.301333  0.399288  0  0.944631  0
C  C60  1  0.69456369  0.37215127  0.27085806  1  0  -0.333204  0  3.7059  0  0  -0.286576  0  3.958671  0  0  -0.305014  0  3.980028  0  0  -0.014467  -0.274927  0  3.944761  0
C  C61  1  0.30543291  0.12784672  0.77085683  1  0  -0.33317  0  3.705899  0  0  -0.286575  0  3.958673  0  0  -0.305023  0  3.980035  0  0  -0.014474  -0.274923  0  3.944769  0
C  C62  1  0.80543232  0.87214798  0.72914035  1  0  -0.333043  0  3.705798  0  0  -0.28647  0  3.958614  0  0  -0.304909  0  3.979972  0  0  -0.014409  -0.274823  0  3.944714  0
C  C63  1  0.19456833  0.62784805  0.22914156  1  0  -0.333136  0  3.705993  0  0  -0.286494  0  3.958738  0  0  -0.304933  0  3.980095  0  0  -0.014425  -0.274839  0  3.944828  0
C  C64  1  0.30543911  0.62784974  0.72914440  1  0  -0.33333  0  3.7061  0  0  -0.286711  0  3.958853  0  0  -0.30516  0  3.980215  0  0  -0.014449  -0.275054  0  3.944937  0
C  C65  1  0.69456850  0.87215429  0.22914250  1  0  -0.333175  0  3.705958  0  0  -0.286592  0  3.958712  0  0  -0.305041  0  3.980077  0  0  -0.014478  -0.27494  0  3.944806  0
C  C66  1  0.19456631  0.12784903  0.27085836  1  0  -0.333144  0  3.705926  0  0  -0.286553  0  3.958696  0  0  -0.305  0  3.980057  0  0  -0.01447  -0.2749  0  3.944788  0
C  C67  1  0.80543586  0.37215297  0.77085840  1  0  -0.333169  0  3.705939  0  0  -0.286547  0  3.958715  0  0  -0.304984  0  3.980072  0  0  -0.014459  -0.274902  0  3.944811  0
C  C68  1  0.51551330  0.34949641  0.30100505  1  0  0.216113  0  3.632015  0  0  0.170833  0  3.886809  0  0  0.182879  0  3.900895  0  0  0.083642  0.163244  0  3.877211  0
C  C69  1  0.48448767  0.15050319  0.80100654  1  0  0.216052  0  3.632054  0  0  0.170774  0  3.886864  0  0  0.182818  0  3.900956  0  0  0.083618  0.163183  0  3.877269  0
C  C70  1  0.98448404  0.84949329  0.69899211  1  0  0.216014  0  3.631981  0  0  0.170775  0  3.886795  0  0  0.182822  0  3.900879  0  0  0.083666  0.163189  0  3.877194  0
C  C71  1  0.01551364  0.65050273  0.19899373  1  0  0.21607  0  3.631975  0  0  0.170799  0  3.886785  0  0  0.182846  0  3.900868  0  0  0.083647  0.163202  0  3.877192  0
C  C72  1  0.48449229  0.65050620  0.69899616  1  0  0.216154  0  3.631954  0  0  0.170879  0  3.886777  0  0  0.182922  0  3.900867  0  0  0.08362  0.163294  0  3.877176  0
C  C73  1  0.51551096  0.84949782  0.19899654  1  0  0.216098  0  3.631791  0  0  0.170845  0  3.886643  0  0  0.182886  0  3.900736  0  0  0.083618  0.163259  0  3.877045  0
C  C74  1  0.01551459  0.15050372  0.30100598  1  0  0.216101  0  3.632015  0  0  0.170853  0  3.886841  0  0  0.182897  0  3.900931  0  0  0.083687  0.163265  0  3.877234  0
C  C75  1  0.98448777  0.34949749  0.80100624  1  0  0.216094  0  3.631924  0  0  0.170836  0  3.886729  0  0  0.182881  0  3.900815  0  0  0.083666  0.163248  0  3.877123  0
C  C76  1  0.60317058  0.39726388  0.43267698  1  0  0.317101  0  3.692269  0  0  0.261857  0  3.966641  0  0  0.278092  0  3.976294  0  0  0.191779  0.251128  0  3.960162  0
C  C77  1  0.39683120  0.10273655  0.93267711  1  0  0.317042  0  3.692315  0  0  0.261763  0  3.966761  0  0  0.277998  0  3.976417  0  0  0.191733  0.251044  0  3.960267  0
C  C78  1  0.89682551  0.89726225  0.56732019  1  0  0.317083  0  3.692284  0  0  0.261775  0  3.966757  0  0  0.27801  0  3.976414  0  0  0.191766  0.251054  0  3.960269  0
C  C79  1  0.10317136  0.60273535  0.06732190  1  0  0.317097  0  3.692278  0  0  0.261812  0  3.966733  0  0  0.278044  0  3.976393  0  0  0.191781  0.251093  0  3.960239  0
C  C80  1  0.39683083  0.60273794  0.56732485  1  0  0.317047  0  3.692302  0  0  0.261793  0  3.966684  0  0  0.278028  0  3.976335  0  0  0.191756  0.251075  0  3.960197  0
C  C81  1  0.60316604  0.89726687  0.06732409  1  0  0.317122  0  3.692295  0  0  0.261792  0  3.966769  0  0  0.278025  0  3.976423  0  0  0.191712  0.251071  0  3.960277  0
C  C82  1  0.10316755  0.10273716  0.43267728  1  0  0.317096  0  3.69235  0  0  0.261844  0  3.966773  0  0  0.278075  0  3.976429  0  0  0.191747  0.251117  0  3.960289  0
C  C83  1  0.89683144  0.39726406  0.93267806  1  0  0.316974  0  3.692231  0  0  0.261664  0  3.966708  0  0  0.277897  0  3.976363  0  0  0.191709  0.25094  0  3.960224  0
C  C84  1  0.82129706  0.41158683  0.32908140  1  0  0.206887  0  3.650331  0  0  0.160698  0  3.898556  0  0  0.1727  0  3.91447  0  0  0.076332  0.153045  0  3.887727  0
C  C85  1  0.17869990  0.08841197  0.82908064  1  0  0.206856  0  3.650191  0  0  0.160675  0  3.898437  0  0  0.172676  0  3.914358  0  0  0.076341  0.153022  0  3.887616  0
C  C86  1  0.67870046  0.91158420  0.67091701  1  0  0.206884  0  3.650367  0  0  0.160711  0  3.898592  0  0  0.172714  0  3.914506  0  0  0.076372  0.153063  0  3.887763  0
C  C87  1  0.32130122  0.58841181  0.17091900  1  0  0.206885  0  3.650204  0  0  0.1607  0  3.89844  0  0  0.172704  0  3.914353  0  0  0.076336  0.15305  0  3.887611  0
C  C88  1  0.17870713  0.58841178  0.67092043  1  0  0.206896  0  3.650371  0  0  0.160676  0  3.89863  0  0  0.172676  0  3.914551  0  0  0.076335  0.153023  0  3.887803  0
C  C89  1  0.82129594  0.91159064  0.17091994  1  0  0.206842  0  3.65032  0  0  0.160661  0  3.898536  0  0  0.172662  0  3.914457  0  0  0.076362  0.15301  0  3.887703  0
C  C90  1  0.32129677  0.08841441  0.32908295  1  0  0.206821  0  3.650287  0  0  0.160631  0  3.89856  0  0  0.172631  0  3.91448  0  0  0.076311  0.152984  0  3.887732  0
C  C91  1  0.67870297  0.41158680  0.82908159  1  0  0.206849  0  3.650322  0  0  0.160667  0  3.898557  0  0  0.17267  0  3.91447  0  0  0.076318  0.153018  0  3.887733  0
N  N92  1  0.47092722  0.36023574  0.38167699  1  0  -0.329796  0  3.091108  0  0  -0.266735  0  3.34695  0  0  -0.28384  0  3.359058  0  0  -0.294183  -0.255534  0  3.338768  0
N  N93  1  0.52906868  0.13976308  0.88167667  1  0  -0.329732  0  3.091306  0  0  -0.266658  0  3.347153  0  0  -0.283763  0  3.359261  0  0  -0.294146  -0.255459  0  3.338968  0
N  N94  1  0.02906778  0.86023455  0.61831955  1  0  -0.329801  0  3.091137  0  0  -0.266747  0  3.34702  0  0  -0.283854  0  3.359131  0  0  -0.294267  -0.255545  0  3.338831  0
N  N95  1  0.97093080  0.63976306  0.11832047  1  0  -0.329844  0  3.091198  0  0  -0.266777  0  3.347057  0  0  -0.283882  0  3.359164  0  0  -0.294241  -0.255575  0  3.338875  0
N  N96  1  0.52907419  0.63976608  0.61832297  1  0  -0.329766  0  3.091166  0  0  -0.266699  0  3.347003  0  0  -0.283804  0  3.359112  0  0  -0.294151  -0.255503  0  3.338824  0
N  N97  1  0.47092717  0.86023874  0.11832267  1  0  -0.32978  0  3.091089  0  0  -0.266694  0  3.34694  0  0  -0.283798  0  3.359051  0  0  -0.294111  -0.255496  0  3.338755  0
N  N98  1  0.97092807  0.13976406  0.38167792  1  0  -0.329809  0  3.091205  0  0  -0.26678  0  3.347072  0  0  -0.283884  0  3.359181  0  0  -0.294209  -0.255577  0  3.338886  0
N  N99  1  0.02907200  0.36023635  0.88167824  1  0  -0.329794  0  3.091131  0  0  -0.266724  0  3.347003  0  0  -0.28383  0  3.359113  0  0  -0.294199  -0.255523  0  3.338814  0
N  N100  1  0.77484743  0.42528040  0.40952206  1  0  -0.363033  0  3.188749  0  0  -0.286527  0  3.462497  0  0  -0.308178  0  3.476312  0  0  -0.317745  -0.272062  0  3.452949  0
N  N101  1  0.22515003  0.07471842  0.90952260  1  0  -0.362932  0  3.188461  0  0  -0.286445  0  3.462254  0  0  -0.308095  0  3.476066  0  0  -0.317689  -0.271981  0  3.452704  0
N  N102  1  0.72515014  0.92527940  0.59047573  1  0  -0.363017  0  3.188734  0  0  -0.286463  0  3.462457  0  0  -0.308115  0  3.476277  0  0  -0.31771  -0.271997  0  3.452905  0
N  N103  1  0.27484966  0.57471740  0.09047703  1  0  -0.362961  0  3.188479  0  0  -0.286469  0  3.462277  0  0  -0.308119  0  3.476089  0  0  -0.31771  -0.272003  0  3.452723  0
N  N104  1  0.22515398  0.57471821  0.59048039  1  0  -0.363036  0  3.188734  0  0  -0.286528  0  3.462504  0  0  -0.308176  0  3.476313  0  0  -0.31777  -0.272064  0  3.452956  0
N  N105  1  0.77484443  0.92528580  0.09047860  1  0  -0.363121  0  3.188649  0  0  -0.286577  0  3.462409  0  0  -0.308227  0  3.47622  0  0  -0.317793  -0.272109  0  3.452853  0
N  N106  1  0.27484432  0.07472001  0.40952361  1  0  -0.363006  0  3.188665  0  0  -0.286518  0  3.462446  0  0  -0.308168  0  3.476263  0  0  -0.317715  -0.272053  0  3.452901  0
N  N107  1  0.72515314  0.42528121  0.90952293  1  0  -0.362895  0  3.188613  0  0  -0.286381  0  3.462384  0  0  -0.308032  0  3.4762  0  0  -0.317685  -0.271916  0  3.452836  0
O  O108  1  0.96835076  0.38973833  0.15662229  1  0  -0.761191  0  2.027182  0  0  -0.690916  0  2.265485  0  0  -0.713944  0  2.242113  0  0  -0.387972  -0.67466  0  2.281388  0
O  O109  1  0.03164792  0.11025965  0.65662197  1  0  -0.761094  0  2.027127  0  0  -0.690831  0  2.265349  0  0  -0.713873  0  2.241974  0  0  -0.38793  -0.674572  0  2.28125  0
O  O110  1  0.53165087  0.88973558  0.84337550  1  0  -0.761217  0  2.027139  0  0  -0.690936  0  2.265391  0  0  -0.713966  0  2.242018  0  0  -0.387926  -0.674673  0  2.281295  0
O  O111  1  0.46835327  0.61026286  0.34337705  1  0  -0.761157  0  2.027103  0  0  -0.690878  0  2.265338  0  0  -0.713905  0  2.241966  0  0  -0.387894  -0.674614  0  2.281242  0
O  O112  1  0.03165065  0.61026188  0.84337767  1  0  -0.761196  0  2.027128  0  0  -0.690969  0  2.265361  0  0  -0.71401  0  2.241982  0  0  -0.387983  -0.674708  0  2.281262  0
O  O113  1  0.96835071  0.88973736  0.34337861  1  0  -0.761183  0  2.027103  0  0  -0.690941  0  2.265318  0  0  -0.713981  0  2.241938  0  0  -0.387936  -0.674675  0  2.281222  0
O  O114  1  0.46835054  0.11026063  0.15662259  1  0  -0.761168  0  2.027198  0  0  -0.690896  0  2.2654  0  0  -0.713938  0  2.242025  0  0  -0.387898  -0.674632  0  2.281308  0
O  O115  1  0.53164814  0.38973895  0.65662229  1  0  -0.761126  0  2.027099  0  0  -0.690818  0  2.265384  0  0  -0.713845  0  2.242013  0  0  -0.387882  -0.674558  0  2.281287  0
O  O116  1  0.72803621  0.24264191  0.13556984  1  0  -0.846584  0  1.978065  0  0  -0.75656  0  2.211437  0  0  -0.783064  0  2.189978  0  0  -0.360571  -0.737692  0  2.225762  0
O  O117  1  0.27196373  0.25735527  0.63556984  1  0  -0.846594  0  1.978222  0  0  -0.75658  0  2.211566  0  0  -0.783102  0  2.190098  0  0  -0.360587  -0.737705  0  2.225896  0
O  O118  1  0.77196219  0.74263780  0.86442731  1  0  -0.846624  0  1.978054  0  0  -0.756625  0  2.211441  0  0  -0.783126  0  2.189981  0  0  -0.360627  -0.737749  0  2.225772  0
O  O119  1  0.22804208  0.75736225  0.36442608  1  0  -0.84657  0  1.978107  0  0  -0.756569  0  2.211487  0  0  -0.783075  0  2.190031  0  0  -0.360603  -0.737694  0  2.225814  0
O  O120  1  0.27196102  0.75736071  0.86443074  1  0  -0.846596  0  1.978056  0  0  -0.756615  0  2.211389  0  0  -0.783139  0  2.18992  0  0  -0.360607  -0.737745  0  2.225718  0
O  O121  1  0.72803768  0.74264094  0.36442888  1  0  -0.846577  0  1.978017  0  0  -0.756607  0  2.211339  0  0  -0.783125  0  2.189869  0  0  -0.360564  -0.737731  0  2.225675  0
O  O122  1  0.22803783  0.25735761  0.13557078  1  0  -0.846528  0  1.978053  0  0  -0.756533  0  2.211398  0  0  -0.783049  0  2.18993  0  0  -0.36054  -0.737658  0  2.225732  0
O  O123  1  0.77196351  0.24264197  0.63557077  1  0  -0.846528  0  1.978081  0  0  -0.756519  0  2.211481  0  0  -0.783021  0  2.190024  0  0  -0.360551  -0.737645  0  2.225802  0
O  O124  1  0.64313467  0.44406415  0.11750111  1  0  -0.86015  0  2.016415  0  0  -0.774748  0  2.30267  0  0  -0.804538  0  2.281151  0  0  -0.381829  -0.753345  0  2.316738  0
O  O125  1  0.35685960  0.05593222  0.61750057  1  0  -0.860122  0  2.016452  0  0  -0.774714  0  2.30258  0  0  -0.804519  0  2.281052  0  0  -0.381775  -0.753306  0  2.316653  0
O  O126  1  0.85686295  0.94405853  0.88249668  1  0  -0.860081  0  2.016541  0  0  -0.774692  0  2.302823  0  0  -0.804482  0  2.281301  0  0  -0.381775  -0.753282  0  2.316896  0
O  O127  1  0.14313864  0.55593992  0.38249969  1  0  -0.860069  0  2.016457  0  0  -0.774697  0  2.302737  0  0  -0.804487  0  2.281214  0  0  -0.381799  -0.753289  0  2.316806  0
O  O128  1  0.35686535  0.55593847  0.88250134  1  0  -0.860175  0  2.016423  0  0  -0.774778  0  2.302604  0  0  -0.804584  0  2.281074  0  0  -0.381821  -0.753373  0  2.316672  0
O  O129  1  0.64313903  0.94406238  0.38250001  1  0  -0.860111  0  2.016421  0  0  -0.774744  0  2.302606  0  0  -0.804547  0  2.281074  0  0  -0.381813  -0.753331  0  2.316682  0
O  O130  1  0.14313707  0.05593768  0.11750079  1  0  -0.860121  0  2.016435  0  0  -0.774753  0  2.302662  0  0  -0.804557  0  2.281132  0  0  -0.381828  -0.753341  0  2.316734  0
O  O131  1  0.85686138  0.44406589  0.61750090  1  0  -0.860163  0  2.01646  0  0  -0.774749  0  2.302677  0  0  -0.804537  0  2.281154  0  0  -0.38183  -0.753343  0  2.316746  0
O  O132  1  0.83853176  0.66185017  0.51587513  1  0  -0.843409  0  1.881378  0  0  -0.780381  0  2.087499  0  0  -0.803113  0  2.055292  0  0  -0.594415  -0.764072  0  2.109764  0
O  O133  1  0.16146757  0.83815143  0.01587631  1  0  -0.843461  0  1.881347  0  0  -0.78043  0  2.087439  0  0  -0.803161  0  2.055228  0  0  -0.594441  -0.764124  0  2.10971  0
O  O134  1  0.66146917  0.16185026  0.48412451  1  0  -0.843419  0  1.881352  0  0  -0.7804  0  2.08748  0  0  -0.80313  0  2.055273  0  0  -0.59443  -0.764094  0  2.109746  0
O  O135  1  0.33853292  0.33814937  0.98412521  1  0  -0.843384  0  1.881336  0  0  -0.780369  0  2.087457  0  0  -0.803101  0  2.055252  0  0  -0.594408  -0.764062  0  2.109724  0
O  O136  1  0.16146825  0.33815085  0.48412421  1  0  -0.843414  0  1.881334  0  0  -0.780402  0  2.08747  0  0  -0.803132  0  2.055261  0  0  -0.594426  -0.764095  0  2.109741  0
O  O137  1  0.83852967  0.16185038  0.98412489  1  0  -0.843382  0  1.881377  0  0  -0.780355  0  2.087486  0  0  -0.803089  0  2.055278  0  0  -0.594414  -0.764049  0  2.109754  0
O  O138  1  0.33853085  0.83814916  0.51587483  1  0  -0.843444  0  1.881325  0  0  -0.780432  0  2.087458  0  0  -0.803163  0  2.055251  0  0  -0.594441  -0.764122  0  2.109729  0
O  O139  1  0.66146988  0.66185004  0.01587537  1  0  -0.843399  0  1.881379  0  0  -0.780379  0  2.087492  0  0  -0.803111  0  2.055284  0  0  -0.594421  -0.764073  0  2.109762  0
