# generated using pymatgen
data_CdH18C23N8O5
_symmetry_space_group_name_H-M   'P 1'
_cell_length_a   12.56022488
_cell_length_b   15.02945731
_cell_length_c   14.99413202
_cell_angle_alpha   67.37602357
_cell_angle_beta   77.36151508
_cell_angle_gamma   76.50833204
_symmetry_Int_Tables_number   1
_chemical_formula_structural   CdH18C23N8O5
_chemical_formula_sum   'Cd4 H72 C92 N32 O20'
_cell_volume   2514.18797258
_cell_formula_units_Z   4
loop_
 _symmetry_equiv_pos_site_id
 _symmetry_equiv_pos_as_xyz
  1  'x, y, z'
loop_
 _atom_site_type_symbol
 _atom_site_label
 _atom_site_symmetry_multiplicity
 _atom_site_fract_x
 _atom_site_fract_y
 _atom_site_fract_z
 _atom_site_occupancy
 _atom_site_pbe_bader_charge
 _atom_site_pbe_bader_spin_density
 _atom_site_pbe_cm5_charge
 _atom_site_pbe_ddec_charge
 _atom_site_pbe_ddec_spin_density
 _atom_site_pbe_ddec_sum_bond_order
 _atom_site_pbe_magmom
Cd  Cd0  1  0.84872644  0.06814984  0.32695408  1  1.275889  0  0.754071  0.879761  0  2.172309  0
Cd  Cd1  1  0.15127813  0.93185452  0.67304669  1  1.27586  0  0.754066  0.879711  0  2.172328  0
Cd  Cd2  1  0.43130643  0.62908601  0.07212528  1  1.27278  0  0.758192  0.881869  0  2.153676  0
Cd  Cd3  1  0.56869526  0.37091545  0.92787252  1  1.272884  0  0.758213  0.881896  0  2.153639  0
H  H4  1  0.99713783  0.83688008  0.93406844  1  0.215535  0  0.137508  0.132393  0  1.029687  0
H  H5  1  0.00285310  0.16311853  0.06593797  1  0.215384  0  0.1375  0.132357  0  1.029669  0
H  H6  1  0.95607694  0.92401489  0.99640872  1  0.143764  0  0.134188  0.100193  0  1.000191  0
H  H7  1  0.04391854  0.07598149  0.00360030  1  0.143672  0  0.134158  0.100152  0  1.000301  0
H  H8  1  0.91087443  0.90164139  0.22590355  1  0.157894  0  0.116146  0.085957  0  1.049448  0
H  H9  1  0.08912707  0.09836225  0.77410079  1  0.15772  0  0.11618  0.085988  0  1.049462  0
H  H10  1  0.17815593  0.70143066  0.98698993  1  0.198312  0  0.152047  0.134244  0  0.978511  0
H  H11  1  0.82183997  0.29856647  0.01300938  1  0.198399  0  0.152045  0.134271  0  0.978444  0
H  H12  1  0.32731744  0.58605149  0.28441007  1  0.189791  0  0.121348  0.108567  0  1.041328  0
H  H13  1  0.67267892  0.41394783  0.71558964  1  0.189615  0  0.121344  0.108503  0  1.041425  0
H  H14  1  0.10099044  0.28702201  0.07359284  1  0.092026  0  0.093183  0.088051  0  1.071641  0
H  H15  1  0.89901340  0.71297653  0.92640566  1  0.091973  0  0.093212  0.088077  0  1.071646  0
H  H16  1  0.07816400  0.26773247  0.37054833  1  0.105004  0  0.099752  0.09607  0  1.030668  0
H  H17  1  0.92184415  0.73227406  0.62944687  1  0.105371  0  0.099752  0.095977  0  1.03064  0
H  H18  1  0.27800489  0.78733623  0.48644314  1  0.098962  0  0.133698  0.101074  0  0.992395  0
H  H19  1  0.72199572  0.21266232  0.51355734  1  0.098982  0  0.133705  0.101057  0  0.99243  0
H  H20  1  0.15155892  0.77046103  0.56933245  1  0.230164  0  0.143404  0.128996  0  1.015866  0
H  H21  1  0.84844074  0.22954264  0.43066490  1  0.230049  0  0.143423  0.129038  0  1.015818  0
H  H22  1  0.56954549  0.09242005  0.09072060  1  0.141006  0  0.108736  0.122659  0  1.033796  0
H  H23  1  0.43045825  0.90757921  0.90927831  1  0.140999  0  0.108734  0.122648  0  1.033789  0
H  H24  1  0.62117285  0.81314458  0.55493713  1  0.069854  0  0.099593  0.103926  0  1.005726  0
H  H25  1  0.37883424  0.18685832  0.44505703  1  0.069926  0  0.099602  0.103914  0  1.005789  0
H  H26  1  0.19863757  0.39609605  0.31438745  1  0.086084  0  0.104362  0.107069  0  1.008189  0
H  H27  1  0.80136561  0.60391490  0.68560371  1  0.086175  0  0.104322  0.106995  0  1.008299  0
H  H28  1  0.27860956  0.84508115  0.13798071  1  0.14246  0  0.138407  0.106633  0  0.972942  0
H  H29  1  0.72139386  0.15491448  0.86201433  1  0.142382  0  0.13843  0.106595  0  0.973042  0
H  H30  1  0.98352788  0.87974366  0.50671140  1  0.217717  0  0.14823  0.131625  0  1.004235  0
H  H31  1  0.01647313  0.12025708  0.49328682  1  0.217675  0  0.148251  0.13165  0  1.004269  0
H  H32  1  0.21716339  0.41770629  0.01798338  1  0.07759  0  0.098359  0.099257  0  1.034559  0
H  H33  1  0.78284001  0.58229444  0.98201236  1  0.077698  0  0.098367  0.099351  0  1.034526  0
H  H34  1  0.54136042  0.71369704  0.72436468  1  0.083678  0  0.102153  0.103678  0  1.010722  0
H  H35  1  0.45864506  0.28630515  0.27562607  1  0.083142  0  0.102141  0.1037  0  1.010647  0
H  H36  1  0.57461425  0.79707551  0.28068347  1  0.108117  0  0.112175  0.121217  0  0.998998  0
H  H37  1  0.42538293  0.20292013  0.71932349  1  0.108089  0  0.112145  0.121221  0  0.998943  0
H  H38  1  0.68090192  0.58574534  0.29346138  1  0.119053  0  0.108559  0.117763  0  1.017983  0
H  H39  1  0.31909521  0.41424593  0.70654662  1  0.119957  0  0.10858  0.11774  0  1.017958  0
H  H40  1  0.65219439  0.88953775  0.84163399  1  0.07613  0  0.097617  0.098202  0  1.00763  0
H  H41  1  0.34780323  0.11045936  0.15836832  1  0.076056  0  0.097611  0.098196  0  1.007636  0
H  H42  1  0.72969930  0.98997041  0.67261027  1  0.10187  0  0.095042  0.099337  0  1.0397  0
H  H43  1  0.27030063  0.01002813  0.32739502  1  0.101838  0  0.095058  0.099338  0  1.039645  0
H  H44  1  0.94956867  0.50807702  0.08799023  1  0.105496  0  0.112671  0.121673  0  1.002877  0
H  H45  1  0.05043028  0.49192226  0.91201363  1  0.105427  0  0.112646  0.121633  0  1.002962  0
H  H46  1  0.10389629  0.96621106  0.20586672  1  0.103371  0  0.133467  0.098935  0  0.99022  0
H  H47  1  0.89611035  0.03379036  0.79413210  1  0.103297  0  0.133467  0.098974  0  0.990231  0
H  H48  1  0.57296738  0.75335454  0.13532389  1  0.144544  0  0.116948  0.093586  0  1.007007  0
H  H49  1  0.42703199  0.24664254  0.86468208  1  0.144517  0  0.11695  0.093602  0  1.006998  0
H  H50  1  0.64513539  0.92753698  0.07318723  1  0.061017  0  0.115015  0.117081  0  0.972221  0
H  H51  1  0.35486634  0.07245643  0.92682234  1  0.060965  0  0.115022  0.117094  0  0.972242  0
H  H52  1  0.97607399  0.50477577  0.67384068  1  0.112797  0  0.105027  0.114263  0  1.036539  0
H  H53  1  0.02392088  0.49522721  0.32615724  1  0.112845  0  0.105036  0.114262  0  1.036541  0
H  H54  1  0.62832537  0.42158647  0.33879862  1  0.065272  0  0.114702  0.079158  0  0.97149  0
H  H55  1  0.37167179  0.57840408  0.66120631  1  0.065252  0  0.114719  0.079188  0  0.971545  0
H  H56  1  0.66965069  0.14960992  0.18101344  1  0.154582  0  0.116242  0.096683  0  1.026516  0
H  H57  1  0.33035304  0.85039373  0.81898243  1  0.154643  0  0.116215  0.096696  0  1.026508  0
H  H58  1  0.88604263  0.34724594  0.14163361  1  0.134283  0  0.115708  0.085507  0  1.016927  0
H  H59  1  0.11395819  0.65275187  0.85836978  1  0.134187  0  0.115696  0.085555  0  1.016904  0
H  H60  1  0.22447168  0.35942183  0.50406559  1  0.110319  0  0.107884  0.118419  0  1.002302  0
H  H61  1  0.77552321  0.64058115  0.49593300  1  0.110253  0  0.107892  0.118431  0  1.002318  0
H  H62  1  0.13527284  0.21085881  0.58972823  1  0.108383  0  0.104849  0.08125  0  1.031737  0
H  H63  1  0.86472569  0.78914267  0.41027421  1  0.108343  0  0.104823  0.081224  0  1.031701  0
H  H64  1  0.44118999  0.73586292  0.43164786  1  0.070714  0  0.11329  0.111743  0  0.983637  0
H  H65  1  0.55880429  0.26413494  0.56835683  1  0.070799  0  0.113306  0.111763  0  0.983687  0
H  H66  1  0.89281459  0.35278975  0.74916666  1  0.083784  0  0.104634  0.076715  0  0.996541  0
H  H67  1  0.10717802  0.64721251  0.25083399  1  0.083871  0  0.104653  0.076743  0  0.996587  0
H  H68  1  0.52904717  0.43169900  0.12529439  1  0.667615  0  0.293567  0.39423  0  0.933825  0
H  H69  1  0.47095400  0.56829957  0.87469663  1  0.667671  0  0.293607  0.394242  0  0.933825  0
H  H70  1  0.62141460  0.48616841  0.05461204  1  0.652044  0  0.286892  0.388408  0  0.951956  0
H  H71  1  0.37858720  0.51383161  0.94538096  1  0.652209  0  0.28694  0.388551  0  0.951761  0
H  H72  1  0.64061343  0.19403667  0.34115158  1  0.587928  0  0.310311  0.383474  0  0.906699  0
H  H73  1  0.35939052  0.80596185  0.65885090  1  0.58807  0  0.310325  0.383446  0  0.906738  0
H  H74  1  0.72114279  0.27317478  0.27283675  1  0.625305  0  0.272774  0.320156  0  1.053261  0
H  H75  1  0.27885848  0.72682450  0.72716198  1  0.625312  0  0.272779  0.320175  0  1.05323  0
C  C76  1  0.00571804  0.19620812  0.25804213  1  1.557208  0  0.194257  0.560309  0  4.223435  0
C  C77  1  0.99429154  0.80379109  0.74196029  1  1.55748  0  0.194194  0.560283  0  4.223289  0
C  C78  1  0.28065253  0.49520245  0.12975349  1  1.567039  0  0.195589  0.564009  0  4.223367  0
C  C79  1  0.71934897  0.50480342  0.87023463  1  1.566727  0  0.195627  0.564029  0  4.223032  0
C  C80  1  0.28364388  0.61836206  0.44826611  1  0.970297  0  0.226939  0.220063  0  4.040893  0
C  C81  1  0.71634976  0.38163873  0.55173291  1  0.969704  0  0.226849  0.219801  0  4.04102  0
C  C82  1  0.21233069  0.41611341  0.16284327  1  -0.046206  0  -0.017567  -0.029395  0  3.97084  0
C  C83  1  0.78767387  0.58388951  0.83714872  1  -0.046523  0  -0.017459  -0.029403  0  3.970899  0
C  C84  1  0.78477335  0.90418608  0.14646441  1  0.018204  0  -0.003022  -0.025255  0  4.035758  0
C  C85  1  0.21522855  0.09581098  0.85354372  1  0.017977  0  -0.002974  -0.025215  0  4.035689  0
C  C86  1  0.67890274  0.90787944  0.60380749  1  -0.016389  0  -0.014669  -0.010889  0  3.949928  0
C  C87  1  0.32109677  0.09212568  0.39619334  1  -0.016495  0  -0.014683  -0.010928  0  3.949955  0
C  C88  1  0.99081097  0.84794687  0.00373399  1  0.597564  0  0.065288  -0.031925  0  3.842169  0
C  C89  1  0.00918510  0.15205024  0.99627130  1  0.597552  0  0.065277  -0.03183  0  3.842208  0
C  C90  1  0.83590540  0.94277160  0.19418182  1  0.473222  0  0.054964  0.063068  0  3.898845  0
C  C91  1  0.16409741  0.05722911  0.80582205  1  0.473714  0  0.05487  0.063012  0  3.899038  0
C  C92  1  0.08258286  0.26889132  0.22557611  1  -0.045549  0  -0.019367  -0.038396  0  3.984496  0
C  C93  1  0.91742718  0.73110936  0.77442231  1  -0.045499  0  -0.019459  -0.038487  0  3.984484  0
C  C94  1  0.84528079  0.65845320  0.15406066  1  0.952018  0  0.221615  0.269851  0  4.059217  0
C  C95  1  0.15471480  0.34154246  0.84594795  1  0.952099  0  0.221678  0.269869  0  4.059203  0
C  C96  1  0.59055321  0.79698037  0.79284431  1  -0.030513  0  -0.017716  -0.032977  0  3.971951  0
C  C97  1  0.40944839  0.20301673  0.20715320  1  -0.030519  0  -0.017747  -0.033086  0  3.971949  0
C  C98  1  0.18199992  0.75201583  0.02141974  1  0.995346  0  0.174615  0.114378  0  3.879897  0
C  C99  1  0.81799678  0.24798130  0.97857874  1  0.995723  0  0.174545  0.114248  0  3.87993  0
C  C100  1  0.37954836  0.63394596  0.28593411  1  0.534244  0  0.058344  0.065479  0  3.870833  0
C  C101  1  0.62045045  0.36605334  0.71406510  1  0.53481  0  0.058329  0.065555  0  3.871018  0
C  C102  1  0.12265973  0.31073729  0.12633277  1  -0.056077  0  -0.091551  -0.101337  0  3.987785  0
C  C103  1  0.87734807  0.68926194  0.87366466  1  -0.055688  0  -0.091521  -0.101276  0  3.98789  0
C  C104  1  0.10754146  0.44417203  0.58237173  1  -0.053014  0  0.009263  0.064502  0  3.993524  0
C  C105  1  0.89245377  0.55582948  0.41763002  1  -0.052895  0  0.009276  0.064494  0  3.993562  0
C  C106  1  0.16303321  0.52973228  0.53652280  1  0.958368  0  0.21604  0.264205  0  4.06643  0
C  C107  1  0.83696146  0.47026777  0.46347963  1  0.958413  0  0.216038  0.26422  0  4.066518  0
C  C108  1  0.81858790  0.56037323  0.18598413  1  0.025983  0  0.019157  0.072707  0  3.975664  0
C  C109  1  0.18140758  0.43962243  0.81402050  1  0.025909  0  0.019067  0.072567  0  3.975674  0
C  C110  1  0.10994939  0.29979580  0.29358365  1  -0.021474  0  -0.080079  -0.08402  0  3.969569  0
C  C111  1  0.89005861  0.70020708  0.70641367  1  -0.022057  0  -0.080096  -0.083962  0  3.969473  0
C  C112  1  0.19674686  0.76663180  0.49915102  1  0.623158  0  0.06724  -0.032289  0  3.857905  0
C  C113  1  0.80325338  0.23336894  0.50084935  1  0.623007  0  0.0672  -0.032471  0  3.857955  0
C  C114  1  0.37058260  0.65775080  0.36922365  1  0.020027  0  0.000788  -0.012549  0  4.026166  0
C  C115  1  0.62941202  0.34224926  0.63077679  1  0.019579  0  0.000798  -0.012552  0  4.026255  0
C  C116  1  0.82766943  0.80725456  0.13931866  1  0.990953  0  0.237565  0.241129  0  4.034132  0
C  C117  1  0.17232940  0.19274179  0.86069303  1  0.990983  0  0.237713  0.2412  0  4.034139  0
C  C118  1  0.64432491  0.04736244  0.11994374  1  -0.04629  0  -0.081201  -0.117811  0  3.966814  0
C  C119  1  0.35567656  0.95263610  0.88005790  1  -0.046249  0  -0.081268  -0.117917  0  3.966871  0
C  C120  1  0.62533011  0.83021121  0.61838359  1  -0.009168  0  -0.08965  -0.106911  0  3.984769  0
C  C121  1  0.37467348  0.16979317  0.38161203  1  -0.009234  0  -0.089699  -0.106952  0  3.984648  0
C  C122  1  0.17519968  0.37218665  0.26245068  1  -0.056414  0  -0.082313  -0.093675  0  3.970344  0
C  C123  1  0.82480481  0.62781700  0.73754304  1  -0.05623  0  -0.082302  -0.093561  0  3.970361  0
C  C124  1  0.23030901  0.82607937  0.09811908  1  0.984916  0  0.14924  0.148399  0  3.994662  0
C  C125  1  0.76969349  0.17391699  0.90187719  1  0.985209  0  0.149282  0.148507  0  3.994904  0
C  C126  1  0.03179717  0.88685819  0.43540686  1  0.995233  0  0.177959  0.115973  0  3.846445  0
C  C127  1  0.96820670  0.11314472  0.56458994  1  0.995135  0  0.177945  0.115945  0  3.846407  0
C  C128  1  0.18644740  0.38423368  0.09503186  1  -0.030416  0  -0.088925  -0.096304  0  3.97252  0
C  C129  1  0.81355909  0.61576776  0.90496164  1  -0.030618  0  -0.0889  -0.096365  0  3.972631  0
C  C130  1  0.58124366  0.77538330  0.71196575  1  -0.087166  0  -0.086303  -0.097842  0  3.991867  0
C  C131  1  0.41875863  0.22461890  0.28802898  1  -0.08681  0  -0.08628  -0.097814  0  3.991534  0
C  C132  1  0.73152489  0.96365212  0.50338358  1  1.530167  0  0.181315  0.548512  0  4.248208  0
C  C133  1  0.26847473  0.03635666  0.49661381  1  1.530818  0  0.181298  0.548568  0  4.248313  0
C  C134  1  0.51608316  0.75249013  0.28374839  1  0.008821  0  -0.078691  -0.117303  0  3.985141  0
C  C135  1  0.48391305  0.24750626  0.71625781  1  0.008585  0  -0.078641  -0.117262  0  3.985118  0
C  C136  1  0.72797981  0.53451196  0.25839875  1  0.017426  0  -0.078169  -0.151352  0  3.929358  0
C  C137  1  0.27201500  0.46548298  0.74160696  1  0.016541  0  -0.078239  -0.151393  0  3.929326  0
C  C138  1  0.64412933  0.87457331  0.77805313  1  -0.057513  0  -0.085412  -0.090736  0  3.985134  0
C  C139  1  0.35587203  0.12542524  0.22194453  1  -0.057552  0  -0.085401  -0.090667  0  3.985181  0
C  C140  1  0.68735215  0.92999574  0.68442521  1  -0.012752  0  -0.089106  -0.096777  0  3.965403  0
C  C141  1  0.31265109  0.07000644  0.31557400  1  -0.012747  0  -0.089094  -0.096776  0  3.965355  0
C  C142  1  0.87788402  0.49169876  0.14370762  1  0.011842  0  -0.072301  -0.149372  0  3.921151  0
C  C143  1  0.12211342  0.50829981  0.85629682  1  0.011769  0  -0.072247  -0.149229  0  3.92093  0
C  C144  1  0.09774433  0.92965598  0.28432839  1  1.019377  0  0.148228  0.147589  0  4.02095  0
C  C145  1  0.90225903  0.07034547  0.71567041  1  1.019452  0  0.14813  0.147335  0  4.021276  0
C  C146  1  0.51702417  0.72753126  0.20307113  1  0.464455  0  0.051187  0.086124  0  3.94545  0
C  C147  1  0.48297484  0.27246730  0.79693100  1  0.464495  0  0.051161  0.086099  0  3.945582  0
C  C148  1  0.68659974  0.95726081  0.10964374  1  -0.009324  0  -0.061244  -0.068923  0  3.946774  0
C  C149  1  0.31340227  0.04273553  0.89036398  1  -0.009281  0  -0.06129  -0.068945  0  3.94671  0
C  C150  1  0.01263727  0.44161091  0.65220805  1  0.01847  0  -0.086453  -0.164586  0  3.93439  0
C  C151  1  0.98735874  0.55839060  0.34779221  1  0.018318  0  -0.086443  -0.16458  0  3.934377  0
C  C152  1  0.69962510  0.44315694  0.28381773  1  0.466011  0  0.047746  0.097776  0  3.989889  0
C  C153  1  0.30037210  0.55683798  0.71618550  1  0.466136  0  0.047806  0.097865  0  3.990103  0
C  C154  1  0.70010340  0.08042442  0.16891808  1  0.481904  0  0.051891  0.100411  0  3.902542  0
C  C155  1  0.29989903  0.91957777  0.83108129  1  0.481762  0  0.051996  0.100517  0  3.902482  0
C  C156  1  0.84293007  0.40209377  0.17376625  1  0.455327  0  0.052495  0.100669  0  3.939514  0
C  C157  1  0.15706825  0.59790406  0.82623564  1  0.45556  0  0.052489  0.100597  0  3.939435  0
C  C158  1  0.15098386  0.36018765  0.55824105  1  -0.031498  0  -0.082975  -0.153694  0  3.92264  0
C  C159  1  0.84901313  0.63981311  0.44176064  1  -0.031448  0  -0.082963  -0.153728  0  3.922611  0
C  C160  1  0.10017642  0.27782438  0.60579010  1  0.481923  0  0.031512  0.079299  0  3.995709  0
C  C161  1  0.89982206  0.72217710  0.39421034  1  0.482362  0  0.031556  0.079389  0  3.995614  0
C  C162  1  0.44186166  0.71753774  0.36787395  1  -0.097246  0  -0.062099  -0.072803  0  3.950575  0
C  C163  1  0.55813243  0.28246086  0.63212849  1  -0.097136  0  -0.062144  -0.072866  0  3.950572  0
C  C164  1  0.96708071  0.35596441  0.69470368  1  0.443494  0  0.032584  0.090782  0  3.996653  0
C  C165  1  0.03291512  0.64403783  0.30529500  1  0.443519  0  0.032494  0.090688  0  3.996709  0
C  C166  1  0.54339347  0.73884755  0.89403149  1  1.529707  0  0.19308  0.55969  0  4.223185  0
C  C167  1  0.45660550  0.26115030  0.10596425  1  1.529786  0  0.193164  0.559855  0  4.222857  0
N  N168  1  0.20778174  0.66754279  0.50131242  1  -0.783741  0  -0.128514  0.068686  0  3.755508  0
N  N169  1  0.79221360  0.33245799  0.49868893  1  -0.783831  0  -0.128474  0.069083  0  3.755246  0
N  N170  1  0.79345209  0.02889829  0.20584451  1  -1.226353  0  -0.32072  -0.227544  0  3.48241  0
N  N171  1  0.20655077  0.97110609  0.79415393  1  -1.226352  0  -0.320729  -0.227539  0  3.482534  0
N  N172  1  0.00598422  0.94630398  0.34788847  1  -1.217519  0  -0.342016  -0.32144  0  3.473243  0
N  N173  1  0.99401815  0.05369821  0.65210891  1  -1.217527  0  -0.34195  -0.321272  0  3.473276  0
N  N174  1  0.25725246  0.53089181  0.47006954  1  -1.143578  0  -0.330141  -0.414021  0  3.194354  0
N  N175  1  0.74274119  0.46910899  0.52993013  1  -1.14263  0  -0.330084  -0.413951  0  3.194361  0
N  N176  1  0.10055363  0.82581969  0.03032122  1  -0.840546  0  -0.133819  0.119847  0  3.778773  0
N  N177  1  0.89944244  0.17417671  0.96967967  1  -0.840315  0  -0.133768  0.11991  0  3.778634  0
N  N178  1  0.91835682  0.78478045  0.07768905  1  -0.793311  0  -0.128832  0.073493  0  3.749744  0
N  N179  1  0.08163943  0.21521593  0.92231848  1  -0.79351  0  -0.128789  0.073365  0  3.74973  0
N  N180  1  0.13452797  0.83705768  0.42361428  1  -0.813587  0  -0.130679  0.163683  0  3.726113  0
N  N181  1  0.86547473  0.16294304  0.57638561  1  -0.813309  0  -0.130642  0.163783  0  3.726221  0
N  N182  1  0.77979246  0.72885904  0.18789758  1  -1.142749  0  -0.319179  -0.407406  0  3.212818  0
N  N183  1  0.22020628  0.27113803  0.81211519  1  -1.142614  0  -0.319167  -0.40735  0  3.21295  0
N  N184  1  0.00956945  0.27424575  0.67367391  1  -1.199474  0  -0.334191  -0.293222  0  3.343671  0
N  N185  1  0.99042682  0.72575429  0.32632687  1  -1.199866  0  -0.334189  -0.293208  0  3.343806  0
N  N186  1  0.12958731  0.61213411  0.55693530  1  -0.647953  0  -0.207986  -0.276721  0  3.067484  0
N  N187  1  0.87040983  0.38786592  0.44306730  1  -0.648267  0  -0.207971  -0.276796  0  3.067456  0
N  N188  1  0.26563218  0.75055515  0.06358053  1  -1.211605  0  -0.335646  -0.327535  0  3.449453  0
N  N189  1  0.73436581  0.24944344  0.93641446  1  -1.211916  0  -0.335603  -0.327478  0  3.449407  0
N  N190  1  0.45018396  0.66860495  0.20490701  1  -1.237855  0  -0.323485  -0.226781  0  3.50995  0
N  N191  1  0.54981578  0.33139433  0.79509603  1  -1.237844  0  -0.323471  -0.226799  0  3.510001  0
N  N192  1  0.93068416  0.68977517  0.08644376  1  -0.669315  0  -0.21247  -0.28868  0  3.085753  0
N  N193  1  0.06930780  0.31022198  0.91356167  1  -0.66972  0  -0.212608  -0.288681  0  3.085649  0
N  N194  1  0.17862314  0.86361857  0.32733522  1  -0.684918  0  -0.229115  -0.289583  0  3.121919  0
N  N195  1  0.82138116  0.13638214  0.67266367  1  -0.684817  0  -0.229115  -0.289559  0  3.122223  0
N  N196  1  0.75580869  0.37751022  0.24286060  1  -1.242617  0  -0.305416  -0.223568  0  3.4246  0
N  N197  1  0.24419163  0.62248542  0.75714107  1  -1.242563  0  -0.305411  -0.223585  0  3.424753  0
N  N198  1  0.12979321  0.87399323  0.07971891  1  -0.684411  0  -0.225444  -0.278685  0  3.128331  0
N  N199  1  0.87020506  0.12600462  0.92028165  1  -0.684569  0  -0.225525  -0.278786  0  3.128587  0
O  O200  1  0.97590542  0.17324543  0.19455083  1  -1.193972  0  -0.339886  -0.58151  0  2.204179  0
O  O201  1  0.02409865  0.82675308  0.80545564  1  -1.19417  0  -0.339875  -0.58156  0  2.204144  0
O  O202  1  0.76740982  0.04154141  0.49125414  1  -1.16803  0  -0.35004  -0.582751  0  2.193464  0
O  O203  1  0.23258982  0.95846737  0.50874392  1  -1.168204  0  -0.350038  -0.582772  0  2.193461  0
O  O204  1  0.30025270  0.54410579  0.03806346  1  -1.202035  0  -0.334389  -0.593363  0  2.249548  0
O  O205  1  0.69974799  0.45589498  0.96192347  1  -1.201821  0  -0.334477  -0.593394  0  2.249244  0
O  O206  1  0.96812868  0.16186239  0.34872994  1  -1.182998  0  -0.326648  -0.562149  0  2.253339  0
O  O207  1  0.03188294  0.83813971  0.65127495  1  -1.182995  0  -0.326595  -0.562072  0  2.253366  0
O  O208  1  0.74126289  0.93101709  0.43494390  1  -1.170677  0  -0.344325  -0.573685  0  2.141165  0
O  O209  1  0.25873898  0.06898802  0.56505312  1  -1.170815  0  -0.344296  -0.573658  0  2.141172  0
O  O210  1  0.31688528  0.51191203  0.19350276  1  -1.167726  0  -0.327738  -0.552027  0  2.198919  0
O  O211  1  0.68311324  0.48810116  0.80648181  1  -1.167623  0  -0.327761  -0.552005  0  2.1988  0
O  O212  1  0.54758312  0.76289427  0.96554764  1  -1.176356  0  -0.341613  -0.578202  0  2.13654  0
O  O213  1  0.45241261  0.23710360  0.03445008  1  -1.176539  0  -0.341658  -0.578302  0  2.136524  0
O  O214  1  0.49599900  0.66725722  0.90521166  1  -1.17437  0  -0.330479  -0.570112  0  2.263559  0
O  O215  1  0.50399875  0.33274283  0.09478348  1  -1.174303  0  -0.33052  -0.570162  0  2.263314  0
O  O216  1  0.56375113  0.48915503  0.11152383  1  -1.278315  0  -0.591046  -0.749046  0  2.063503  0
O  O217  1  0.43625106  0.51084280  0.88846994  1  -1.278465  0  -0.591105  -0.749169  0  2.063315  0
O  O218  1  0.70347047  0.20392914  0.28949125  1  -1.222863  0  -0.577022  -0.735345  0  2.147361  0
O  O219  1  0.29653162  0.79607014  0.71050798  1  -1.223022  0  -0.577029  -0.73533  0  2.1474  0
