# generated using pymatgen
data_K2H8C12N2Cl2O5
_symmetry_space_group_name_H-M   'P 1'
_cell_length_a   3.84616809
_cell_length_b   12.90727332
_cell_length_c   15.71870610
_cell_angle_alpha   101.76929397
_cell_angle_beta   97.03679152
_cell_angle_gamma   89.98223967
_symmetry_Int_Tables_number   1
_chemical_formula_structural   K2H8C12N2Cl2O5
_chemical_formula_sum   'K4 H16 C24 N4 Cl4 O10'
_cell_volume   757.92848068
_cell_formula_units_Z   2
loop_
 _symmetry_equiv_pos_site_id
 _symmetry_equiv_pos_as_xyz
  1  'x, y, z'
loop_
 _atom_site_type_symbol
 _atom_site_label
 _atom_site_symmetry_multiplicity
 _atom_site_fract_x
 _atom_site_fract_y
 _atom_site_fract_z
 _atom_site_occupancy
 _atom_site_hle17_bader_spin_density
 _atom_site_hle17_ddec_charge
 _atom_site_hle17_ddec_spin_density
 _atom_site_hle17_ddec_sum_bond_order
 _atom_site_hle17_magmom
 _atom_site_hse06_10hf_bader_spin_density
 _atom_site_hse06_10hf_ddec_charge
 _atom_site_hse06_10hf_ddec_spin_density
 _atom_site_hse06_10hf_ddec_sum_bond_order
 _atom_site_hse06_10hf_magmom
 _atom_site_hse06_bader_spin_density
 _atom_site_hse06_ddec_charge
 _atom_site_hse06_ddec_spin_density
 _atom_site_hse06_ddec_sum_bond_order
 _atom_site_hse06_magmom
 _atom_site_pbe_bader_spin_density
 _atom_site_pbe_cm5_charge
 _atom_site_pbe_ddec_charge
 _atom_site_pbe_ddec_spin_density
 _atom_site_pbe_ddec_sum_bond_order
 _atom_site_pbe_magmom
K  K0  1  0.25922392  0.58695065  0.91377199  1  0  0.92801  0  0.496077  0  0  0.876743  0  0.695972  0  0  0.892886  0  0.67233  0  0  0.809493  0.864578  0  0.713033  0
K  K1  1  0.34454224  0.91284818  0.08622326  1  0  0.927901  0  0.495473  0  0  0.876669  0  0.695382  0  0  0.892783  0  0.671757  0  0  0.809314  0.86453  0  0.712411  0
K  K2  1  0.74077995  0.41304906  0.08623020  1  0  0.928012  0  0.496069  0  0  0.876748  0  0.695936  0  0  0.892902  0  0.672299  0  0  0.809496  0.864578  0  0.712996  0
K  K3  1  0.65543568  0.08715394  0.91377410  1  0  0.927936  0  0.495451  0  0  0.876685  0  0.695369  0  0  0.892816  0  0.671756  0  0  0.809338  0.864546  0  0.712394  0
H  H4  1  0.03348163  0.96019723  0.75677363  1  0  0.128738  0  0.976639  0  0  0.129987  0  1.052318  0  0  0.135605  0  1.045958  0  0  0.111823  0.125855  0  1.05698  0
H  H5  1  0.27677935  0.53980655  0.24344712  1  0  0.128719  0  0.976814  0  0  0.130077  0  1.05246  0  0  0.135771  0  1.046017  0  0  0.11151  0.125908  0  1.0571  0
H  H6  1  0.96651441  0.03980251  0.24322515  1  0  0.128733  0  0.976684  0  0  0.129977  0  1.052367  0  0  0.135594  0  1.04601  0  0  0.111814  0.125848  0  1.057027  0
H  H7  1  0.72322476  0.46019556  0.75655231  1  0  0.12864  0  0.976815  0  0  0.130038  0  1.052423  0  0  0.135732  0  1.045982  0  0  0.111503  0.125873  0  1.057068  0
H  H8  1  0.35623487  0.61588383  0.64849892  1  0  0.110317  0  0.969049  0  0  0.113081  0  1.04173  0  0  0.117564  0  1.039482  0  0  0.095472  0.10994  0  1.043439  0
H  H9  1  0.70644947  0.88404251  0.35157074  1  0  0.109251  0  0.968412  0  0  0.111828  0  1.041682  0  0  0.116322  0  1.039426  0  0  0.095118  0.108676  0  1.043402  0
H  H10  1  0.64376619  0.38411352  0.35150088  1  0  0.110315  0  0.96902  0  0  0.113078  0  1.041701  0  0  0.117561  0  1.039451  0  0  0.095473  0.109938  0  1.043401  0
H  H11  1  0.29355185  0.11595800  0.64843151  1  0  0.10922  0  0.96848  0  0  0.111821  0  1.041724  0  0  0.116317  0  1.039465  0  0  0.095112  0.108672  0  1.04344  0
H  H12  1  0.38201429  0.74545234  0.55292224  1  0  0.096283  0  0.962481  0  0  0.103212  0  1.0323  0  0  0.106485  0  1.029118  0  0  0.094946  0.100785  0  1.034604  0
H  H13  1  0.82837337  0.75453130  0.44721027  1  0  0.095414  0  0.962786  0  0  0.102728  0  1.032147  0  0  0.10598  0  1.028991  0  0  0.095007  0.100288  0  1.03449  0
H  H14  1  0.61798939  0.25454501  0.44707764  1  0  0.096269  0  0.962459  0  0  0.103193  0  1.032295  0  0  0.10646  0  1.029136  0  0  0.094937  0.10077  0  1.034592  0
H  H15  1  0.17163044  0.24546762  0.55279115  1  0  0.095415  0  0.962771  0  0  0.102741  0  1.032122  0  0  0.105989  0  1.028967  0  0  0.094997  0.100301  0  1.03446  0
H  H16  1  0.87748278  0.72918302  0.04615171  1  0  0.356474  0  0.98585  0  0  0.312046  0  1.074716  0  0  0.323733  0  1.057599  0  0  0.273542  0.303761  0  1.086803  0
H  H17  1  0.83149869  0.77065773  0.95392343  1  0  0.355284  0  0.987061  0  0  0.311052  0  1.0757  0  0  0.32274  0  1.058559  0  0  0.272809  0.302772  0  1.087803  0
H  H18  1  0.12251608  0.27081908  0.95384884  1  0  0.356567  0  0.985735  0  0  0.312141  0  1.074598  0  0  0.323831  0  1.057473  0  0  0.27357  0.303858  0  1.086681  0
H  H19  1  0.16850271  0.22934358  0.04607705  1  0  0.355323  0  0.987025  0  0  0.31109  0  1.075664  0  0  0.322775  0  1.058525  0  0  0.272817  0.302813  0  1.087763  0
C  C20  1  0.69129858  0.70864046  0.75948514  1  0  0.38394  0  3.807907  0  0  0.370733  0  4.070127  0  0  0.39332  0  4.079707  0  0  0.127637  0.355939  0  4.063068  0
C  C21  1  0.93108533  0.79132340  0.24065172  1  0  0.381055  0  3.810094  0  0  0.367907  0  4.071629  0  0  0.390441  0  4.081258  0  0  0.126683  0.353141  0  4.064563  0
C  C22  1  0.30870518  0.29135768  0.24051424  1  0  0.383951  0  3.807795  0  0  0.37064  0  4.070163  0  0  0.393219  0  4.079751  0  0  0.127621  0.355841  0  4.063106  0
C  C23  1  0.06891090  0.20867869  0.75934938  1  0  0.381212  0  3.80986  0  0  0.367861  0  4.071697  0  0  0.390395  0  4.081313  0  0  0.126626  0.353094  0  4.064629  0
C  C24  1  0.87324597  0.81259386  0.79038103  1  0  0.030086  0  3.732894  0  0  0.02521  0  3.992202  0  0  0.011793  0  4.017583  0  0  0.078648  0.033388  0  3.975446  0
C  C25  1  0.08276109  0.68743155  0.20980990  1  0  0.031379  0  3.734512  0  0  0.027188  0  3.992141  0  0  0.013832  0  4.017484  0  0  0.079133  0.035328  0  3.975383  0
C  C26  1  0.12675014  0.18740666  0.20961725  1  0  0.030135  0  3.732902  0  0  0.025314  0  3.992197  0  0  0.011901  0  4.017566  0  0  0.078681  0.03349  0  3.975451  0
C  C27  1  0.91723783  0.31257135  0.79019078  1  0  0.031313  0  3.734617  0  0  0.0272  0  3.992257  0  0  0.013847  0  4.017597  0  0  0.079146  0.03534  0  3.975504  0
C  C28  1  0.88877732  0.88503976  0.73317534  1  0  -0.178833  0  3.721359  0  0  -0.211259  0  3.978814  0  0  -0.207313  0  3.996585  0  0  -0.095428  -0.213183  0  3.966783  0
C  C29  1  0.15563968  0.61497849  0.26703146  1  0  -0.178651  0  3.720411  0  0  -0.211535  0  3.977557  0  0  -0.207623  0  3.995218  0  0  -0.094981  -0.213442  0  3.965583  0
C  C30  1  0.11121860  0.11495840  0.26682190  1  0  -0.178814  0  3.721346  0  0  -0.211231  0  3.978778  0  0  -0.207291  0  3.996555  0  0  -0.095391  -0.213149  0  3.966753  0
C  C31  1  0.84436945  0.38502124  0.73296835  1  0  -0.178601  0  3.720496  0  0  -0.211529  0  3.977635  0  0  -0.20761  0  3.995288  0  0  -0.095  -0.213437  0  3.965664  0
C  C32  1  0.71761692  0.85899624  0.64999121  1  0  0.121858  0  3.799189  0  0  0.134692  0  4.066344  0  0  0.130927  0  4.090536  0  0  0.005928  0.136628  0  4.049955  0
C  C33  1  0.06740931  0.64102643  0.35019587  1  0  0.121595  0  3.799683  0  0  0.134163  0  4.067104  0  0  0.130395  0  4.091348  0  0  0.005565  0.136108  0  4.050684  0
C  C34  1  0.28238436  0.14100349  0.35000773  1  0  0.121773  0  3.799162  0  0  0.134605  0  4.066323  0  0  0.13084  0  4.090516  0  0  0.005906  0.136529  0  4.049955  0
C  C35  1  0.93259202  0.35897408  0.64980511  1  0  0.121633  0  3.799692  0  0  0.134189  0  4.067142  0  0  0.13042  0  4.091384  0  0  0.005588  0.136132  0  4.050731  0
C  C36  1  0.52080006  0.76170848  0.61917967  1  0  -0.072979  0  3.753525  0  0  -0.097309  0  4.006165  0  0  -0.092919  0  4.025484  0  0  -0.083894  -0.099628  0  3.992809  0
C  C37  1  0.90109314  0.73828953  0.38096589  1  0  -0.07289  0  3.753706  0  0  -0.097537  0  4.006448  0  0  -0.093103  0  4.025702  0  0  -0.084071  -0.099859  0  3.993099  0
C  C38  1  0.47919577  0.23828887  0.38081996  1  0  -0.072874  0  3.753461  0  0  -0.097203  0  4.00609  0  0  -0.09281  0  4.025389  0  0  -0.083861  -0.099526  0  3.992739  0
C  C39  1  0.09890811  0.26171018  0.61903623  1  0  -0.072895  0  3.75381  0  0  -0.097541  0  4.006538  0  0  -0.093104  0  4.025801  0  0  -0.084065  -0.099863  0  3.993189  0
C  C40  1  0.50587510  0.69004440  0.67170780  1  0  -0.182335  0  3.696838  0  0  -0.196662  0  3.948019  0  0  -0.207454  0  3.967307  0  0  -0.100538  -0.189822  0  3.934971  0
C  C41  1  0.83333084  0.80992809  0.32841111  1  0  -0.179092  0  3.69432  0  0  -0.19346  0  3.945543  0  0  -0.204249  0  3.964874  0  0  -0.099761  -0.186634  0  3.932483  0
C  C42  1  0.49412872  0.30995453  0.32829171  1  0  -0.182397  0  3.696696  0  0  -0.196709  0  3.947934  0  0  -0.2075  0  3.967222  0  0  -0.100579  -0.189862  0  3.934873  0
C  C43  1  0.16667311  0.19007242  0.67158995  1  0  -0.17916  0  3.694346  0  0  -0.193471  0  3.945581  0  0  -0.204257  0  3.964904  0  0  -0.099777  -0.186646  0  3.932521  0
N  N44  1  0.00835277  0.83505001  0.87612096  1  0  -0.013188  0  3.146736  0  0  0.029582  0  3.41347  0  0  0.044129  0  3.41809  0  0  -0.183494  0.020495  0  3.410238  0
N  N45  1  0.13209400  0.66498518  0.12407370  1  0  -0.014062  0  3.149178  0  0  0.029174  0  3.414797  0  0  0.043715  0  3.419416  0  0  -0.183556  0.02014  0  3.41147  0
N  N46  1  0.99164857  0.16495051  0.12387876  1  0  -0.013284  0  3.14689  0  0  0.029453  0  3.413649  0  0  0.044031  0  3.418216  0  0  -0.183554  0.020363  0  3.410423  0
N  N47  1  0.86791278  0.33501770  0.87592786  1  0  -0.014  0  3.149108  0  0  0.029236  0  3.414694  0  0  0.043768  0  3.419339  0  0  -0.183496  0.020206  0  3.411366  0
Cl  Cl48  1  0.73032415  0.94362840  0.57749514  1  0  -0.095838  0  1.400879  0  0  -0.076423  0  1.64738  0  0  -0.081321  0  1.644937  0  0  0.009601  -0.072796  0  1.649229  0
Cl  Cl49  1  0.15247885  0.55637641  0.42270550  1  0  -0.096208  0  1.401707  0  0  -0.076673  0  1.648289  0  0  -0.081549  0  1.645774  0  0  0.009332  -0.07309  0  1.650255  0
Cl  Cl50  1  0.26966637  0.05636817  0.42250293  1  0  -0.095839  0  1.400889  0  0  -0.076416  0  1.647384  0  0  -0.081315  0  1.644942  0  0  0.009597  -0.072781  0  1.64924  0
Cl  Cl51  1  0.84751692  0.44362017  0.57729210  1  0  -0.096218  0  1.401683  0  0  -0.076679  0  1.648266  0  0  -0.081554  0  1.645751  0  0  0.009337  -0.073087  0  1.650231  0
O  O52  1  0.69477599  0.63878638  0.80570421  1  0  -0.629693  0  1.994201  0  0  -0.588105  0  2.23213  0  0  -0.612413  0  2.227728  0  0  -0.437541  -0.571202  0  2.234725  0
O  O53  1  0.88792547  0.86114692  0.19440386  1  0  -0.628731  0  1.993858  0  0  -0.587524  0  2.231966  0  0  -0.611733  0  2.227456  0  0  -0.437007  -0.57066  0  2.234591  0
O  O54  1  0.30523306  0.36121255  0.19429674  1  0  -0.629666  0  1.994174  0  0  -0.58804  0  2.232148  0  0  -0.612348  0  2.227751  0  0  -0.437516  -0.571129  0  2.234733  0
O  O55  1  0.11206290  0.13885518  0.80559763  1  0  -0.628765  0  1.993809  0  0  -0.587482  0  2.232012  0  0  -0.611712  0  2.227561  0  0  -0.436968  -0.570614  0  2.234632  0
O  O56  1  0.16722874  0.92519963  0.90752727  1  0  -0.518789  0  1.892763  0  0  -0.483648  0  2.141111  0  0  -0.504246  0  2.139471  0  0  -0.329212  -0.469403  0  2.142053  0
O  O57  1  0.25972262  0.57484042  0.09265850  1  0  -0.51902  0  1.894335  0  0  -0.484114  0  2.142446  0  0  -0.504747  0  2.140819  0  0  -0.329325  -0.469849  0  2.143361  0
O  O58  1  0.83276489  0.07480248  0.09247121  1  0  -0.518734  0  1.892809  0  0  -0.483581  0  2.141145  0  0  -0.504186  0  2.139501  0  0  -0.329181  -0.469331  0  2.14209  0
O  O59  1  0.74028416  0.42516247  0.90734242  1  0  -0.519067  0  1.894332  0  0  -0.484181  0  2.142467  0  0  -0.504801  0  2.140827  0  0  -0.329364  -0.469917  0  2.143387  0
O  O60  1  0.70437313  0.74988501  0.99999904  1  0  -0.926001  0  1.945351  0  0  -0.881842  0  2.15916  0  0  -0.899764  0  2.125041  0  0  -0.752766  -0.868723  0  2.182924  0
O  O61  1  0.29562842  0.25011788  0.00000172  1  0  -0.926123  0  1.945267  0  0  -0.881929  0  2.159011  0  0  -0.899895  0  2.124988  0  0  -0.752796  -0.868814  0  2.182773  0
