# generated using pymatgen
data_NaB2H22C8NO2
_symmetry_space_group_name_H-M   'P 1'
_cell_length_a   7.52740772
_cell_length_b   8.89142719
_cell_length_c   10.04198555
_cell_angle_alpha   111.30861928
_cell_angle_beta   100.00625970
_cell_angle_gamma   101.66087159
_symmetry_Int_Tables_number   1
_chemical_formula_structural   NaB2H22C8NO2
_chemical_formula_sum   'Na2 B4 H44 C16 N2 O4'
_cell_volume   590.29703527
_cell_formula_units_Z   2
loop_
 _symmetry_equiv_pos_site_id
 _symmetry_equiv_pos_as_xyz
  1  'x, y, z'
loop_
 _atom_site_type_symbol
 _atom_site_label
 _atom_site_symmetry_multiplicity
 _atom_site_fract_x
 _atom_site_fract_y
 _atom_site_fract_z
 _atom_site_occupancy
 _atom_site_hle17_bader_spin_density
 _atom_site_hle17_ddec_charge
 _atom_site_hle17_ddec_spin_density
 _atom_site_hle17_ddec_sum_bond_order
 _atom_site_hle17_magmom
 _atom_site_hse06_10hf_bader_spin_density
 _atom_site_hse06_10hf_ddec_charge
 _atom_site_hse06_10hf_ddec_spin_density
 _atom_site_hse06_10hf_ddec_sum_bond_order
 _atom_site_hse06_10hf_magmom
 _atom_site_hse06_bader_spin_density
 _atom_site_hse06_ddec_charge
 _atom_site_hse06_ddec_spin_density
 _atom_site_hse06_ddec_sum_bond_order
 _atom_site_hse06_magmom
 _atom_site_pbe_bader_spin_density
 _atom_site_pbe_cm5_charge
 _atom_site_pbe_ddec_charge
 _atom_site_pbe_ddec_spin_density
 _atom_site_pbe_ddec_sum_bond_order
 _atom_site_pbe_magmom
Na  Na0  1  0.09245410  0.14823142  0.70070502  1  0  0.89882  0  0.379988  0  0  0.848453  0  0.532892  0  0  0.856843  0  0.518031  0  0  0.671331  0.842502  0  0.543236  0
Na  Na1  1  0.90754569  0.85176793  0.29929573  1  0  0.898821  0  0.379986  0  0  0.848458  0  0.532885  0  0  0.85685  0  0.518029  0  0  0.671334  0.842506  0  0.543231  0
B  B2  1  0.19163499  0.88655171  0.54630423  1  0  0.098421  0  3.518478  0  0  -0.079362  0  3.809357  0  0  -0.068465  0  3.817816  0  0  -0.506224  -0.086591  0  3.80278  0
B  B3  1  0.80836177  0.11344640  0.45369270  1  0  0.098373  0  3.518461  0  0  -0.079406  0  3.809374  0  0  -0.068504  0  3.817821  0  0  -0.506254  -0.086627  0  3.802789  0
B  B4  1  0.90469545  0.38277318  0.69824783  1  0  0.133314  0  3.46941  0  0  -0.045447  0  3.764734  0  0  -0.034091  0  3.772637  0  0  -0.450855  -0.053104  0  3.759641  0
B  B5  1  0.09530302  0.61722617  0.30175174  1  0  0.133304  0  3.469407  0  0  -0.045477  0  3.764707  0  0  -0.034123  0  3.772616  0  0  -0.450866  -0.053138  0  3.759628  0
H  H6  1  0.30110714  0.96990896  0.67072641  1  0  -0.199622  0  0.99924  0  0  -0.149521  0  1.092822  0  0  -0.152987  0  1.093241  0  0  0.026779  -0.147351  0  1.092664  0
H  H7  1  0.69889094  0.03008915  0.32927171  1  0  -0.199614  0  0.999242  0  0  -0.14951  0  1.092813  0  0  -0.152975  0  1.093232  0  0  0.02679  -0.147344  0  1.092655  0
H  H8  1  0.20126775  0.97253979  0.47490134  1  0  -0.222942  0  1.056901  0  0  -0.172983  0  1.153969  0  0  -0.176787  0  1.155353  0  0  0.032553  -0.169784  0  1.152497  0
H  H9  1  0.79873076  0.02745958  0.52509625  1  0  -0.222952  0  1.05694  0  0  -0.172991  0  1.154005  0  0  -0.176794  0  1.155389  0  0  0.032571  -0.169797  0  1.152535  0
H  H10  1  0.03076072  0.84715006  0.55754637  1  0  -0.220448  0  1.040459  0  0  -0.172632  0  1.138019  0  0  -0.176222  0  1.138881  0  0  0.031818  -0.170347  0  1.137356  0
H  H11  1  0.96923683  0.15285057  0.44245248  1  0  -0.220422  0  1.040455  0  0  -0.172609  0  1.138012  0  0  -0.176199  0  1.138876  0  0  0.031823  -0.170328  0  1.137347  0
H  H12  1  0.87845213  0.30137854  0.77305957  1  0  -0.21916  0  1.011936  0  0  -0.169113  0  1.109826  0  0  -0.173184  0  1.111257  0  0  0.021502  -0.166907  0  1.109244  0
H  H13  1  0.12154730  0.69861956  0.22693874  1  0  -0.219182  0  1.011896  0  0  -0.169141  0  1.109817  0  0  -0.173211  0  1.111248  0  0  0.021487  -0.166935  0  1.109235  0
H  H14  1  0.06463436  0.40249561  0.68349879  1  0  -0.203794  0  1.016933  0  0  -0.153999  0  1.107668  0  0  -0.15735  0  1.108432  0  0  0.027958  -0.151942  0  1.107335  0
H  H15  1  0.93536369  0.59750247  0.31650130  1  0  -0.203746  0  1.01689  0  0  -0.153956  0  1.107642  0  0  -0.157307  0  1.108406  0  0  0.027962  -0.151899  0  1.107307  0
H  H16  1  0.87728491  0.51975709  0.75751427  1  0  -0.197853  0  1.017148  0  0  -0.149054  0  1.118204  0  0  -0.15369  0  1.119994  0  0  0.022578  -0.146295  0  1.117026  0
H  H17  1  0.12271630  0.48024227  0.24248370  1  0  -0.197858  0  1.01714  0  0  -0.149047  0  1.118184  0  0  -0.153683  0  1.119976  0  0  0.022582  -0.146285  0  1.117002  0
H  H18  1  0.23908670  0.48789600  0.47462538  1  0  0.057441  0  0.937464  0  0  0.075355  0  0.997991  0  0  0.075744  0  0.998604  0  0  0.103641  0.075209  0  0.997336  0
H  H19  1  0.76091449  0.51210336  0.52537358  1  0  0.057416  0  0.937514  0  0  0.075358  0  0.998005  0  0  0.075749  0  0.998617  0  0  0.103642  0.075212  0  0.997352  0
H  H20  1  0.12642606  0.60971531  0.59571305  1  0  0.077288  0  0.942969  0  0  0.095551  0  1.001703  0  0  0.095649  0  1.003086  0  0  0.113979  0.095415  0  1.000762  0
H  H21  1  0.87357462  0.39028658  0.40428566  1  0  0.077301  0  0.942949  0  0  0.095561  0  1.001683  0  0  0.095659  0  1.003067  0  0  0.113973  0.095425  0  1.00074  0
H  H22  1  0.42533638  0.79030246  0.77176917  1  0  0.055047  0  0.954447  0  0  0.073832  0  1.017421  0  0  0.074968  0  1.016926  0  0  0.084744  0.072768  0  1.018075  0
H  H23  1  0.57466252  0.20969816  0.22822987  1  0  0.055103  0  0.954388  0  0  0.073857  0  1.017393  0  0  0.074993  0  1.016898  0  0  0.084751  0.072797  0  1.018044  0
H  H24  1  0.49441979  0.60589540  0.69326109  1  0  0.063452  0  0.957814  0  0  0.080578  0  1.024188  0  0  0.082047  0  1.023306  0  0  0.087028  0.079559  0  1.024817  0
H  H25  1  0.50558183  0.39410522  0.30673735  1  0  0.063477  0  0.957866  0  0  0.080614  0  1.024203  0  0  0.082085  0  1.023318  0  0  0.087038  0.079595  0  1.024832  0
H  H26  1  0.61675331  0.92939630  0.66824938  1  0  0.068302  0  0.953058  0  0  0.084579  0  1.019741  0  0  0.085465  0  1.019918  0  0  0.091945  0.083934  0  1.019718  0
H  H27  1  0.38324614  0.07060180  0.33174794  1  0  0.068349  0  0.953034  0  0  0.084647  0  1.019687  0  0  0.085535  0  1.019864  0  0  0.091973  0.084005  0  1.019663  0
H  H28  1  0.69165930  0.75031743  0.58651946  1  0  0.067675  0  0.961135  0  0  0.085595  0  1.025199  0  0  0.086582  0  1.025177  0  0  0.092425  0.084569  0  1.025559  0
H  H29  1  0.30834230  0.24968319  0.41347996  1  0  0.067738  0  0.961159  0  0  0.085666  0  1.025213  0  0  0.086654  0  1.025196  0  0  0.092434  0.084642  0  1.025574  0
H  H30  1  0.46719208  0.85980375  0.41254889  1  0  0.073236  0  0.945436  0  0  0.091137  0  1.005791  0  0  0.091347  0  1.006856  0  0  0.113854  0.091036  0  1.005142  0
H  H31  1  0.53280778  0.14019562  0.58744889  1  0  0.07322  0  0.945454  0  0  0.091129  0  1.005822  0  0  0.091339  0  1.006888  0  0  0.113855  0.091028  0  1.005172  0
H  H32  1  0.45098447  0.64273631  0.36046235  1  0  0.053853  0  0.941208  0  0  0.071404  0  1.003799  0  0  0.072112  0  1.003501  0  0  0.103595  0.071109  0  1.003813  0
H  H33  1  0.54901713  0.35726431  0.63953707  1  0  0.053774  0  0.941264  0  0  0.071398  0  1.003798  0  0  0.072108  0  1.003501  0  0  0.103582  0.071102  0  1.003815  0
H  H34  1  0.28062306  0.45593912  0.07503544  1  0  0.060602  0  0.943247  0  0  0.070332  0  1.015627  0  0  0.071227  0  1.014628  0  0  0.100113  0.069609  0  1.016406  0
H  H35  1  0.71937443  0.54406148  0.92496639  1  0  0.060664  0  0.943181  0  0  0.07038  0  1.015545  0  0  0.071278  0  1.014547  0  0  0.100128  0.069654  0  1.016325  0
H  H36  1  0.18335138  0.51378711  0.93132782  1  0  0.08102  0  0.9435  0  0  0.097638  0  1.003349  0  0  0.097293  0  1.004563  0  0  0.115612  0.097875  0  1.002497  0
H  H37  1  0.81664662  0.48621096  0.06867426  1  0  0.081006  0  0.943595  0  0  0.097609  0  1.003437  0  0  0.097264  0  1.004654  0  0  0.115599  0.097844  0  1.002585  0
H  H38  1  0.56145889  0.24402382  0.85324280  1  0  0.073693  0  0.931956  0  0  0.08531  0  1.001021  0  0  0.085333  0  1.00138  0  0  0.112083  0.085013  0  1.001099  0
H  H39  1  0.43854050  0.75597426  0.14675748  1  0  0.073665  0  0.931963  0  0  0.085298  0  1.001029  0  0  0.08532  0  1.001387  0  0  0.112094  0.085  0  1.001107  0
H  H40  1  0.50390592  0.29275928  0.02759816  1  0  0.050272  0  0.93195  0  0  0.062237  0  1.00145  0  0  0.063294  0  0.999613  0  0  0.098842  0.061293  0  1.002947  0
H  H41  1  0.49609294  0.70724132  0.97240287  1  0  0.050225  0  0.931958  0  0  0.062191  0  1.001484  0  0  0.063247  0  0.999646  0  0  0.098838  0.061247  0  1.002981  0
H  H42  1  0.86311768  0.79566184  0.82075109  1  0  0.059011  0  0.936728  0  0  0.070356  0  1.007649  0  0  0.071036  0  1.006768  0  0  0.100203  0.06998  0  1.008109  0
H  H43  1  0.13688469  0.20434129  0.17925124  1  0  0.05894  0  0.936746  0  0  0.070338  0  1.007623  0  0  0.071019  0  1.006746  0  0  0.100192  0.069958  0  1.008086  0
H  H44  1  0.09200633  0.83129495  0.79056994  1  0  0.080423  0  0.9408  0  0  0.094055  0  1.00411  0  0  0.093897  0  1.005086  0  0  0.115236  0.094174  0  1.003499  0
H  H45  1  0.90799797  0.16870567  0.20942986  1  0  0.080401  0  0.940778  0  0  0.094047  0  1.004107  0  0  0.093888  0  1.005084  0  0  0.115225  0.094162  0  1.003493  0
H  H46  1  0.92165682  0.24524195  0.98930963  1  0  0.076087  0  0.933377  0  0  0.092078  0  0.994239  0  0  0.091809  0  0.995261  0  0  0.113795  0.092415  0  0.993201  0
H  H47  1  0.07834514  0.75475992  0.01069224  1  0  0.076094  0  0.933379  0  0  0.092096  0  0.994219  0  0  0.091828  0  0.995243  0  0  0.113811  0.092435  0  0.993176  0
H  H48  1  0.75953703  0.04175475  0.93663789  1  0  0.051123  0  0.921377  0  0  0.066211  0  0.985583  0  0  0.067119  0  0.984109  0  0  0.100011  0.065687  0  0.986338  0
H  H49  1  0.24046399  0.95824838  0.06336426  1  0  0.051126  0  0.921365  0  0  0.066212  0  0.98558  0  0  0.067135  0  0.984092  0  0  0.100019  0.065683  0  0.986339  0
C  C50  1  0.24806856  0.61667536  0.55011173  1  0  0.01469  0  3.523903  0  0  -0.029968  0  3.752738  0  0  -0.027365  0  3.766103  0  0  -0.047165  -0.031751  0  3.743544  0
C  C51  1  0.75193087  0.38332274  0.44988657  1  0  0.014624  0  3.523989  0  0  -0.030025  0  3.752802  0  0  -0.027422  0  3.766168  0  0  -0.04717  -0.031805  0  3.743599  0
C  C52  1  0.43918885  0.70036052  0.66772114  1  0  -0.124217  0  3.646844  0  0  -0.167062  0  3.904995  0  0  -0.168278  0  3.918325  0  0  -0.161083  -0.166271  0  3.89624  0
C  C53  1  0.56080966  0.29963885  0.33227645  1  0  -0.124246  0  3.646885  0  0  -0.167058  0  3.905028  0  0  -0.168271  0  3.918355  0  0  -0.161074  -0.166271  0  3.896273  0
C  C54  1  0.56635080  0.79326260  0.59901018  1  0  -0.132912  0  3.645508  0  0  -0.176143  0  3.905615  0  0  -0.177363  0  3.918969  0  0  -0.161196  -0.175238  0  3.896481  0
C  C55  1  0.43364947  0.20673803  0.40098806  1  0  -0.133059  0  3.645562  0  0  -0.176324  0  3.90573  0  0  -0.177553  0  3.919092  0  0  -0.161214  -0.175428  0  3.896604  0
C  C56  1  0.43892817  0.75616238  0.44738926  1  0  0.016555  0  3.530618  0  0  -0.028241  0  3.758722  0  0  -0.02537  0  3.771529  0  0  -0.044492  -0.030359  0  3.749997  0
C  C57  1  0.56107126  0.24383572  0.55260905  1  0  0.016653  0  3.530627  0  0  -0.028211  0  3.758819  0  0  -0.025344  0  3.771633  0  0  -0.044499  -0.030329  0  3.750093  0
C  C58  1  0.31143352  0.49729244  0.98827232  1  0  0.038297  0  3.638769  0  0  -0.018092  0  3.905476  0  0  -0.012073  0  3.911271  0  0  -0.076605  -0.022268  0  3.901467  0
C  C59  1  0.68856758  0.50270688  0.01173060  1  0  0.038217  0  3.6389  0  0  -0.018124  0  3.90548  0  0  -0.012117  0  3.911293  0  0  -0.076619  -0.022296  0  3.901465  0
C  C60  1  0.52877614  0.34022329  0.94287011  1  0  0.046656  0  3.658705  0  0  -0.012058  0  3.933696  0  0  -0.005542  0  3.938619  0  0  -0.075675  -0.016098  0  3.930288  0
C  C61  1  0.47122096  0.65977606  0.05713027  1  0  0.046807  0  3.658557  0  0  -0.011951  0  3.933628  0  0  -0.005437  0  3.93855  0  0  -0.075675  -0.015994  0  3.930224  0
C  C62  1  0.00941424  0.87861626  0.86780366  1  0  0.04204  0  3.649171  0  0  -0.015482  0  3.921752  0  0  -0.009296  0  3.927135  0  0  -0.074892  -0.019781  0  3.917953  0
C  C63  1  0.99058594  0.12138434  0.13219855  1  0  0.042204  0  3.649097  0  0  -0.015398  0  3.921769  0  0  -0.009218  0  3.927164  0  0  -0.07485  -0.019687  0  3.917964  0
C  C64  1  0.90955767  0.11702703  0.98140457  1  0  0.04709  0  3.653685  0  0  -0.011112  0  3.924792  0  0  -0.004655  0  3.929922  0  0  -0.074086  -0.015136  0  3.920579  0
C  C65  1  0.09044569  0.88297485  0.01859551  1  0  0.047169  0  3.653707  0  0  -0.011043  0  3.924772  0  0  -0.004599  0  3.929903  0  0  -0.074067  -0.01506  0  3.92056  0
N  N66  1  0.24174633  0.71917673  0.46072346  1  0  -0.133062  0  3.327352  0  0  0.00582  0  3.520209  0  0  -0.009691  0  3.543232  0  0  -0.230864  0.016561  0  3.50406  0
N  N67  1  0.75825259  0.28082390  0.53927460  1  0  -0.13298  0  3.32723  0  0  0.005842  0  3.520204  0  0  -0.009669  0  3.543228  0  0  -0.230899  0.016587  0  3.504047  0
O  O68  1  0.35854625  0.36650850  0.87717919  1  0  -0.367316  0  2.238229  0  0  -0.302357  0  2.497574  0  0  -0.316893  0  2.49635  0  0  -0.292458  -0.29209  0  2.497836  0
O  O69  1  0.64145531  0.63349210  0.12282222  1  0  -0.36741  0  2.23821  0  0  -0.302417  0  2.497535  0  0  -0.316952  0  2.496313  0  0  -0.292488  -0.292146  0  2.49779  0
O  O70  1  0.01244085  0.04525353  0.87866436  1  0  -0.363123  0  2.234765  0  0  -0.29794  0  2.495161  0  0  -0.312502  0  2.494236  0  0  -0.286036  -0.287439  0  2.49558  0
O  O71  1  0.98755885  0.95474961  0.12133661  1  0  -0.363161  0  2.234876  0  0  -0.297971  0  2.495306  0  0  -0.312531  0  2.494392  0  0  -0.28602  -0.287471  0  2.495718  0
