# generated using pymatgen
data_ZnMo4H20C14(N3O8)2
_symmetry_space_group_name_H-M   'P 1'
_cell_length_a   9.76046622
_cell_length_b   11.58325660
_cell_length_c   12.34704606
_cell_angle_alpha   91.05765671
_cell_angle_beta   102.99254288
_cell_angle_gamma   96.20599982
_symmetry_Int_Tables_number   1
_chemical_formula_structural   ZnMo4H20C14(N3O8)2
_chemical_formula_sum   'Zn2 Mo8 H40 C28 N12 O32'
_cell_volume   1350.90589014
_cell_formula_units_Z   2
loop_
 _symmetry_equiv_pos_site_id
 _symmetry_equiv_pos_as_xyz
  1  'x, y, z'
loop_
 _atom_site_type_symbol
 _atom_site_label
 _atom_site_symmetry_multiplicity
 _atom_site_fract_x
 _atom_site_fract_y
 _atom_site_fract_z
 _atom_site_occupancy
 _atom_site_hle17_bader_spin_density
 _atom_site_hle17_ddec_charge
 _atom_site_hle17_ddec_spin_density
 _atom_site_hle17_ddec_sum_bond_order
 _atom_site_hle17_magmom
 _atom_site_hse06_10hf_bader_spin_density
 _atom_site_hse06_10hf_ddec_charge
 _atom_site_hse06_10hf_ddec_spin_density
 _atom_site_hse06_10hf_ddec_sum_bond_order
 _atom_site_hse06_10hf_magmom
 _atom_site_hse06_bader_spin_density
 _atom_site_hse06_ddec_charge
 _atom_site_hse06_ddec_spin_density
 _atom_site_hse06_ddec_sum_bond_order
 _atom_site_hse06_magmom
 _atom_site_pbe_bader_spin_density
 _atom_site_pbe_cm5_charge
 _atom_site_pbe_ddec_charge
 _atom_site_pbe_ddec_spin_density
 _atom_site_pbe_ddec_sum_bond_order
 _atom_site_pbe_magmom
Zn  Zn0  1  0.57727631  0.20077812  0.27653599  1  0  1.093058  0  1.7756  0  0  0.926233  0  2.215834  0  0  0.971713  0  2.162239  0  0  0.705985  0.894264  0  2.252947  0
Zn  Zn1  1  0.42272399  0.79922133  0.72346831  1  0  1.093034  0  1.775644  0  0  0.926228  0  2.215862  0  0  0.9717  0  2.162274  0  0  0.705981  0.894252  0  2.252979  0
Mo  Mo2  1  0.13910775  0.56264680  0.11495837  1  0  2.243941  0  4.06317  0  0  2.240442  0  4.587122  0  0  2.342361  0  4.551147  0  0  1.503298  2.163653  0  4.621788  0
Mo  Mo3  1  0.86089198  0.43735614  0.88503861  1  0  2.244132  0  4.06332  0  0  2.240697  0  4.587202  0  0  2.342582  0  4.551274  0  0  1.503415  2.163907  0  4.621876  0
Mo  Mo4  1  0.94193781  0.36906257  0.26196617  1  0  2.201225  0  4.050122  0  0  2.197108  0  4.597982  0  0  2.295989  0  4.563398  0  0  1.523165  2.123324  0  4.630528  0
Mo  Mo5  1  0.05805376  0.63092734  0.73803559  1  0  2.200921  0  4.050087  0  0  2.196781  0  4.597987  0  0  2.295699  0  4.563366  0  0  1.522947  2.122989  0  4.630539  0
Mo  Mo6  1  0.76028454  0.54666237  0.09381002  1  0  2.180897  0  4.07146  0  0  2.174828  0  4.614343  0  0  2.274694  0  4.578515  0  0  1.499329  2.102186  0  4.644994  0
Mo  Mo7  1  0.23972025  0.45333188  0.90618526  1  0  2.180609  0  4.071306  0  0  2.174492  0  4.614253  0  0  2.274408  0  4.578376  0  0  1.499134  2.101862  0  4.644886  0
Mo  Mo8  1  0.96429036  0.74018638  0.96013569  1  0  2.181793  0  4.069873  0  0  2.171055  0  4.619291  0  0  2.270712  0  4.582884  0  0  1.503727  2.098743  0  4.649462  0
Mo  Mo9  1  0.03570937  0.25981657  0.03986129  1  0  2.181795  0  4.069998  0  0  2.171055  0  4.619424  0  0  2.270714  0  4.583011  0  0  1.503764  2.098741  0  4.649591  0
H  H10  1  0.50842054  0.32929253  0.09394388  1  0  0.446432  0  0.847477  0  0  0.420591  0  0.902228  0  0  0.43135  0  0.886503  0  0  0.296038  0.412908  0  0.91353  0
H  H11  1  0.49158475  0.67070518  0.90605560  1  0  0.44656  0  0.847311  0  0  0.420724  0  0.902053  0  0  0.431484  0  0.886326  0  0  0.296106  0.413042  0  0.913354  0
H  H12  1  0.35822426  0.26267878  0.10523339  1  0  0.434281  0  0.855377  0  0  0.405213  0  0.918054  0  0  0.415521  0  0.902794  0  0  0.298038  0.397783  0  0.929052  0
H  H13  1  0.64177720  0.73732155  0.89476627  1  0  0.434259  0  0.855414  0  0  0.405212  0  0.91805  0  0  0.415517  0  0.902793  0  0  0.298043  0.397784  0  0.929044  0
H  H14  1  0.08363965  0.27311965  0.60585450  1  0  0.085464  0  0.92627  0  0  0.104575  0  0.981278  0  0  0.105929  0  0.980911  0  0  0.090298  0.103509  0  0.981734  0
H  H15  1  0.91636156  0.72687895  0.39414265  1  0  0.085466  0  0.92628  0  0  0.104607  0  0.981253  0  0  0.105961  0  0.980886  0  0  0.090296  0.103535  0  0.981714  0
H  H16  1  0.98057876  0.15883257  0.51810822  1  0  0.076619  0  0.967378  0  0  0.092734  0  1.030988  0  0  0.093956  0  1.031112  0  0  0.091563  0.09177  0  1.03102  0
H  H17  1  0.01941942  0.84116690  0.48189004  1  0  0.076615  0  0.96742  0  0  0.092755  0  1.031001  0  0  0.093977  0  1.031128  0  0  0.091578  0.09179  0  1.03103  0
H  H18  1  0.34058605  0.13214104  0.97832385  1  0  0.321657  0  0.888939  0  0  0.303727  0  0.946401  0  0  0.311891  0  0.939726  0  0  0.322047  0.297887  0  0.951261  0
H  H19  1  0.65941424  0.86785840  0.02168045  1  0  0.321714  0  0.88895  0  0  0.303751  0  0.946465  0  0  0.311914  0  0.939792  0  0  0.322021  0.297914  0  0.95132  0
H  H20  1  0.47006638  0.48450818  0.24199007  1  0  0.107986  0  0.923651  0  0  0.115943  0  0.987193  0  0  0.118748  0  0.983427  0  0  0.146129  0.113789  0  0.990055  0
H  H21  1  0.52993799  0.51549041  0.75800684  1  0  0.10803  0  0.92358  0  0  0.115957  0  0.987168  0  0  0.11876  0  0.983402  0  0  0.146142  0.113801  0  0.99003  0
H  H22  1  0.75770810  0.54766722  0.55637809  1  0  0.135851  0  0.952197  0  0  0.144899  0  1.011545  0  0  0.148479  0  1.008112  0  0  0.131037  0.142168  0  1.014293  0
H  H23  1  0.24229360  0.45233486  0.44361760  1  0  0.135831  0  0.952172  0  0  0.144867  0  1.011542  0  0  0.148447  0  1.00811  0  0  0.131021  0.142135  0  1.014292  0
H  H24  1  0.59876759  0.63604029  0.39435131  1  0  0.318643  0  0.829932  0  0  0.314677  0  0.862934  0  0  0.320599  0  0.860452  0  0  0.358639  0.310485  0  0.864806  0
H  H25  1  0.40123505  0.36396091  0.60564534  1  0  0.318741  0  0.829888  0  0  0.314713  0  0.862961  0  0  0.320634  0  0.860478  0  0  0.358668  0.310519  0  0.864835  0
H  H26  1  0.20182220  0.08665560  0.61893506  1  0  0.064512  0  0.925233  0  0  0.083666  0  0.982601  0  0  0.084615  0  0.982728  0  0  0.086455  0.082846  0  0.982715  0
H  H27  1  0.79817548  0.91334039  0.38106385  1  0  0.064532  0  0.925214  0  0  0.083671  0  0.982584  0  0  0.084618  0  0.982714  0  0  0.086486  0.082849  0  0.9827  0
H  H28  1  0.17527696  0.13677991  0.74789914  1  0  0.064196  0  0.951564  0  0  0.082316  0  1.015131  0  0  0.082529  0  1.016579  0  0  0.083993  0.082083  0  1.014236  0
H  H29  1  0.82471968  0.86321608  0.25209958  1  0  0.064218  0  0.951495  0  0  0.082287  0  1.0151  0  0  0.082499  0  1.01655  0  0  0.08399  0.082051  0  1.014209  0
H  H30  1  0.83035788  0.36803302  0.64528479  1  0  0.29507  0  0.929911  0  0  0.278283  0  0.995115  0  0  0.285114  0  0.990662  0  0  0.303566  0.273422  0  0.998339  0
H  H31  1  0.16964605  0.63196992  0.35471293  1  0  0.295058  0  0.929887  0  0  0.278248  0  0.995115  0  0  0.285074  0  0.990674  0  0  0.303563  0.273388  0  0.99834  0
H  H32  1  0.70894223  0.17681963  0.77258043  1  0  0.298649  0  0.917918  0  0  0.282995  0  0.982191  0  0  0.289552  0  0.977534  0  0  0.306339  0.278417  0  0.985368  0
H  H33  1  0.29105843  0.82318242  0.22742237  1  0  0.298669  0  0.917813  0  0  0.283034  0  0.982048  0  0  0.289591  0  0.977392  0  0  0.306346  0.278456  0  0.985226  0
H  H34  1  0.55143231  0.21024422  0.90116449  1  0  0.13813  0  0.948457  0  0  0.148894  0  1.00505  0  0  0.152119  0  1.001802  0  0  0.128761  0.146435  0  1.007632  0
H  H35  1  0.44856953  0.78975870  0.09884015  1  0  0.138066  0  0.948498  0  0  0.148898  0  1.005023  0  0  0.152126  0  1.001778  0  0  0.128737  0.146435  0  1.007615  0
H  H36  1  0.76695205  0.04395522  0.58793480  1  0  0.065576  0  0.907281  0  0  0.076637  0  0.966055  0  0  0.077963  0  0.964783  0  0  0.114793  0.075956  0  0.966953  0
H  H37  1  0.23304793  0.95604947  0.41206388  1  0  0.065533  0  0.907296  0  0  0.076597  0  0.966076  0  0  0.077921  0  0.964805  0  0  0.114754  0.07591  0  0.966973  0
H  H38  1  0.85506930  0.91833812  0.74304724  1  0  0.093754  0  0.948373  0  0  0.108304  0  1.010104  0  0  0.110052  0  1.009465  0  0  0.092261  0.10709  0  1.010486  0
H  H39  1  0.14492400  0.08166397  0.25695102  1  0  0.093718  0  0.948426  0  0  0.108276  0  1.010154  0  0  0.110024  0  1.009514  0  0  0.092259  0.10706  0  1.010541  0
H  H40  1  0.96116182  0.03915579  0.82048334  1  0  0.075979  0  0.931437  0  0  0.092693  0  0.994604  0  0  0.093184  0  0.995325  0  0  0.090507  0.092014  0  0.994695  0
H  H41  1  0.03883557  0.96084542  0.17951562  1  0  0.076019  0  0.931405  0  0  0.09271  0  0.994602  0  0  0.093199  0  0.995325  0  0  0.090514  0.092031  0  0.994692  0
H  H42  1  0.10200708  0.92241304  0.71908529  1  0  0.066676  0  0.968541  0  0  0.081483  0  1.038966  0  0  0.081806  0  1.04003  0  0  0.087035  0.081169  0  1.038472  0
H  H43  1  0.89798863  0.07758381  0.28091815  1  0  0.066727  0  0.968597  0  0  0.081523  0  1.039013  0  0  0.081844  0  1.040073  0  0  0.087046  0.081205  0  1.038524  0
H  H44  1  0.98555950  0.94445197  0.59241810  1  0  0.059914  0  0.956804  0  0  0.083055  0  1.012218  0  0  0.083352  0  1.013276  0  0  0.088873  0.082756  0  1.011705  0
H  H45  1  0.01443448  0.05554750  0.40758103  1  0  0.059945  0  0.95672  0  0  0.083081  0  1.012135  0  0  0.083373  0  1.013193  0  0  0.08885  0.082779  0  1.011628  0
H  H46  1  0.94515096  0.23773865  0.74567446  1  0  0.066912  0  0.946007  0  0  0.080017  0  1.005557  0  0  0.081062  0  1.005063  0  0  0.11328  0.079197  0  1.005938  0
H  H47  1  0.05485168  0.76226255  0.25432543  1  0  0.066948  0  0.945961  0  0  0.080027  0  1.005569  0  0  0.081053  0  1.005074  0  0  0.113259  0.079203  0  1.005953  0
H  H48  1  0.24196798  0.92531547  0.90596401  1  0  0.110204  0  0.963118  0  0  0.122238  0  1.020911  0  0  0.124956  0  1.017711  0  0  0.138421  0.119982  0  1.023539  0
H  H49  1  0.75803441  0.07468397  0.09403986  1  0  0.110241  0  0.963086  0  0  0.122283  0  1.020863  0  0  0.124998  0  1.017669  0  0  0.138445  0.120061  0  1.023445  0
C  C50  1  0.02429615  0.18688818  0.60565553  1  0  -0.158408  0  3.648826  0  0  -0.202695  0  3.906794  0  0  -0.204562  0  3.91941  0  0  -0.166474  -0.201309  0  3.898111  0
C  C51  1  0.97570309  0.81311129  0.39434292  1  0  -0.158454  0  3.648934  0  0  -0.202757  0  3.906866  0  0  -0.204641  0  3.919473  0  0  -0.16649  -0.201363  0  3.898173  0
C  C52  1  0.54058208  0.46657829  0.31955340  1  0  0.254009  0  3.628929  0  0  0.188255  0  3.91299  0  0  0.202965  0  3.923353  0  0  0.163495  0.178451  0  3.906072  0
C  C53  1  0.45941938  0.53342205  0.68044383  1  0  0.253852  0  3.629019  0  0  0.188105  0  3.913078  0  0  0.202814  0  3.923441  0  0  0.163429  0.178303  0  3.906158  0
C  C54  1  0.69025299  0.49791060  0.48529213  1  0  0.03063  0  3.585686  0  0  -0.022663  0  3.854156  0  0  -0.015393  0  3.867501  0  0  0.028103  -0.027256  0  3.845316  0
C  C55  1  0.30974532  0.50208973  0.51470941  1  0  0.030654  0  3.585648  0  0  -0.022612  0  3.854108  0  0  -0.01534  0  3.867451  0  0  0.028139  -0.027206  0  3.845273  0
C  C56  1  0.11973249  0.09997967  0.66470471  1  0  -0.106516  0  3.698405  0  0  -0.146807  0  3.965835  0  0  -0.148015  0  3.981169  0  0  -0.17084  -0.145727  0  3.9551  0
C  C57  1  0.88026519  0.90001632  0.33529339  1  0  -0.106551  0  3.698402  0  0  -0.146775  0  3.965768  0  0  -0.147988  0  3.981099  0  0  -0.170889  -0.145697  0  3.955033  0
C  C58  1  0.60305959  0.01505455  0.73655542  1  0  0.542651  0  3.863586  0  0  0.494386  0  4.145327  0  0  0.525059  0  4.144874  0  0  0.246207  0.4738  0  4.145069  0
C  C59  1  0.39694133  0.98494925  0.26344503  1  0  0.542799  0  3.863252  0  0  0.494466  0  4.14511  0  0  0.525138  0  4.144656  0  0  0.24623  0.473878  0  4.144846  0
C  C60  1  0.49229208  0.12531085  0.87884733  1  0  0.030478  0  3.59454  0  0  -0.026878  0  3.864758  0  0  -0.019438  0  3.878852  0  0  0.025097  -0.032672  0  3.856013  0
C  C61  1  0.50770951  0.87469032  0.12115885  1  0  0.03055  0  3.594458  0  0  -0.02685  0  3.864637  0  0  -0.019416  0  3.87874  0  0  0.025096  -0.032636  0  3.855886  0
C  C62  1  0.81628319  0.08322534  0.67128638  1  0  0.136042  0  3.576673  0  0  0.11086  0  3.825619  0  0  0.11488  0  3.839894  0  0  0.015988  0.108298  0  3.815408  0
C  C63  1  0.18371655  0.91677760  0.32871223  1  0  0.135974  0  3.576783  0  0  0.11083  0  3.825714  0  0  0.114836  0  3.839978  0  0  0.015998  0.108271  0  3.815493  0
C  C64  1  0.50412664  0.03628138  0.80645436  1  0  -0.021484  0  3.821948  0  0  -0.019276  0  4.080373  0  0  -0.02542  0  4.104502  0  0  0.066241  -0.014994  0  4.063813  0
C  C65  1  0.49587600  0.96371981  0.19354877  1  0  -0.021498  0  3.82196  0  0  -0.019304  0  4.080455  0  0  -0.025448  0  4.104583  0  0  0.066254  -0.015023  0  4.063891  0
C  C66  1  0.67131020  0.38106844  0.45427252  1  0  -0.010077  0  3.808331  0  0  -0.008368  0  4.069306  0  0  -0.013661  0  4.092176  0  0  0.071387  -0.005141  0  4.053932  0
C  C67  1  0.32868496  0.61893189  0.54573008  1  0  -0.010038  0  3.808311  0  0  -0.008359  0  4.069319  0  0  -0.013651  0  4.092186  0  0  0.071404  -0.005135  0  4.053948  0
C  C68  1  0.91640483  0.00167765  0.73551326  1  0  -0.168664  0  3.658429  0  0  -0.211185  0  3.917341  0  0  -0.213346  0  3.931226  0  0  -0.168847  -0.209225  0  3.907662  0
C  C69  1  0.08359045  0.99832356  0.26448533  1  0  -0.168662  0  3.658483  0  0  -0.211191  0  3.917393  0  0  -0.213353  0  3.931275  0  0  -0.16888  -0.209231  0  3.907717  0
C  C70  1  0.03378802  0.98430775  0.67576964  1  0  -0.102784  0  3.692383  0  0  -0.145139  0  3.956942  0  0  -0.145988  0  3.971647  0  0  -0.170773  -0.144725  0  3.947226  0
C  C71  1  0.96620225  0.01569522  0.32422567  1  0  -0.102876  0  3.692431  0  0  -0.145206  0  3.956918  0  0  -0.146039  0  3.971603  0  0  -0.17075  -0.144793  0  3.947206  0
C  C72  1  0.90065825  0.20071033  0.66077151  1  0  0.132713  0  3.550309  0  0  0.111619  0  3.793401  0  0  0.116049  0  3.807322  0  0  0.015707  0.108562  0  3.78403  0
C  C73  1  0.09934253  0.79929261  0.33922728  1  0  0.132753  0  3.550282  0  0  0.111599  0  3.79347  0  0  0.116091  0  3.807297  0  0  0.015741  0.108544  0  3.784095  0
C  C74  1  0.73471405  0.27742511  0.50134880  1  0  0.541387  0  3.864608  0  0  0.488688  0  4.154838  0  0  0.519482  0  4.154029  0  0  0.247683  0.468033  0  4.154716  0
C  C75  1  0.26528296  0.72257348  0.49865086  1  0  0.541356  0  3.864567  0  0  0.488622  0  4.154823  0  0  0.519413  0  4.154016  0  0  0.24766  0.46797  0  4.154699  0
C  C76  1  0.32829211  0.97718087  0.88123405  1  0  0.255035  0  3.610002  0  0  0.191065  0  3.880898  0  0  0.20554  0  3.892011  0  0  0.163371  0.181491  0  3.873234  0
C  C77  1  0.67171158  0.02282031  0.11877008  1  0  0.255045  0  3.610313  0  0  0.19109  0  3.881184  0  0  0.205563  0  3.892307  0  0  0.163356  0.181498  0  3.873496  0
N  N78  1  0.40061581  0.94564136  0.80900209  1  0  -0.40122  0  3.288743  0  0  -0.328391  0  3.568039  0  0  -0.34809  0  3.583791  0  0  -0.352704  -0.314426  0  3.556573  0
N  N79  1  0.59938683  0.05435982  0.19100266  1  0  -0.401289  0  3.288868  0  0  -0.328464  0  3.568175  0  0  -0.34817  0  3.583934  0  0  -0.352719  -0.314505  0  3.556714  0
N  N80  1  0.38134268  0.08562773  0.92418662  1  0  -0.265675  0  3.448883  0  0  -0.19768  0  3.690876  0  0  -0.214295  0  3.70485  0  0  -0.368895  -0.186667  0  3.68181  0
N  N81  1  0.61866206  0.91437344  0.07581931  1  0  -0.265776  0  3.449134  0  0  -0.197754  0  3.691073  0  0  -0.21437  0  3.705054  0  0  -0.368868  -0.186746  0  3.682012  0
N  N82  1  0.57815277  0.36376937  0.35144845  1  0  -0.405597  0  3.27334  0  0  -0.335214  0  3.552271  0  0  -0.354088  0  3.567138  0  0  -0.341832  -0.322265  0  3.542179  0
N  N83  1  0.42184436  0.63623009  0.64855368  1  0  -0.405498  0  3.273362  0  0  -0.335074  0  3.552262  0  0  -0.353942  0  3.567125  0  0  -0.341776  -0.322125  0  3.542169  0
N  N84  1  0.60656456  0.54949646  0.39936196  1  0  -0.265118  0  3.424332  0  0  -0.205027  0  3.671997  0  0  -0.220214  0  3.684079  0  0  -0.362093  -0.194864  0  3.663709  0
N  N85  1  0.39343665  0.45050214  0.60063520  1  0  -0.265187  0  3.424283  0  0  -0.205044  0  3.671952  0  0  -0.22023  0  3.684032  0  0  -0.36212  -0.194881  0  3.663668  0
N  N86  1  0.81349212  0.28763882  0.60542997  1  0  -0.424788  0  3.282686  0  0  -0.375746  0  3.534935  0  0  -0.397611  0  3.544029  0  0  -0.408127  -0.360934  0  3.528457  0
N  N87  1  0.18650855  0.71236324  0.39457202  1  0  -0.424745  0  3.282635  0  0  -0.375617  0  3.534867  0  0  -0.397501  0  3.543958  0  0  -0.408088  -0.360812  0  3.52839  0
N  N88  1  0.70273019  0.10068145  0.72742510  1  0  -0.425632  0  3.292859  0  0  -0.375433  0  3.540823  0  0  -0.396799  0  3.550349  0  0  -0.40655  -0.360619  0  3.533639  0
N  N89  1  0.29726689  0.89932497  0.27257391  1  0  -0.425554  0  3.292692  0  0  -0.375348  0  3.54068  0  0  -0.396715  0  3.550212  0  0  -0.406499  -0.360539  0  3.533495  0
O  O90  1  0.46119403  0.26047939  0.12339020  1  0  -0.8285  0  1.893033  0  0  -0.768171  0  2.089696  0  0  -0.78819  0  2.055373  0  0  -0.57481  -0.754111  0  2.113898  0
O  O91  1  0.53880794  0.73952439  0.87661692  1  0  -0.828583  0  1.892934  0  0  -0.768294  0  2.08961  0  0  -0.78831  0  2.055288  0  0  -0.574863  -0.75423  0  2.113808  0
O  O92  1  0.71060703  0.18473737  0.44147253  1  0  -0.55145  0  1.989561  0  0  -0.491065  0  2.230904  0  0  -0.514686  0  2.220392  0  0  -0.281284  -0.474841  0  2.237974  0
O  O93  1  0.28939351  0.81526382  0.55852942  1  0  -0.55147  0  1.989385  0  0  -0.491107  0  2.230796  0  0  -0.514727  0  2.220284  0  0  -0.281336  -0.474882  0  2.237865  0
O  O94  1  0.59135110  0.91575599  0.68795678  1  0  -0.567156  0  1.960296  0  0  -0.507491  0  2.196216  0  0  -0.530864  0  2.183809  0  0  -0.299127  -0.491449  0  2.204645  0
O  O95  1  0.40864876  0.08424781  0.31204510  1  0  -0.567229  0  1.960132  0  0  -0.507517  0  2.196068  0  0  -0.53089  0  2.183661  0  0  -0.299137  -0.491467  0  2.204487  0
O  O96  1  0.78678182  0.27478286  0.23153531  1  0  -0.737516  0  1.566716  0  0  -0.731483  0  1.861304  0  0  -0.762371  0  1.851337  0  0  -0.510777  -0.709086  0  1.869131  0
O  O97  1  0.21321573  0.72521230  0.76845303  1  0  -0.737352  0  1.566669  0  0  -0.731305  0  1.861256  0  0  -0.762212  0  1.851312  0  0  -0.510652  -0.708902  0  1.869076  0
O  O98  1  0.62093352  0.43750146  0.06437620  1  0  -0.707397  0  1.526054  0  0  -0.702894  0  1.783933  0  0  -0.732308  0  1.774404  0  0  -0.507725  -0.682053  0  1.791548  0
O  O99  1  0.37907430  0.56249192  0.93561877  1  0  -0.707329  0  1.526114  0  0  -0.70282  0  1.784026  0  0  -0.732227  0  1.774479  0  0  -0.507692  -0.681994  0  1.791649  0
O  O100  1  0.68870614  0.66884114  0.12135994  1  0  -0.649109  0  1.418611  0  0  -0.644657  0  1.658762  0  0  -0.669979  0  1.64938  0  0  -0.505986  -0.626232  0  1.665738  0
O  O101  1  0.31131331  0.33114522  0.87864991  1  0  -0.64903  0  1.418345  0  0  -0.644606  0  1.658509  0  0  -0.669942  0  1.649145  0  0  -0.505886  -0.626183  0  1.665482  0
O  O102  1  0.81963017  0.81306517  0.96425649  1  0  -0.707497  0  1.474729  0  0  -0.694348  0  1.715169  0  0  -0.721257  0  1.70352  0  0  -0.512515  -0.675277  0  1.724097  0
O  O103  1  0.18036345  0.18693166  0.03575467  1  0  -0.707504  0  1.474731  0  0  -0.69436  0  1.715189  0  0  -0.721265  0  1.70354  0  0  -0.512577  -0.675274  0  1.724097  0
O  O104  1  0.10918200  0.84119341  0.99889271  1  0  -0.652084  0  1.42877  0  0  -0.649033  0  1.670523  0  0  -0.67454  0  1.661196  0  0  -0.499805  -0.630937  0  1.677733  0
O  O105  1  0.89081563  0.15880953  0.00110795  1  0  -0.652076  0  1.428816  0  0  -0.64903  0  1.67058  0  0  -0.674537  0  1.661252  0  0  -0.499791  -0.63094  0  1.677792  0
O  O106  1  0.28125583  0.66752259  0.15294032  1  0  -0.686206  0  1.457345  0  0  -0.675433  0  1.700062  0  0  -0.696878  0  1.687116  0  0  -0.505645  -0.659347  0  1.709947  0
O  O107  1  0.71875345  0.33248811  0.84707389  1  0  -0.686225  0  1.457769  0  0  -0.675446  0  1.700487  0  0  -0.696875  0  1.687544  0  0  -0.505648  -0.65937  0  1.710392  0
O  O108  1  0.12041566  0.50542560  0.24478347  1  0  -0.817029  0  1.659619  0  0  -0.807642  0  1.933085  0  0  -0.839087  0  1.92268  0  0  -0.547977  -0.784253  0  1.941435  0
O  O109  1  0.87958226  0.49457215  0.75520823  1  0  -0.81712  0  1.659592  0  0  -0.807745  0  1.932992  0  0  -0.839214  0  1.922662  0  0  -0.548062  -0.784356  0  1.94135  0
O  O110  1  0.98088002  0.65818800  0.10238138  1  0  -0.963797  0  1.84095  0  0  -0.955427  0  2.136251  0  0  -0.997366  0  2.130856  0  0  -0.595073  -0.92371  0  2.139035  0
O  O111  1  0.01912119  0.34181059  0.89761821  1  0  -0.963773  0  1.840988  0  0  -0.955368  0  2.136157  0  0  -0.997374  0  2.130925  0  0  -0.595075  -0.923662  0  2.13896  0
O  O112  1  0.92664168  0.42047408  0.05492856  1  0  -1.203096  0  1.8812  0  0  -1.18527  0  2.162327  0  0  -1.232309  0  2.161062  0  0  -0.618198  -1.148698  0  2.161771  0
O  O113  1  0.07335737  0.57953149  0.94506430  1  0  -1.203032  0  1.881112  0  0  -1.185115  0  2.162065  0  0  -1.232226  0  2.160945  0  0  -0.618192  -1.148544  0  2.161515  0
O  O114  1  0.85217474  0.50984139  0.23900620  1  0  -0.854302  0  1.706117  0  0  -0.853289  0  1.994142  0  0  -0.895029  0  1.989137  0  0  -0.586736  -0.822619  0  1.998076  0
O  O115  1  0.14782627  0.49014852  0.76098913  1  0  -0.854249  0  1.706163  0  0  -0.853193  0  1.994121  0  0  -0.894938  0  1.989119  0  0  -0.58669  -0.822521  0  1.998041  0
O  O116  1  0.00525956  0.36633339  0.40223269  1  0  -0.655197  0  1.401195  0  0  -0.650892  0  1.632156  0  0  -0.676478  0  1.622746  0  0  -0.503384  -0.632198  0  1.639985  0
O  O117  1  0.99472371  0.63365741  0.59776438  1  0  -0.655132  0  1.401085  0  0  -0.650856  0  1.632051  0  0  -0.676437  0  1.622618  0  0  -0.503361  -0.632163  0  1.639882  0
O  O118  1  0.05825114  0.27871320  0.19654675  1  0  -0.854116  0  1.703179  0  0  -0.84858  0  1.984975  0  0  -0.889946  0  1.977815  0  0  -0.58399  -0.817855  0  1.990165  0
O  O119  1  0.94174662  0.72129061  0.80345152  1  0  -0.854047  0  1.703157  0  0  -0.84851  0  1.984953  0  0  -0.889879  0  1.977794  0  0  -0.583915  -0.817788  0  1.990147  0
O  O120  1  0.78053110  0.56643863  0.93718410  1  0  -0.960036  0  1.790332  0  0  -0.951468  0  2.08075  0  0  -0.994083  0  2.075422  0  0  -0.596693  -0.919116  0  2.084304  0
O  O121  1  0.21946665  0.43356520  0.06281093  1  0  -0.960005  0  1.790402  0  0  -0.951392  0  2.080779  0  0  -0.994041  0  2.075493  0  0  -0.596711  -0.919061  0  2.084364  0
