# generated using pymatgen
data_CdP2H20C14S4(NO2)2
_symmetry_space_group_name_H-M   'P 1'
_cell_length_a   10.27479883
_cell_length_b   10.70863762
_cell_length_c   12.55182480
_cell_angle_alpha   77.89272531
_cell_angle_beta   66.77183482
_cell_angle_gamma   63.45152294
_symmetry_Int_Tables_number   1
_chemical_formula_structural   CdP2H20C14S4(NO2)2
_chemical_formula_sum   'Cd2 P4 H40 C28 S8 N4 O8'
_cell_volume   1134.35738920
_cell_formula_units_Z   2
loop_
 _symmetry_equiv_pos_site_id
 _symmetry_equiv_pos_as_xyz
  1  'x, y, z'
loop_
 _atom_site_type_symbol
 _atom_site_label
 _atom_site_symmetry_multiplicity
 _atom_site_fract_x
 _atom_site_fract_y
 _atom_site_fract_z
 _atom_site_occupancy
 _atom_site_hle17_bader_spin_density
 _atom_site_hle17_ddec_charge
 _atom_site_hle17_ddec_spin_density
 _atom_site_hle17_ddec_sum_bond_order
 _atom_site_hle17_magmom
 _atom_site_hse06_10hf_bader_spin_density
 _atom_site_hse06_10hf_ddec_charge
 _atom_site_hse06_10hf_ddec_spin_density
 _atom_site_hse06_10hf_ddec_sum_bond_order
 _atom_site_hse06_10hf_magmom
 _atom_site_hse06_bader_spin_density
 _atom_site_hse06_ddec_charge
 _atom_site_hse06_ddec_spin_density
 _atom_site_hse06_ddec_sum_bond_order
 _atom_site_hse06_magmom
 _atom_site_pbe_bader_spin_density
 _atom_site_pbe_cm5_charge
 _atom_site_pbe_ddec_charge
 _atom_site_pbe_ddec_spin_density
 _atom_site_pbe_ddec_sum_bond_order
 _atom_site_pbe_magmom
Cd  Cd0  1  0.68080559  0.76577185  0.75551618  1  0  0.776251  0  2.166621  0  0  0.622009  0  2.614557  0  0  0.660257  0  2.58998  0  0  0.60515  0.594109  0  2.631949  0
Cd  Cd1  1  0.31919254  0.23422852  0.24448447  1  0  0.776263  0  2.166625  0  0  0.62201  0  2.614558  0  0  0.660258  0  2.589978  0  0  0.605168  0.594112  0  2.631947  0
P  P2  1  0.68161891  0.06791776  0.71923693  1  0  0.978201  0  4.850706  0  0  0.867429  0  5.35162  0  0  0.911944  0  5.329342  0  0  0.242759  0.836545  0  5.366334  0
P  P3  1  0.31838275  0.93207948  0.28076313  1  0  0.978244  0  4.850841  0  0  0.86745  0  5.351763  0  0  0.911961  0  5.329499  0  0  0.242753  0.836565  0  5.366479  0
P  P4  1  0.97307362  0.48921324  0.77285401  1  0  0.988893  0  4.840756  0  0  0.875927  0  5.345713  0  0  0.920904  0  5.321785  0  0  0.247045  0.844691  0  5.361037  0
P  P5  1  0.02692710  0.51078609  0.22714600  1  0  0.988906  0  4.84071  0  0  0.875969  0  5.345662  0  0  0.920933  0  5.321733  0  0  0.247032  0.844731  0  5.360992  0
H  H6  1  0.43560176  0.84725079  0.62553250  1  0  0.075209  0  0.941925  0  0  0.083075  0  1.007844  0  0  0.085302  0  1.006499  0  0  0.106481  0.081295  0  1.009092  0
H  H7  1  0.56439695  0.15275063  0.37446780  1  0  0.075204  0  0.941947  0  0  0.083087  0  1.00785  0  0  0.085299  0  1.00652  0  0  0.106486  0.081307  0  1.009097  0
H  H8  1  0.35216252  0.74598380  0.51896660  1  0  0.107591  0  0.972004  0  0  0.115125  0  1.037616  0  0  0.118632  0  1.035665  0  0  0.102103  0.112449  0  1.039146  0
H  H9  1  0.64783466  0.25401866  0.48103401  1  0  0.107528  0  0.972044  0  0  0.115076  0  1.037627  0  0  0.11858  0  1.035676  0  0  0.102067  0.112398  0  1.039156  0
H  H10  1  0.70906718  0.34376182  0.56548999  1  0  0.115528  0  0.972882  0  0  0.121211  0  1.038761  0  0  0.125136  0  1.036049  0  0  0.106623  0.11821  0  1.041208  0
H  H11  1  0.29093201  0.65623857  0.43450873  1  0  0.115554  0  0.972953  0  0  0.121234  0  1.038822  0  0  0.125159  0  1.036111  0  0  0.106647  0.118233  0  1.041269  0
H  H12  1  0.77431624  0.46270501  0.67156529  1  0  0.074013  0  0.968275  0  0  0.078122  0  1.040014  0  0  0.080837  0  1.037282  0  0  0.105242  0.0762  0  1.041816  0
H  H13  1  0.22568402  0.53729539  0.32843309  1  0  0.074012  0  0.968275  0  0  0.078151  0  1.039992  0  0  0.080865  0  1.037261  0  0  0.105241  0.076211  0  1.04181  0
H  H14  1  0.38536785  0.05976757  0.79892759  1  0  0.071868  0  0.98497  0  0  0.075614  0  1.05791  0  0  0.07817  0  1.055808  0  0  0.10748  0.07385  0  1.059161  0
H  H15  1  0.61463132  0.94023276  0.20107513  1  0  0.071871  0  0.984939  0  0  0.07563  0  1.057876  0  0  0.078186  0  1.055774  0  0  0.107487  0.073865  0  1.059129  0
H  H16  1  0.10128696  0.16611859  0.88909108  1  0  0.1174  0  0.970418  0  0  0.126492  0  1.028479  0  0  0.130347  0  1.026503  0  0  0.110229  0.12347  0  1.030518  0
H  H17  1  0.89871290  0.83388483  0.11091410  1  0  0.117371  0  0.970437  0  0  0.126478  0  1.028488  0  0  0.130333  0  1.026516  0  0  0.110215  0.123457  0  1.030526  0
H  H18  1  0.12822839  0.75460831  0.03818300  1  0  0.108814  0  0.98494  0  0  0.114983  0  1.052266  0  0  0.118226  0  1.05117  0  0  0.101266  0.112297  0  1.053606  0
H  H19  1  0.87176878  0.24539412  0.96181921  1  0  0.108812  0  0.984995  0  0  0.114978  0  1.05231  0  0  0.11822  0  1.051215  0  0  0.101261  0.112295  0  1.053646  0
H  H20  1  0.40903882  0.66602127  0.93609568  1  0  0.076429  0  0.935137  0  0  0.086001  0  0.999067  0  0  0.088245  0  0.99728  0  0  0.10771  0.084445  0  1.000209  0
H  H21  1  0.59095825  0.33397907  0.06390611  1  0  0.076402  0  0.93514  0  0  0.085968  0  0.999076  0  0  0.088212  0  0.997289  0  0  0.107697  0.084413  0  1.000218  0
H  H22  1  0.04584312  0.08893561  0.60114578  1  0  0.096329  0  0.950179  0  0  0.112955  0  1.013642  0  0  0.11395  0  1.01302  0  0  0.095033  0.112297  0  1.013934  0
H  H23  1  0.95415559  0.91106581  0.39885452  1  0  0.096328  0  0.950216  0  0  0.112962  0  1.013668  0  0  0.113958  0  1.013043  0  0  0.095053  0.112305  0  1.013958  0
H  H24  1  0.00757068  0.94281050  0.59708927  1  0  0.082415  0  0.948539  0  0  0.097972  0  1.017741  0  0  0.098499  0  1.017706  0  0  0.09355  0.097579  0  1.017657  0
H  H25  1  0.99242852  0.05718990  0.40290945  1  0  0.082377  0  0.94859  0  0  0.097936  0  1.017799  0  0  0.098446  0  1.017778  0  0  0.093546  0.097547  0  1.017712  0
H  H26  1  0.98877008  0.98988597  0.73317155  1  0  0.082444  0  0.945611  0  0  0.097232  0  1.013113  0  0  0.098409  0  1.012535  0  0  0.090784  0.096629  0  1.012972  0
H  H27  1  0.01123063  0.01011336  0.26682846  1  0  0.082455  0  0.945603  0  0  0.097231  0  1.01312  0  0  0.098408  0  1.012538  0  0  0.090787  0.096627  0  1.01298  0
H  H28  1  0.38311004  0.38238837  0.84813761  1  0  0.099802  0  0.943762  0  0  0.119376  0  1.002691  0  0  0.120216  0  1.002143  0  0  0.100687  0.118607  0  1.003202  0
H  H29  1  0.61689103  0.61760779  0.15186441  1  0  0.099783  0  0.94371  0  0  0.119338  0  1.002665  0  0  0.120183  0  1.002111  0  0  0.100693  0.118569  0  1.003175  0
H  H30  1  0.58093513  0.31982650  0.84008063  1  0  0.084112  0  0.938667  0  0  0.098225  0  1.009074  0  0  0.099072  0  1.00859  0  0  0.093726  0.097329  0  1.009816  0
H  H31  1  0.41907054  0.68016657  0.15991886  1  0  0.084062  0  0.938677  0  0  0.098176  0  1.00909  0  0  0.099021  0  1.008607  0  0  0.093711  0.097279  0  1.009833  0
H  H32  1  0.46474572  0.22467825  0.92699479  1  0  0.087804  0  0.957623  0  0  0.101551  0  1.030326  0  0  0.102017  0  1.030695  0  0  0.087719  0.101007  0  1.030142  0
H  H33  1  0.53525842  0.77531586  0.07300500  1  0  0.087732  0  0.957755  0  0  0.101491  0  1.03044  0  0  0.101957  0  1.030804  0  0  0.087694  0.100948  0  1.030255  0
H  H34  1  0.16290995  0.57098079  0.91121832  1  0  0.084915  0  0.978617  0  0  0.098789  0  1.050255  0  0  0.099839  0  1.049732  0  0  0.089159  0.097929  0  1.050813  0
H  H35  1  0.83708935  0.42902170  0.08878002  1  0  0.084996  0  0.978612  0  0  0.098872  0  1.050239  0  0  0.099921  0  1.04972  0  0  0.089213  0.098011  0  1.050797  0
H  H36  1  0.96133006  0.65718831  0.92929192  1  0  0.086267  0  0.941925  0  0  0.101742  0  1.009143  0  0  0.102678  0  1.008771  0  0  0.091298  0.100961  0  1.009549  0
H  H37  1  0.03866913  0.34281207  0.07070761  1  0  0.086263  0  0.941933  0  0  0.101741  0  1.009147  0  0  0.102674  0  1.008781  0  0  0.091292  0.10096  0  1.009553  0
H  H38  1  0.10233160  0.67166040  0.79111987  1  0  0.076747  0  0.955695  0  0  0.09054  0  1.025712  0  0  0.091601  0  1.025409  0  0  0.087589  0.090234  0  1.024925  0
H  H39  1  0.89766817  0.32834104  0.20887850  1  0  0.076768  0  0.955656  0  0  0.090573  0  1.025663  0  0  0.091635  0  1.02536  0  0  0.087591  0.090266  0  1.024876  0
H  H40  1  0.20945564  0.16476619  0.63796440  1  0  0.090314  0  0.937636  0  0  0.109577  0  1.000234  0  0  0.109865  0  1.000302  0  0  0.09865  0.109309  0  1.000137  0
H  H41  1  0.79054508  0.83523314  0.36203561  1  0  0.090308  0  0.937654  0  0  0.109566  0  1.000256  0  0  0.109853  0  1.000327  0  0  0.098628  0.109296  0  1.00016  0
H  H42  1  0.28253761  0.27743672  0.66057555  1  0  0.096491  0  0.934916  0  0  0.110374  0  1.002694  0  0  0.111722  0  1.001889  0  0  0.099234  0.109396  0  1.003174  0
H  H43  1  0.71746263  0.72256367  0.33942363  1  0  0.096481  0  0.934929  0  0  0.110364  0  1.002712  0  0  0.111714  0  1.001908  0  0  0.099233  0.109387  0  1.00319  0
H  H44  1  0.17374965  0.33285515  0.56355406  1  0  0.090251  0  0.963689  0  0  0.102434  0  1.037101  0  0  0.102804  0  1.038269  0  0  0.091301  0.101947  0  1.036609  0
H  H45  1  0.82624954  0.66714522  0.43644627  1  0  0.090231  0  0.963716  0  0  0.102425  0  1.037112  0  0  0.102795  0  1.038279  0  0  0.091299  0.101938  0  1.036621  0
C  C46  1  0.49139924  0.73518358  0.61193404  1  0  0.120906  0  3.728815  0  0  0.093542  0  3.976363  0  0  0.099592  0  3.995761  0  0  0.039101  0.089478  0  3.963942  0
C  C47  1  0.50859889  0.26481680  0.38806582  1  0  0.120847  0  3.728753  0  0  0.093461  0  3.976312  0  0  0.099522  0  3.995712  0  0  0.039066  0.089398  0  3.963891  0
C  C48  1  0.44520450  0.67703357  0.55183537  1  0  -0.147261  0  3.698183  0  0  -0.164602  0  3.941652  0  0  -0.17129  0  3.962072  0  0  -0.079733  -0.159961  0  3.927764  0
C  C49  1  0.55478998  0.32296782  0.44816706  1  0  -0.147151  0  3.69819  0  0  -0.164493  0  3.941641  0  0  -0.171176  0  3.962055  0  0  -0.07967  -0.159851  0  3.927752  0
C  C50  1  0.52179268  0.53312564  0.53244233  1  0  0.102746  0  3.727384  0  0  0.115727  0  3.952766  0  0  0.119359  0  3.973904  0  0  0.016599  0.112672  0  3.938709  0
C  C51  1  0.47820661  0.46687682  0.46755761  1  0  0.102683  0  3.727373  0  0  0.11566  0  3.952758  0  0  0.119292  0  3.973895  0  0  0.016571  0.112604  0  3.938701  0
C  C52  1  0.64290589  0.45539623  0.57637408  1  0  -0.134988  0  3.679269  0  0  -0.155517  0  3.929474  0  0  -0.161627  0  3.948845  0  0  -0.080056  -0.152117  0  3.917908  0
C  C53  1  0.35709388  0.54460520  0.42362508  1  0  -0.135005  0  3.679302  0  0  -0.155531  0  3.929514  0  0  -0.161641  0  3.948886  0  0  -0.080098  -0.152131  0  3.917942  0
C  C54  1  0.68090291  0.52138337  0.63650726  1  0  0.129526  0  3.720214  0  0  0.099926  0  3.973453  0  0  0.106347  0  3.991698  0  0  0.04266  0.095494  0  3.961998  0
C  C55  1  0.31909734  0.47861703  0.36349113  1  0  0.129496  0  3.72023  0  0  0.099866  0  3.973457  0  0  0.106285  0  3.991703  0  0  0.042663  0.095449  0  3.962006  0
C  C56  1  0.32308010  0.99577828  0.85216373  1  0  0.128832  0  3.714115  0  0  0.100156  0  3.96484  0  0  0.106564  0  3.983131  0  0  0.041967  0.095866  0  3.95272  0
C  C57  1  0.67691955  0.00422103  0.14783742  1  0  0.128924  0  3.71405  0  0  0.100213  0  3.964773  0  0  0.10662  0  3.983063  0  0  0.041974  0.095922  0  3.952651  0
C  C58  1  0.16305365  0.05484317  0.90394663  1  0  -0.143879  0  3.676996  0  0  -0.159784  0  3.917864  0  0  -0.166781  0  3.937799  0  0  -0.080808  -0.155324  0  3.905191  0
C  C59  1  0.83694410  0.94516028  0.09605681  1  0  -0.143904  0  3.676945  0  0  -0.159807  0  3.917861  0  0  -0.166805  0  3.937797  0  0  -0.08084  -0.155347  0  3.905184  0
C  C60  1  0.08527969  0.97051100  0.97212661  1  0  0.095247  0  3.75075  0  0  0.106716  0  3.980044  0  0  0.110404  0  4.001444  0  0  0.013498  0.104062  0  3.965037  0
C  C61  1  0.91471854  0.02949143  0.02787526  1  0  0.095293  0  3.750591  0  0  0.106681  0  3.979972  0  0  0.110368  0  4.001371  0  0  0.013523  0.104025  0  3.964965  0
C  C62  1  0.17707697  0.82805626  0.98504699  1  0  -0.150965  0  3.688573  0  0  -0.1662  0  3.930522  0  0  -0.173575  0  3.952028  0  0  -0.080079  -0.161067  0  3.916162  0
C  C63  1  0.82292127  0.17194620  0.01495328  1  0  -0.151026  0  3.688518  0  0  -0.166232  0  3.930498  0  0  -0.173604  0  3.952002  0  0  -0.080104  -0.161101  0  3.91614  0
C  C64  1  0.33648390  0.77701130  0.92870837  1  0  0.127308  0  3.72071  0  0  0.097197  0  3.973931  0  0  0.10363  0  3.992881  0  0  0.044784  0.092692  0  3.961225  0
C  C65  1  0.66351270  0.22299009  0.07129339  1  0  0.127385  0  3.720697  0  0  0.097255  0  3.973898  0  0  0.103689  0  3.992847  0  0  0.044787  0.092748  0  3.961193  0
C  C66  1  0.97458582  0.03026144  0.64864965  1  0  -0.046391  0  3.620551  0  0  -0.139098  0  3.877674  0  0  -0.132143  0  3.880388  0  0  -0.1435  -0.14367  0  3.875445  0
C  C67  1  0.02541595  0.96973790  0.35134923  1  0  -0.046348  0  3.620589  0  0  -0.13908  0  3.87772  0  0  -0.132109  0  3.880442  0  0  -0.143509  -0.143657  0  3.875487  0
C  C68  1  0.48851790  0.28958804  0.84751087  1  0  -0.043571  0  3.588317  0  0  -0.138966  0  3.848264  0  0  -0.131731  0  3.851346  0  0  -0.143498  -0.143554  0  3.845999  0
C  C69  1  0.51148482  0.71040922  0.15248806  1  0  -0.043372  0  3.588367  0  0  -0.138756  0  3.848315  0  0  -0.131516  0  3.851387  0  0  -0.143456  -0.143345  0  3.846049  0
C  C70  1  0.07826931  0.60303720  0.86788907  1  0  -0.050728  0  3.624534  0  0  -0.145061  0  3.885193  0  0  -0.138739  0  3.888705  0  0  -0.147039  -0.149094  0  3.882483  0
C  C71  1  0.92173046  0.39696423  0.13211010  1  0  -0.050813  0  3.624526  0  0  -0.14516  0  3.885185  0  0  -0.13884  0  3.888698  0  0  -0.147071  -0.149189  0  3.882476  0
C  C72  1  0.18720273  0.27351541  0.64398964  1  0  -0.040997  0  3.568008  0  0  -0.135506  0  3.828801  0  0  -0.128635  0  3.832184  0  0  -0.140693  -0.139947  0  3.82626  0
C  C73  1  0.81279857  0.72648497  0.35601001  1  0  -0.040977  0  3.568054  0  0  -0.135465  0  3.828815  0  0  -0.128604  0  3.832196  0  0  -0.14068  -0.139905  0  3.826273  0
S  S74  1  0.70448310  0.94701468  0.86031790  1  0  -0.553505  0  1.960285  0  0  -0.50968  0  2.294662  0  0  -0.529263  0  2.287173  0  0  -0.202167  -0.49534  0  2.299024  0
S  S75  1  0.29551962  0.05298257  0.13968182  1  0  -0.553535  0  1.960349  0  0  -0.509705  0  2.294723  0  0  -0.529288  0  2.287238  0  0  -0.202179  -0.495364  0  2.299085  0
S  S76  1  0.66664103  0.98565288  0.59808141  1  0  -0.568734  0  1.922544  0  0  -0.526271  0  2.256362  0  0  -0.54505  0  2.244696  0  0  -0.208196  -0.512035  0  2.264029  0
S  S77  1  0.33336016  0.01434541  0.40191782  1  0  -0.568734  0  1.922543  0  0  -0.526301  0  2.256419  0  0  -0.545078  0  2.244753  0  0  -0.208215  -0.512064  0  2.264086  0
S  S78  1  0.76074858  0.52940061  0.89006749  1  0  -0.568434  0  1.926019  0  0  -0.522829  0  2.264321  0  0  -0.541163  0  2.250406  0  0  -0.202057  -0.508675  0  2.273326  0
S  S79  1  0.23925214  0.47059871  0.10993252  1  0  -0.568413  0  1.926005  0  0  -0.522796  0  2.264283  0  0  -0.541128  0  2.250371  0  0  -0.202041  -0.508646  0  2.273296  0
S  S80  1  0.98437908  0.62047679  0.63492216  1  0  -0.556981  0  1.947406  0  0  -0.509889  0  2.273389  0  0  -0.529407  0  2.264424  0  0  -0.199913  -0.495024  0  2.278289  0
S  S81  1  0.01562117  0.37952360  0.36507703  1  0  -0.556988  0  1.947409  0  0  -0.50989  0  2.273382  0  0  -0.529409  0  2.264417  0  0  -0.199913  -0.495025  0  2.27828  0
N  N82  1  0.60664156  0.65899840  0.65453206  1  0  -0.322267  0  3.301344  0  0  -0.244662  0  3.554967  0  0  -0.263352  0  3.57728  0  0  -0.335399  -0.232219  0  3.540291  0
N  N83  1  0.39335869  0.34100200  0.34546633  1  0  -0.322204  0  3.301314  0  0  -0.244594  0  3.554946  0  0  -0.263279  0  3.57725  0  0  -0.335386  -0.232149  0  3.540259  0
N  N84  1  0.40922516  0.85875212  0.86279718  1  0  -0.311668  0  3.287422  0  0  -0.237803  0  3.547979  0  0  -0.255803  0  3.56888  0  0  -0.32947  -0.225381  0  3.533757  0
N  N85  1  0.59077402  0.14124823  0.13720474  1  0  -0.311772  0  3.287488  0  0  -0.237834  0  3.547979  0  0  -0.255834  0  3.56888  0  0  -0.329445  -0.225411  0  3.533754  0
O  O86  1  0.81582104  0.12747240  0.66545696  1  0  -0.402109  0  2.285133  0  0  -0.313591  0  2.53045  0  0  -0.33387  0  2.525361  0  0  -0.223158  -0.29991  0  2.534183  0
O  O87  1  0.18418121  0.87252589  0.33454274  1  0  -0.402129  0  2.285138  0  0  -0.313561  0  2.530419  0  0  -0.333842  0  2.525325  0  0  -0.223153  -0.299883  0  2.534157  0
O  O88  1  0.53128611  0.21406476  0.74737390  1  0  -0.403017  0  2.310912  0  0  -0.317081  0  2.564557  0  0  -0.338022  0  2.560631  0  0  -0.219278  -0.302376  0  2.566629  0
O  O89  1  0.46871332  0.78593037  0.25262801  1  0  -0.403091  0  2.310947  0  0  -0.317163  0  2.564598  0  0  -0.338106  0  2.560672  0  0  -0.219283  -0.302458  0  2.566672  0
O  O90  1  0.09206877  0.47554043  0.83353801  1  0  -0.4008  0  2.272329  0  0  -0.314114  0  2.518508  0  0  -0.334371  0  2.513899  0  0  -0.224214  -0.300052  0  2.521391  0
O  O91  1  0.90793147  0.52445994  0.16646197  1  0  -0.400813  0  2.272331  0  0  -0.314129  0  2.518512  0  0  -0.334386  0  2.513906  0  0  -0.224221  -0.300067  0  2.521395  0
O  O92  1  0.04251623  0.32884014  0.73995405  1  0  -0.406326  0  2.298657  0  0  -0.319318  0  2.548389  0  0  -0.339702  0  2.542824  0  0  -0.220142  -0.305253  0  2.552163  0
O  O93  1  0.95748660  0.67115920  0.26004529  1  0  -0.406337  0  2.298663  0  0  -0.31939  0  2.548434  0  0  -0.339746  0  2.54285  0  0  -0.220141  -0.305324  0  2.552207  0
