# generated using pymatgen
data_CuH6C9O5
_symmetry_space_group_name_H-M   'P 1'
_cell_length_a   5.29131453
_cell_length_b   9.88727991
_cell_length_c   16.43562169
_cell_angle_alpha   99.00850514
_cell_angle_beta   89.99974191
_cell_angle_gamma   90.00120760
_symmetry_Int_Tables_number   1
_chemical_formula_structural   CuH6C9O5
_chemical_formula_sum   'Cu4 H24 C36 O20'
_cell_volume   849.25136809
_cell_formula_units_Z   4
loop_
 _symmetry_equiv_pos_site_id
 _symmetry_equiv_pos_as_xyz
  1  'x, y, z'
loop_
 _atom_site_type_symbol
 _atom_site_label
 _atom_site_symmetry_multiplicity
 _atom_site_fract_x
 _atom_site_fract_y
 _atom_site_fract_z
 _atom_site_occupancy
 _atom_site_hle17_ddec_charge
 _atom_site_hle17_ddec_spin_density
 _atom_site_hle17_ddec_sum_bond_order
 _atom_site_hle17_magmom
 _atom_site_hse06_10hf_ddec_charge
 _atom_site_hse06_10hf_ddec_spin_density
 _atom_site_hse06_10hf_ddec_sum_bond_order
 _atom_site_hse06_10hf_magmom
 _atom_site_hse06_ddec_charge
 _atom_site_hse06_ddec_spin_density
 _atom_site_hse06_ddec_sum_bond_order
 _atom_site_hse06_magmom
 _atom_site_pbe_cm5_charge
 _atom_site_pbe_ddec_charge
 _atom_site_pbe_ddec_spin_density
 _atom_site_pbe_ddec_sum_bond_order
 _atom_site_pbe_magmom
Cu  Cu0  1  0.26227022  0.06184328  0.70851047  1  0.936982  0.656717  1.798069  0.473  0.936896  0.787655  2.205821  0.625  1.043027  0.876193  2.111186  0.724  0.699187  0.868413  0.692464  2.272354  0.539
Cu  Cu1  1  0.76230413  0.93815511  0.29149074  1  0.936922  -0.656704  1.798235  -0.473  0.936847  -0.78765  2.206021  -0.625  1.044203  -0.876208  2.110357  -0.724  0.699183  0.86849  -0.69246  2.272318  -0.539
Cu  Cu2  1  0.71428158  0.03701970  0.78004193  1  0.92319  -0.671691  1.76451  -0.483  0.922341  -0.790921  2.165067  -0.628  1.033234  -0.877016  2.064386  -0.725  0.68747  0.851841  -0.697261  2.231617  -0.542
Cu  Cu3  1  0.21432229  0.96298324  0.21995793  1  0.92321  0.671687  1.764624  0.483  0.922349  0.790924  2.165203  0.628  1.021429  0.877049  2.086645  0.725  0.687477  0.851866  0.697259  2.231761  0.542
H  H4  1  0.09167030  0.00897241  0.98608704  1  0.121727  -0.000266  0.93888  0.0  0.127434  -0.000254  1.005705  0.0  0.130687  -0.000197  1.00356  0.0  0.122816  0.125104  -0.000279  1.007347  0.0
H  H5  1  0.59167693  0.99102297  0.01391712  1  0.121791  0.000268  0.938777  0.0  0.127463  0.000254  1.005639  0.0  0.130718  0.000197  1.003497  0.0  0.122826  0.12513  0.000279  1.007283  0.0
H  H6  1  0.94762782  0.87894178  0.91460165  1  0.106955  0.000125  0.926617  0.0  0.114131  -7.9e-05  0.992215  0.0  0.116319  -5e-05  0.990555  0.0  0.11661  0.112631  -0.000228  0.993468  0.0
H  H7  1  0.44764647  0.12105163  0.08540436  1  0.106885  -0.000125  0.926698  0.0  0.114116  7.9e-05  0.992229  0.0  0.116359  5e-05  0.990422  0.0  0.116623  0.112618  0.000228  0.993481  0.0
H  H8  1  0.64327441  0.36472101  0.64949502  1  0.116224  0.000103  0.971039  0.0  0.125867  9.1e-05  1.030947  0.0  0.128958  4.8e-05  1.03005  0.0  0.104738  0.123503  0.00015  1.03223  0.0
H  H9  1  0.14330803  0.63527289  0.35049982  1  0.116201  -0.000108  0.970836  0.0  0.125886  -9.1e-05  1.030721  0.0  0.128942  -4.8e-05  1.029887  0.0  0.104741  0.123524  -0.00015  1.032002  0.0
H  H10  1  0.65179228  0.67962585  0.00379987  1  0.120814  -0.000155  0.927598  0.0  0.131467  5.7e-05  0.983309  0.0  0.134461  3.7e-05  0.982962  0.0  0.109091  0.129415  8.6e-05  0.983586  0.0
H  H11  1  0.15179917  0.32037633  0.99619269  1  0.120743  0.000152  0.927616  0.0  0.131464  -5.7e-05  0.983259  0.0  0.134465  -3.7e-05  0.98291  0.0  0.109078  0.129413  -8.5e-05  0.983537  0.0
H  H12  1  0.63458321  0.61037117  0.70551324  1  0.105705  -0.000257  0.941722  0.0  0.115624  -0.000194  1.001023  0.0  0.118495  -0.000119  0.999386  0.0  0.106815  0.113751  -0.000228  1.002003  0.0
H  H13  1  0.13464627  0.38961650  0.29448347  1  0.10586  0.000262  0.94183  0.0  0.115712  0.000194  1.001193  0.0  0.118582  0.000119  0.999584  0.0  0.106859  0.113841  0.000228  1.002172  0.0
H  H14  1  0.34983183  0.66729714  0.59135000  1  0.107501  0.000267  0.950988  0.0  0.116833  0.000188  1.010876  0.0  0.119795  0.000114  1.008582  0.0  0.107751  0.114593  0.000241  1.012613  0.0
H  H15  1  0.84987481  0.33271357  0.40866017  1  0.107448  -0.000265  0.950969  0.0  0.116882  -0.000188  1.010745  0.0  0.119847  -0.000114  1.00845  0.0  0.107776  0.114642  -0.000241  1.012479  0.0
H  H16  1  0.35894446  0.41938374  0.53211472  1  0.105891  -0.000136  0.972975  0.0  0.112332  -0.000105  1.042857  0.0  0.114576  -6.7e-05  1.044049  0.0  0.101143  0.110618  -0.000112  1.042288  0.0
H  H17  1  0.85896181  0.58063014  0.46789329  1  0.105936  0.000135  0.9731  0.0  0.112338  0.000105  1.043059  0.0  0.114579  6.7e-05  1.04425  0.0  0.101119  0.110628  0.000112  1.042499  0.0
H  H18  1  0.85302142  0.06990463  0.49607668  1  0.133681  -0.000617  0.92944  -0.001  0.1452  -0.000464  0.982835  0.0  0.148051  -0.000312  0.981268  0.0  0.12438  0.143062  -0.000543  0.984054  0.0
H  H19  1  0.35302202  0.93008766  0.50392386  1  0.133667  0.000618  0.929437  0.001  0.145181  0.000464  0.982859  0.0  0.148029  0.000311  0.9813  0.0  0.124394  0.143043  0.000543  0.984074  0.0
H  H20  1  0.65117246  0.21501976  0.51525221  1  0.099466  -0.000719  0.924792  -0.001  0.107101  -0.000411  0.992054  -0.001  0.109135  -0.000252  0.990671  0.0  0.115087  0.105834  -0.000457  0.992886  -0.001
H  H21  1  0.15118679  0.78496606  0.48474491  1  0.099441  0.000721  0.924795  0.001  0.107078  0.000411  0.992067  0.001  0.109115  0.000252  0.990689  0.0  0.115019  0.105807  0.000457  0.992903  0.001
H  H22  1  0.09978829  0.46101430  0.77589726  1  0.104784  0.00017  0.960119  0.0  0.112174  0.000188  1.023409  0.0  0.114402  0.000119  1.022705  0.0  0.103986  0.110648  0.000276  1.0237  0.0
H  H23  1  0.59980066  0.53899037  0.22410107  1  0.104727  -0.00017  0.960082  0.0  0.112184  -0.000188  1.023309  0.0  0.114414  -0.000119  1.022614  0.0  0.103981  0.110659  -0.000277  1.023594  0.0
H  H24  1  0.00655634  0.69540115  0.84396502  1  0.113574  -0.000205  0.966757  0.0  0.121634  -9.3e-05  1.030137  0.0  0.123865  -4.8e-05  1.031034  0.0  0.104384  0.120039  -9.2e-05  1.02959  0.0
H  H25  1  0.50656099  0.30460243  0.15603392  1  0.113599  0.000209  0.966822  0.0  0.121649  9.3e-05  1.030208  0.0  0.123879  4.8e-05  1.031131  0.0  0.104385  0.120056  9.2e-05  1.029659  0.0
H  H26  1  0.74631026  0.44313264  0.93260081  1  0.098756  -0.000372  0.971526  0.0  0.106335  -0.000313  1.036709  0.0  0.108677  -0.000199  1.035884  0.0  0.102196  0.104668  -0.000338  1.037415  0.0
H  H27  1  0.24631361  0.55687167  0.06739184  1  0.098871  0.000369  0.971811  0.0  0.10645  0.000313  1.036959  0.0  0.108795  0.000199  1.03615  0.0  0.102261  0.104801  0.000338  1.037648  0.0
C  C28  1  0.13053659  0.92211764  0.93735539  1  -0.08049  -0.002506  3.60637  -0.003  -0.135027  -0.001402  3.859254  -0.002  -0.135786  -0.001116  3.861932  -0.001  -0.062088  -0.13419  -0.001462  3.857531  -0.002
C  C29  1  0.63054936  0.07787512  0.06264788  1  -0.080535  0.002509  3.606242  0.003  -0.135032  0.001402  3.859148  0.002  -0.135739  0.001116  3.86177  0.001  -0.062123  -0.134194  0.001464  3.857419  0.002
C  C30  1  0.79871539  0.42931366  0.63552213  1  -0.20228  0.000809  3.727295  0.001  -0.221451  0.00065  3.980912  0.001  -0.229696  0.000348  4.000867  0.0  -0.1052  -0.216161  0.000747  3.968245  0.001
C  C31  1  0.29876711  0.57068004  0.36447922  1  -0.202009  -0.000719  3.727577  -0.001  -0.221338  -0.000653  3.981205  -0.001  -0.229547  -0.000348  4.001189  0.0  -0.105135  -0.216044  -0.000746  3.968527  -0.001
C  C32  1  0.53283738  0.63048481  0.95353416  1  -0.179922  0.007492  3.721097  0.007  -0.204484  0.001457  3.985492  0.001  -0.212851  0.000611  4.004795  0.001  -0.098772  -0.199089  0.001296  3.973129  0.001
C  C33  1  0.03283588  0.36951908  0.04646295  1  -0.179901  -0.007501  3.721504  -0.007  -0.20448  -0.001457  3.985893  -0.001  -0.212857  -0.000611  4.005225  -0.001  -0.098795  -0.199089  -0.001294  3.973531  -0.001
C  C34  1  0.79283264  0.56849103  0.66723486  1  -0.032359  0.001349  3.729012  0.002  -0.051493  0.000832  3.975245  0.001  -0.046277  0.000619  3.992852  0.001  -0.076826  -0.055089  0.000832  3.963446  0.001
C  C35  1  0.29286829  0.43150770  0.33276330  1  -0.032776  -0.00144  3.729077  -0.002  -0.051825  -0.000831  3.975371  -0.001  -0.046605  -0.000621  3.993023  -0.001  -0.076901  -0.055416  -0.000832  3.963575  -0.001
C  C36  1  0.42771516  0.43663015  0.84985405  1  -0.092781  0.009677  3.76975  0.009  -0.079593  0.001137  4.007223  0.001  -0.094295  0.000285  4.030879  0.0  -0.029575  -0.069178  0.000553  3.991376  0.0
C  C37  1  0.92771270  0.56337732  0.15014234  1  -0.092762  -0.009702  3.769528  -0.009  -0.079488  -0.001137  4.006945  -0.001  -0.094181  -0.000284  4.030654  0.0  -0.029541  -0.069071  -0.000552  3.9911  0.0
C  C38  1  0.98917128  0.65559021  0.65107636  1  -0.099922  -0.001605  3.776546  -0.002  -0.08694  -0.0004  4.015913  0.0  -0.100646  -0.000231  4.038803  0.0  -0.031895  -0.077854  -0.000387  4.000441  0.0
C  C39  1  0.48923359  0.34441086  0.34893093  1  -0.099871  0.001676  3.776531  0.002  -0.086905  0.000399  4.01595  0.0  -0.100608  0.000232  4.038921  0.0  -0.031989  -0.077842  0.000389  4.000509  0.001
C  C40  1  0.19542648  0.60020645  0.60308552  1  -0.053568  -0.000903  3.754228  -0.001  -0.075843  -0.000716  4.005839  -0.001  -0.071318  -0.000494  4.024232  -0.001  -0.083289  -0.07839  -0.00078  3.992884  -0.001
C  C41  1  0.69545519  0.39980038  0.39691837  1  -0.053468  0.000841  3.754479  0.001  -0.075787  0.000717  4.006049  0.001  -0.071265  0.000493  4.024474  0.001  -0.083297  -0.078327  0.000779  3.9931  0.001
C  C42  1  0.20271344  0.46206260  0.57099843  1  -0.177245  -0.000713  3.735938  -0.001  -0.198597  -0.000236  3.994032  0.0  -0.206456  -0.000165  4.015048  0.0  -0.099692  -0.193125  -9.4e-05  3.979532  0.0
C  C43  1  0.70276385  0.53794638  0.42900930  1  -0.177207  0.000775  3.735561  0.001  -0.198662  0.000233  3.99366  0.0  -0.206515  0.000165  4.014676  0.0  -0.099661  -0.193206  9.5e-05  3.979173  0.0
C  C44  1  0.98323200  0.80433598  0.68445152  1  0.651999  0.000504  3.849628  0.001  0.621998  0.000215  4.133605  0.001  0.66616  0.000252  4.125568  0.001  0.215769  0.591692  0.000261  4.138532  0.001
C  C45  1  0.48327979  0.19566399  0.31555202  1  0.652222  -0.00052  3.84984  -0.001  0.622159  -0.000213  4.133898  -0.001  0.666467  -0.000251  4.125231  0.0  0.215918  0.591862  -0.000263  4.138823  -0.001
C  C46  1  0.00407294  0.37595687  0.58674844  1  0.292409  -0.000382  3.768713  0.0  0.279292  1.2e-05  4.03564  0.0  0.29285  2.8e-05  4.049936  0.0  0.092706  0.269872  -4.7e-05  4.025777  0.0
C  C47  1  0.50408531  0.62404668  0.41324989  1  0.292184  0.000327  3.76869  0.0  0.27925  -9e-06  4.035357  0.0  0.292807  -2.8e-05  4.049662  0.0  0.092695  0.269834  4.7e-05  4.025491  0.0
C  C48  1  0.80532950  0.16054423  0.54122575  1  -0.074393  -0.002814  3.607615  -0.003  -0.127732  -0.001223  3.861203  -0.002  -0.128301  -0.00074  3.86315  -0.001  -0.061037  -0.126558  -0.001457  3.859276  -0.002
C  C49  1  0.30534066  0.83944647  0.45877470  1  -0.0742  0.002817  3.607311  0.003  -0.127693  0.001224  3.860952  0.002  -0.128247  0.00074  3.862914  0.001  -0.061047  -0.12651  0.001459  3.859035  0.002
C  C50  1  0.32398347  0.70207642  0.92908612  1  0.294869  0.002827  3.774391  0.002  0.280222  0.000348  4.043074  0.0  0.293991  0.000167  4.058167  0.0  0.091787  0.270205  0.00036  4.03362  0.0
C  C51  1  0.82399688  0.29792779  0.07090948  1  0.294923  -0.002796  3.774405  -0.002  0.280244  -0.000348  4.04321  0.0  0.294  -0.000167  4.058363  0.0  0.091888  0.270237  -0.00036  4.033747  0.0
C  C52  1  0.22155248  0.50977745  0.82532292  1  -0.022406  -0.001529  3.722002  -0.002  -0.044195  -0.000124  3.970148  -0.001  -0.038952  -3.8e-05  3.989723  0.0  -0.076476  -0.047906  -0.000172  3.956955  -0.001
C  C53  1  0.72157141  0.49022453  0.17466955  1  -0.022337  0.001565  3.7226  0.002  -0.044205  0.000124  3.970727  0.001  -0.038958  3.7e-05  3.990332  0.0  -0.076493  -0.04791  0.000172  3.957526  0.001
C  C54  1  0.70328522  0.11161640  0.61822511  1  0.669655  0.001724  3.823151  0.002  0.631388  0.001937  4.124189  0.002  0.672406  0.001551  4.116907  0.002  0.219401  0.602784  0.002317  4.129333  0.002
C  C55  1  0.20331089  0.88837515  0.38177432  1  0.669438  -0.001728  3.823071  -0.002  0.631398  -0.001937  4.123835  -0.002  0.672621  -0.001551  4.115602  -0.002  0.219377  0.60279  -0.002319  4.128996  -0.002
C  C56  1  0.16956191  0.64212119  0.86396034  1  -0.208364  0.002512  3.747096  0.002  -0.230239  8e-06  4.005457  0.0  -0.241051  -0.000139  4.029805  0.0  -0.108579  -0.222896  -0.000159  3.989492  0.0
C  C57  1  0.66956703  0.35788532  0.13603869  1  -0.208354  -0.002561  3.747257  -0.002  -0.230199  -1e-05  4.005679  0.0  -0.241005  0.00014  4.030059  0.0  -0.108591  -0.222863  0.00016  3.989715  0.0
C  C58  1  0.58415517  0.49873369  0.91406527  1  -0.036346  -0.002575  3.736447  -0.002  -0.057803  0.000291  3.985474  0.001  -0.052759  0.000317  4.004886  0.001  -0.078344  -0.061353  0.000772  3.972736  0.001
C  C59  1  0.08417122  0.50127178  0.08592280  1  -0.036529  0.002605  3.736368  0.002  -0.057996  -0.000291  3.985377  -0.001  -0.052947  -0.000319  4.004827  -0.001  -0.078431  -0.061562  -0.000772  3.972641  -0.001
C  C60  1  0.26955849  0.97641394  0.86768603  1  0.673167  0.002302  3.812007  0.003  0.63744  0.001202  4.107671  0.002  0.678237  0.000997  4.100617  0.001  0.22014  0.609098  0.001193  4.112748  0.001
C  C61  1  0.76958502  0.02358147  0.13231672  1  0.673287  -0.00231  3.812215  -0.003  0.637547  -0.0012  4.107877  -0.002  0.67861  -0.000997  4.099578  -0.001  0.220152  0.609205  -0.001195  4.112966  -0.001
C  C62  1  0.47060385  0.29413939  0.80869005  1  0.63757  -0.000224  3.864891  0.0  0.604596  0.000312  4.155579  0.001  0.648209  0.000525  4.150358  0.001  0.212571  0.57415  0.000697  4.159914  0.001
C  C63  1  0.97063445  0.70586448  0.19130353  1  0.637361  0.000222  3.865014  0.0  0.604321  -0.000312  4.155818  -0.001  0.648144  -0.000527  4.14965  -0.001  0.212406  0.573877  -0.0007  4.160151  -0.001
O  O64  1  0.02795324  0.24186703  0.55119977  1  -0.235062  0.003337  2.314514  0.005  -0.178494  0.002335  2.553075  0.004  -0.195699  0.00137  2.55492  0.002  -0.173661  -0.165672  0.003178  2.55078  0.005
O  O65  1  0.52797575  0.75813478  0.44880445  1  -0.235051  -0.003339  2.314307  -0.005  -0.178376  -0.002334  2.552703  -0.004  -0.195579  -0.00137  2.554569  -0.002  -0.173582  -0.165563  -0.003178  2.550418  -0.005
O  O66  1  0.28066545  0.82877171  0.97396424  1  -0.241161  0.011413  2.344234  0.015  -0.179769  0.003641  2.579344  0.006  -0.197424  0.001784  2.581687  0.003  -0.172093  -0.166955  0.003508  2.577573  0.005
O  O67  1  0.78067671  0.17122382  0.02603730  1  -0.241087  -0.011407  2.344036  -0.015  -0.179819  -0.003641  2.579281  -0.006  -0.197484  -0.001785  2.58169  -0.003  -0.172131  -0.167007  -0.003507  2.577507  -0.005
O  O68  1  0.17138420  0.87482492  0.66547896  1  -0.590864  0.07035  2.108404  0.092  -0.56632  0.048408  2.39239  0.069  -0.612374  0.038263  2.380986  0.058  -0.323079  -0.535528  0.05168  2.399375  0.071
O  O69  1  0.67141680  0.12517551  0.33453045  1  -0.591065  -0.070334  2.108511  -0.092  -0.56653  -0.048405  2.39254  -0.069  -0.612464  -0.03826  2.380608  -0.058  -0.323282  -0.535765  -0.051676  2.399506  -0.071
O  O70  1  0.47858413  0.06686253  0.61044324  1  -0.573072  0.056096  2.110515  0.073  -0.543954  0.043574  2.389044  0.062  -0.584327  0.035586  2.375418  0.054  -0.30476  -0.516178  0.045501  2.397545  0.063
O  O71  1  0.97860862  0.93312918  0.38955772  1  -0.573021  -0.056102  2.110437  -0.073  -0.544019  -0.043577  2.388913  -0.062  -0.584197  -0.035589  2.374562  -0.054  -0.304805  -0.516262  -0.045502  2.397395  -0.063
O  O72  1  0.33319541  0.25305608  0.74531300  1  -0.574965  0.090898  2.114112  0.119  -0.554007  0.06198  2.39886  0.089  -0.603207  0.048342  2.391966  0.073  -0.316316  -0.522446  0.066055  2.40378  0.091
O  O73  1  0.83322459  0.74694722  0.25468372  1  -0.574884  -0.090912  2.114093  -0.119  -0.553883  -0.061986  2.398839  -0.089  -0.602893  -0.048347  2.39129  -0.073  -0.3163  -0.522345  -0.066061  2.403758  -0.091
O  O74  1  0.63562548  0.22105049  0.83842815  1  -0.551117  -0.095202  2.055619  -0.124  -0.529728  -0.064158  2.326669  -0.092  -0.576882  -0.049912  2.317228  -0.076  -0.308205  -0.499892  -0.068046  2.333586  -0.094
O  O75  1  0.13567155  0.77895459  0.16156774  1  -0.550996  0.095201  2.055868  0.124  -0.529631  0.064163  2.326963  0.092  -0.574944  0.049913  2.318949  0.076  -0.308083  -0.499815  0.068052  2.333915  0.094
O  O76  1  0.50461126  0.95482766  0.86106343  1  -0.561518  -0.058138  2.096273  -0.077  -0.530795  -0.043139  2.37171  -0.063  -0.570493  -0.035479  2.357915  -0.055  -0.297982  -0.505205  -0.044313  2.381913  -0.062
O  O77  1  0.00462801  0.04517080  0.13894051  1  -0.561695  0.058121  2.096571  0.077  -0.530882  0.043129  2.371945  0.063  -0.568711  0.035471  2.359399  0.055  -0.298009  -0.505304  0.044303  2.382168  0.062
O  O78  1  0.79319273  0.84861368  0.72902717  1  -0.58641  -0.080104  2.089247  -0.105  -0.565285  -0.052499  2.37173  -0.075  -0.611885  -0.040591  2.359998  -0.062  -0.319279  -0.53446  -0.055939  2.379198  -0.077
O  O79  1  0.29325283  0.15138814  0.27097188  1  -0.58638  0.080101  2.089503  0.105  -0.565228  0.052495  2.372022  0.075  -0.609849  0.040586  2.361846  0.062  -0.31923  -0.534413  0.055936  2.379499  0.077
O  O80  1  0.84159259  0.11850239  0.68224036  1  -0.612467  -0.061754  2.191695  -0.081  -0.588177  -0.042353  2.490248  -0.061  -0.63641  -0.034119  2.478475  -0.052  -0.3112  -0.555843  -0.043791  2.498157  -0.061
O  O81  1  0.34162098  0.88149283  0.31775864  1  -0.612356  0.061758  2.191775  0.081  -0.588148  0.042355  2.490217  0.061  -0.634678  0.034121  2.47939  0.052  -0.311115  -0.55585  0.043796  2.498164  0.061
O  O82  1  0.13427799  0.04180886  0.82238143  1  -0.628205  0.056194  2.175441  0.073  -0.600374  0.040815  2.466324  0.058  -0.648414  0.033235  2.452657  0.05  -0.319664  -0.567939  0.041512  2.475078  0.057
O  O83  1  0.63429759  0.95818497  0.17762254  1  -0.628233  -0.056194  2.175626  -0.073  -0.600398  -0.040814  2.466512  -0.058  -0.646761  -0.033232  2.452982  -0.05  -0.319631  -0.567984  -0.041508  2.47526  -0.057
