# generated using pymatgen
data_AlCdB5H18C5(N2O5)2
_symmetry_space_group_name_H-M   'P 1'
_cell_length_a   8.53829405
_cell_length_b   8.70731835
_cell_length_c   10.55439014
_cell_angle_alpha   90.00000939
_cell_angle_beta   91.74887388
_cell_angle_gamma   89.99994494
_symmetry_Int_Tables_number   1
_chemical_formula_structural   AlCdB5H18C5(N2O5)2
_chemical_formula_sum   'Al2 Cd2 B10 H36 C10 N8 O20'
_cell_volume   784.30742860
_cell_formula_units_Z   2
loop_
 _symmetry_equiv_pos_site_id
 _symmetry_equiv_pos_as_xyz
  1  'x, y, z'
loop_
 _atom_site_type_symbol
 _atom_site_label
 _atom_site_symmetry_multiplicity
 _atom_site_fract_x
 _atom_site_fract_y
 _atom_site_fract_z
 _atom_site_occupancy
 _atom_site_hle17_bader_spin_density
 _atom_site_hle17_ddec_charge
 _atom_site_hle17_ddec_spin_density
 _atom_site_hle17_ddec_sum_bond_order
 _atom_site_hle17_magmom
 _atom_site_hse06_10hf_bader_spin_density
 _atom_site_hse06_10hf_ddec_charge
 _atom_site_hse06_10hf_ddec_spin_density
 _atom_site_hse06_10hf_ddec_sum_bond_order
 _atom_site_hse06_10hf_magmom
 _atom_site_hse06_bader_spin_density
 _atom_site_hse06_ddec_charge
 _atom_site_hse06_ddec_spin_density
 _atom_site_hse06_ddec_sum_bond_order
 _atom_site_hse06_magmom
 _atom_site_pbe_bader_spin_density
 _atom_site_pbe_cm5_charge
 _atom_site_pbe_ddec_charge
 _atom_site_pbe_ddec_spin_density
 _atom_site_pbe_ddec_sum_bond_order
 _atom_site_pbe_magmom
Al  Al0  1  0.81063842  0.26043687  0.07052010  1  0  1.911618  0  2.212153  0  0  1.740274  0  2.601222  0  0  1.775278  0  2.5505  0  0  0.503419  1.715134  0  2.636185  0
Al  Al1  1  0.31063818  0.73956286  0.57051989  1  0  1.911631  0  2.212139  0  0  1.740304  0  2.60118  0  0  1.775308  0  2.550461  0  0  0.503417  1.715166  0  2.636141  0
Cd  Cd2  1  0.46405978  0.26548344  0.82350029  1  0  1.071759  0  1.648427  0  0  0.888155  0  2.07582  0  0  0.934323  0  2.035077  0  0  0.813849  0.856036  0  2.104047  0
Cd  Cd3  1  0.96405839  0.73451734  0.32350052  1  0  1.071756  0  1.648424  0  0  0.88815  0  2.0758  0  0  0.934317  0  2.03506  0  0  0.813859  0.85603  0  2.104033  0
B  B4  1  0.69959813  0.02325606  0.89268419  1  0  1.179804  0  2.90205  0  0  1.02362  0  3.222052  0  0  1.065418  0  3.180761  0  0  0.106546  0.993503  0  3.251923  0
B  B5  1  0.19959911  0.97674384  0.39268386  1  0  1.17981  0  2.902004  0  0  1.023626  0  3.222  0  0  1.065424  0  3.180711  0  0  0.106539  0.993495  0  3.251894  0
B  B6  1  0.55820189  0.87472377  0.72727270  1  0  1.202699  0  2.881011  0  0  1.04305  0  3.210693  0  0  1.08489  0  3.168438  0  0  0.118323  1.013213  0  3.240026  0
B  B7  1  0.05820371  0.12527737  0.22727418  1  0  1.202579  0  2.881162  0  0  1.042843  0  3.211053  0  0  1.084681  0  3.168807  0  0  0.118303  1.013044  0  3.240301  0
B  B8  1  0.81105134  0.77149555  0.82401470  1  0  1.22595  0  2.755929  0  0  1.058001  0  3.095244  0  0  1.090167  0  3.071198  0  0  0.08851  1.034616  0  3.114494  0
B  B9  1  0.31105070  0.22850422  0.32401519  1  0  1.225931  0  2.75594  0  0  1.058  0  3.09524  0  0  1.090175  0  3.071156  0  0  0.088512  1.034611  0  3.114498  0
B  B10  1  0.91803353  0.52556905  0.91710088  1  0  1.187174  0  2.924197  0  0  1.029993  0  3.257118  0  0  1.070863  0  3.215651  0  0  0.111444  1.000338  0  3.287059  0
B  B11  1  0.41803266  0.47442835  0.41710140  1  0  1.187239  0  2.924057  0  0  1.03009  0  3.256941  0  0  1.070925  0  3.215565  0  0  0.111476  1.000444  0  3.286863  0
B  B12  1  0.06568268  0.66085678  0.75663650  1  0  1.197258  0  2.901448  0  0  1.041278  0  3.230227  0  0  1.082206  0  3.188777  0  0  0.114473  1.012411  0  3.258481  0
B  B13  1  0.56568050  0.33914321  0.25663762  1  0  1.197292  0  2.901378  0  0  1.041379  0  3.229974  0  0  1.082311  0  3.188524  0  0  0.114497  1.012497  0  3.258255  0
H  H14  1  0.03647322  0.07141125  0.72559147  1  0  0.055934  0  0.940915  0  0  0.071638  0  1.007529  0  0  0.072308  0  1.007226  0  0  0.102199  0.071266  0  1.007709  0
H  H15  1  0.53647281  0.92858876  0.22559080  1  0  0.055895  0  0.940933  0  0  0.071601  0  1.007547  0  0  0.072271  0  1.007243  0  0  0.102188  0.071232  0  1.007725  0
H  H16  1  0.06892824  0.25241186  0.80283443  1  0  0.070191  0  0.945568  0  0  0.08825  0  1.005132  0  0  0.088732  0  1.00563  0  0  0.110566  0.087573  0  1.005284  0
H  H17  1  0.56892683  0.74758699  0.30283372  1  0  0.070192  0  0.945534  0  0  0.088248  0  1.005114  0  0  0.088731  0  1.005609  0  0  0.11057  0.087576  0  1.005263  0
H  H18  1  0.24913148  0.95665042  0.85853600  1  0  0.058784  0  0.954903  0  0  0.076787  0  1.017587  0  0  0.076879  0  1.018249  0  0  0.109258  0.07633  0  1.017471  0
H  H19  1  0.74912958  0.04335057  0.35853424  1  0  0.058762  0  0.954867  0  0  0.07681  0  1.017486  0  0  0.076904  0  1.018143  0  0  0.109276  0.076355  0  1.017368  0
H  H20  1  0.08402938  0.01914717  0.94414983  1  0  0.071567  0  0.94421  0  0  0.086324  0  1.008956  0  0  0.087429  0  1.008436  0  0  0.10817  0.08555  0  1.008956  0
H  H21  1  0.58402657  0.98085170  0.44414818  1  0  0.071566  0  0.94425  0  0  0.086297  0  1.009009  0  0  0.087402  0  1.00849  0  0  0.108153  0.085526  0  1.009003  0
H  H22  1  0.76833976  0.12733053  0.66121371  1  0  0.051082  0  0.945005  0  0  0.070972  0  1.007261  0  0  0.071227  0  1.007234  0  0  0.111446  0.070977  0  1.006719  0
H  H23  1  0.26833849  0.87266696  0.16121238  1  0  0.051108  0  0.945016  0  0  0.070977  0  1.007308  0  0  0.071227  0  1.007283  0  0  0.111448  0.070979  0  1.006768  0
H  H24  1  0.83359000  0.30401061  0.72426703  1  0  0.055459  0  0.942693  0  0  0.076588  0  1.003314  0  0  0.076464  0  1.004104  0  0  0.112655  0.076736  0  1.002626  0
H  H25  1  0.33359006  0.69598682  0.22426286  1  0  0.055467  0  0.942681  0  0  0.076624  0  1.003286  0  0  0.076503  0  1.004077  0  0  0.112674  0.076771  0  1.002603  0
H  H26  1  0.97003132  0.21137122  0.52246763  1  0  0.077254  0  0.936697  0  0  0.098093  0  0.993551  0  0  0.098697  0  0.994239  0  0  0.099192  0.096899  0  0.993881  0
H  H27  1  0.47002424  0.78863179  0.02245858  1  0  0.077287  0  0.936635  0  0  0.098035  0  0.993601  0  0  0.098652  0  0.994271  0  0  0.099154  0.096834  0  0.993951  0
H  H28  1  0.79017132  0.24143106  0.43935844  1  0  0.07179  0  0.969008  0  0  0.089838  0  1.031979  0  0  0.090718  0  1.032113  0  0  0.101211  0.089106  0  1.031651  0
H  H29  1  0.29016168  0.75856416  0.93935518  1  0  0.071825  0  0.969043  0  0  0.089875  0  1.031965  0  0  0.090771  0  1.032089  0  0  0.10127  0.089141  0  1.03164  0
H  H30  1  0.79711780  0.52019887  0.51547353  1  0  0.054028  0  0.939156  0  0  0.073197  0  1.001834  0  0  0.073674  0  1.001771  0  0  0.106546  0.072521  0  1.002511  0
H  H31  1  0.29711690  0.47979971  0.01546931  1  0  0.05393  0  0.939185  0  0  0.073107  0  1.001868  0  0  0.073582  0  1.001809  0  0  0.106529  0.072432  0  1.002545  0
H  H32  1  0.99204996  0.48721848  0.57146723  1  0  0.058209  0  0.944972  0  0  0.080294  0  1.00254  0  0  0.080524  0  1.002804  0  0  0.114142  0.079766  0  1.003106  0
H  H33  1  0.49204786  0.51278337  0.07146488  1  0  0.058162  0  0.944844  0  0  0.080251  0  1.002413  0  0  0.080479  0  1.002676  0  0  0.114119  0.079728  0  1.00297  0
H  H34  1  0.22439023  0.26308095  0.62258609  1  0  0.301599  0  0.898977  0  0  0.291949  0  0.954138  0  0  0.297718  0  0.950538  0  0  0.298246  0.286939  0  0.958401  0
H  H35  1  0.72439000  0.73692001  0.12258541  1  0  0.301589  0  0.899  0  0  0.29194  0  0.954158  0  0  0.297709  0  0.950558  0  0  0.298245  0.286933  0  0.958415  0
H  H36  1  0.29633999  0.08881028  0.64575781  1  0  0.303757  0  0.915883  0  0  0.290405  0  0.976733  0  0  0.297024  0  0.971951  0  0  0.297119  0.285431  0  0.980734  0
H  H37  1  0.79633843  0.91119062  0.14575807  1  0  0.303757  0  0.915844  0  0  0.290409  0  0.976687  0  0  0.297027  0  0.971907  0  0  0.297117  0.285433  0  0.980696  0
H  H38  1  0.36298989  0.08914898  0.02877107  1  0  0.292417  0  0.899636  0  0  0.286153  0  0.952431  0  0  0.291344  0  0.949476  0  0  0.300855  0.282775  0  0.953879  0
H  H39  1  0.86298922  0.91085184  0.52877057  1  0  0.292427  0  0.899616  0  0  0.286159  0  0.952423  0  0  0.291351  0  0.949468  0  0  0.300848  0.282781  0  0.953872  0
H  H40  1  0.23414579  0.22569280  0.02588178  1  0  0.305313  0  0.904492  0  0  0.293639  0  0.963194  0  0  0.299849  0  0.958931  0  0  0.301855  0.288981  0  0.966567  0
H  H41  1  0.73414526  0.77430699  0.52588126  1  0  0.305308  0  0.904469  0  0  0.293644  0  0.963165  0  0  0.299855  0  0.9589  0  0  0.301856  0.288989  0  0.966532  0
H  H42  1  0.54674010  0.25449377  0.56688459  1  0  0.298564  0  0.888639  0  0  0.294128  0  0.935429  0  0  0.299279  0  0.932754  0  0  0.308141  0.290188  0  0.937744  0
H  H43  1  0.04673544  0.74550506  0.06688506  1  0  0.298569  0  0.888579  0  0  0.294126  0  0.935381  0  0  0.299278  0  0.932706  0  0  0.308119  0.290186  0  0.937694  0
H  H44  1  0.60502952  0.42298190  0.61872475  1  0  0.296021  0  0.902723  0  0  0.290496  0  0.951492  0  0  0.295862  0  0.948376  0  0  0.303063  0.28628  0  0.954157  0
H  H45  1  0.10502620  0.57701803  0.11872523  1  0  0.296028  0  0.902694  0  0  0.290503  0  0.951464  0  0  0.295866  0  0.948353  0  0  0.303055  0.286287  0  0.954127  0
H  H46  1  0.88046158  0.43411605  0.30816411  1  0  0.297887  0  0.920766  0  0  0.287521  0  0.976333  0  0  0.294271  0  0.97155  0  0  0.297777  0.282151  0  0.980583  0
H  H47  1  0.38046384  0.56588366  0.80816014  1  0  0.297802  0  0.920899  0  0  0.287517  0  0.976354  0  0  0.294267  0  0.971573  0  0  0.297808  0.282148  0  0.980606  0
H  H48  1  0.06555046  0.42871294  0.36308827  1  0  0.309712  0  0.919363  0  0  0.293968  0  0.981632  0  0  0.300951  0  0.976733  0  0  0.296489  0.288449  0  0.985747  0
H  H49  1  0.56555129  0.57128708  0.86308776  1  0  0.309729  0  0.91932  0  0  0.294001  0  0.981568  0  0  0.300987  0  0.976663  0  0  0.296506  0.288486  0  0.985677  0
C  C50  1  0.12472864  0.14495280  0.77356840  1  0  0.052863  0  3.646037  0  0  -0.00314  0  3.909561  0  0  0.000141  0  3.92303  0  0  -0.074335  -0.005213  0  3.900354  0
C  C51  1  0.62472829  0.85504829  0.27356678  1  0  0.052964  0  3.646009  0  0  -0.003051  0  3.909516  0  0  0.000229  0  3.922992  0  0  -0.074306  -0.005128  0  3.90031  0
C  C52  1  0.18507634  0.05802820  0.89054491  1  0  0.047582  0  3.638061  0  0  -0.010511  0  3.905598  0  0  -0.006985  0  3.91855  0  0  -0.075115  -0.012664  0  3.896481  0
C  C53  1  0.68507357  0.94197056  0.39054419  1  0  0.047514  0  3.63806  0  0  -0.010548  0  3.905529  0  0  -0.007021  0  3.918473  0  0  -0.075157  -0.012701  0  3.896413  0
C  C54  1  0.77280907  0.25118496  0.64207893  1  0  0.086628  0  3.672828  0  0  0.025562  0  3.945136  0  0  0.030055  0  3.958786  0  0  -0.069209  0.022453  0  3.935153  0
C  C55  1  0.27280675  0.74881482  0.14207756  1  0  0.086601  0  3.672784  0  0  0.025487  0  3.94515  0  0  0.02998  0  3.958802  0  0  -0.069235  0.02238  0  3.935168  0
C  C56  1  0.86198272  0.28063599  0.52142517  1  0  -0.180891  0  3.683439  0  0  -0.220769  0  3.9479  0  0  -0.22307  0  3.962125  0  0  -0.167127  -0.218144  0  3.937589  0
C  C57  1  0.36197454  0.71936253  0.02141798  1  0  -0.18099  0  3.683308  0  0  -0.220766  0  3.947793  0  0  -0.223084  0  3.962002  0  0  -0.167182  -0.218142  0  3.937474  0
C  C58  1  0.90175229  0.44931132  0.50202353  1  0  0.089238  0  3.654794  0  0  0.028371  0  3.923341  0  0  0.033104  0  3.936186  0  0  -0.072428  0.024569  0  3.915479  0
C  C59  1  0.40174898  0.55068945  0.00201927  1  0  0.089471  0  3.654428  0  0  0.028601  0  3.922978  0  0  0.03333  0  3.935833  0  0  -0.072374  0.024806  0  3.915105  0
N  N60  1  0.25485298  0.18437933  0.69091082  1  0  -0.654663  0  3.083539  0  0  -0.598445  0  3.334771  0  0  -0.617915  0  3.334042  0  0  -0.633058  -0.584468  0  3.336938  0
N  N61  1  0.75485150  0.81562047  0.19091012  1  0  -0.654668  0  3.083543  0  0  -0.598461  0  3.334806  0  0  -0.617933  0  3.334072  0  0  -0.63306  -0.584489  0  3.336968  0
N  N62  1  0.29445290  0.15345134  0.96815499  1  0  -0.638453  0  3.069219  0  0  -0.582532  0  3.318524  0  0  -0.602369  0  3.318991  0  0  -0.624793  -0.569746  0  3.317786  0
N  N63  1  0.79445257  0.84654963  0.46815337  1  0  -0.63844  0  3.069167  0  0  -0.582543  0  3.318452  0  0  -0.602381  0  3.318919  0  0  -0.624769  -0.569762  0  3.317715  0
N  N64  1  0.60994470  0.30774320  0.63838768  1  0  -0.641209  0  3.059694  0  0  -0.586213  0  3.301604  0  0  -0.605229  0  3.301922  0  0  -0.620265  -0.572272  0  3.301605  0
N  N65  1  0.10994244  0.69225443  0.13838819  1  0  -0.64122  0  3.059585  0  0  -0.586194  0  3.301486  0  0  -0.605212  0  3.301809  0  0  -0.620232  -0.572254  0  3.301486  0
N  N66  1  0.95850533  0.48069753  0.37403533  1  0  -0.652284  0  3.088869  0  0  -0.589434  0  3.343569  0  0  -0.610168  0  3.341359  0  0  -0.629245  -0.574952  0  3.34655  0
N  N67  1  0.45850413  0.51930212  0.87403318  1  0  -0.652281  0  3.088888  0  0  -0.589515  0  3.343573  0  0  -0.61025  0  3.341357  0  0  -0.629275  -0.575041  0  3.346552  0
O  O68  1  0.56958465  0.00294217  0.80880133  1  0  -0.878417  0  2.209098  0  0  -0.751656  0  2.47108  0  0  -0.782091  0  2.445774  0  0  -0.188292  -0.72987  0  2.486991  0
O  O69  1  0.06958677  0.99705669  0.30879914  1  0  -0.878367  0  2.209121  0  0  -0.751599  0  2.471126  0  0  -0.782037  0  2.445823  0  0  -0.18829  -0.72983  0  2.487057  0
O  O70  1  0.67154140  0.76409838  0.73611167  1  0  -0.898913  0  2.076479  0  0  -0.789426  0  2.334649  0  0  -0.815551  0  2.311286  0  0  -0.199952  -0.769989  0  2.350055  0
O  O71  1  0.17154075  0.23590265  0.23611216  1  0  -0.898893  0  2.07656  0  0  -0.78937  0  2.334717  0  0  -0.815498  0  2.311358  0  0  -0.199948  -0.769943  0  2.35012  0
O  O72  1  0.81145913  0.91344397  0.90348586  1  0  -0.874533  0  2.07731  0  0  -0.76914  0  2.34207  0  0  -0.795472  0  2.319552  0  0  -0.192529  -0.749893  0  2.35646  0
O  O73  1  0.31145980  0.08655467  0.40348636  1  0  -0.874562  0  2.077346  0  0  -0.76915  0  2.342086  0  0  -0.795488  0  2.319568  0  0  -0.192516  -0.749899  0  2.35648  0
O  O74  1  0.80360112  0.63711091  0.91043490  1  0  -0.897449  0  2.067148  0  0  -0.783955  0  2.318304  0  0  -0.810281  0  2.295693  0  0  -0.202171  -0.764329  0  2.334364  0
O  O75  1  0.30360153  0.36288889  0.41043543  1  0  -0.897372  0  2.067122  0  0  -0.783965  0  2.31834  0  0  -0.810259  0  2.295718  0  0  -0.202165  -0.764341  0  2.3344  0
O  O76  1  0.04940411  0.53756396  0.84122199  1  0  -0.86162  0  2.098522  0  0  -0.752282  0  2.357267  0  0  -0.77926  0  2.331867  0  0  -0.187387  -0.732554  0  2.375271  0
O  O77  1  0.54940416  0.46243607  0.34122222  1  0  -0.861626  0  2.098538  0  0  -0.752283  0  2.357245  0  0  -0.779275  0  2.331863  0  0  -0.187378  -0.732556  0  2.375251  0
O  O78  1  0.95268507  0.77215010  0.74780859  1  0  -0.888162  0  2.06203  0  0  -0.781765  0  2.324817  0  0  -0.808228  0  2.302879  0  0  -0.199497  -0.762575  0  2.339766  0
O  O79  1  0.45268443  0.22785067  0.24780813  1  0  -0.888152  0  2.06201  0  0  -0.781774  0  2.324787  0  0  -0.808239  0  2.302844  0  0  -0.199481  -0.762579  0  2.339736  0
O  O80  1  0.69613914  0.16075190  0.95483696  1  0  -1.050447  0  1.939473  0  0  -0.937696  0  2.211738  0  0  -0.964881  0  2.179802  0  0  -0.297173  -0.918203  0  2.233739  0
O  O81  1  0.19613790  0.83924801  0.45483657  1  0  -1.050452  0  1.939465  0  0  -0.937708  0  2.211732  0  0  -0.964888  0  2.179789  0  0  -0.297171  -0.9182  0  2.233731  0
O  O82  1  0.43549793  0.87333533  0.64422163  1  0  -1.041521  0  1.923997  0  0  -0.937962  0  2.190059  0  0  -0.963697  0  2.15924  0  0  -0.295957  -0.919202  0  2.211251  0
O  O83  1  0.93549596  0.12666544  0.14422083  1  0  -1.041487  0  1.924  0  0  -0.937899  0  2.190074  0  0  -0.963628  0  2.159259  0  0  -0.295963  -0.919142  0  2.211251  0
O  O84  1  0.91416775  0.40509798  0.99728555  1  0  -1.056996  0  1.906415  0  0  -0.959262  0  2.182579  0  0  -0.984084  0  2.150251  0  0  -0.305442  -0.940778  0  2.205221  0
O  O85  1  0.41416676  0.59490403  0.49728702  1  0  -1.05708  0  1.90637  0  0  -0.959337  0  2.182484  0  0  -0.984163  0  2.150185  0  0  -0.305455  -0.940858  0  2.205125  0
O  O86  1  0.19739763  0.66028593  0.68835139  1  0  -1.066566  0  1.935174  0  0  -0.964368  0  2.203927  0  0  -0.990126  0  2.172236  0  0  -0.301543  -0.945351  0  2.226196  0
O  O87  1  0.69739544  0.33971507  0.18834872  1  0  -1.066617  0  1.935112  0  0  -0.964426  0  2.203863  0  0  -0.990174  0  2.172148  0  0  -0.301554  -0.945411  0  2.226147  0
