# generated using pymatgen
data_NdH2C7O6
_symmetry_space_group_name_H-M   'P 1'
_cell_length_a   7.35632006
_cell_length_b   8.86963933
_cell_length_c   9.83300567
_cell_angle_alpha   90.00003549
_cell_angle_beta   90.00012085
_cell_angle_gamma   90.12654419
_symmetry_Int_Tables_number   1
_chemical_formula_structural   NdH2C7O6
_chemical_formula_sum   'Nd4 H8 C28 O24'
_cell_volume   641.58146144
_cell_formula_units_Z   4
loop_
 _symmetry_equiv_pos_site_id
 _symmetry_equiv_pos_as_xyz
  1  'x, y, z'
loop_
 _atom_site_type_symbol
 _atom_site_label
 _atom_site_symmetry_multiplicity
 _atom_site_fract_x
 _atom_site_fract_y
 _atom_site_fract_z
 _atom_site_occupancy
 _atom_site_pbe_bader_spin_density
 _atom_site_pbe_cm5_charge
 _atom_site_pbe_ddec_charge
 _atom_site_pbe_ddec_spin_density
 _atom_site_pbe_ddec_sum_bond_order
 _atom_site_pbe_magmom
Nd  Nd0  1  0.85142727  0.67617767  0.75000047  1  0  1.461369  2.139914  0  2.057928  0
Nd  Nd1  1  0.64807151  0.17619181  0.24999943  1  0  1.461299  2.138624  0  2.059372  0
Nd  Nd2  1  0.14862760  0.32386973  0.25000007  1  0  1.461252  2.140017  0  2.057796  0
Nd  Nd3  1  0.35189892  0.82373375  0.74999907  1  0  1.461403  2.137977  0  2.060522  0
H  H4  1  0.96086673  0.09338012  0.52954797  1  0  0.129907  0.153878  0  1.024723  0
H  H5  1  0.54129766  0.59273135  0.47032883  1  0  0.129865  0.153874  0  1.026207  0
H  H6  1  0.03903263  0.90669630  0.02955584  1  0  0.129829  0.153971  0  1.024655  0
H  H7  1  0.45882824  0.40713138  0.97033452  1  0  0.129945  0.154124  0  1.025884  0
H  H8  1  0.03903185  0.90669758  0.47044240  1  0  0.129827  0.153983  0  1.024591  0
H  H9  1  0.45883309  0.40713010  0.52966459  1  0  0.129949  0.154156  0  1.025803  0
H  H10  1  0.96086595  0.09338027  0.97045995  1  0  0.129858  0.153862  0  1.024749  0
H  H11  1  0.54129572  0.59273345  0.02967008  1  0  0.129855  0.153865  0  1.026238  0
C  C12  1  0.85866285  0.38977797  0.51425559  1  0  0.206171  0.558978  0  4.241628  0
C  C13  1  0.64144631  0.89003700  0.48558272  1  0  0.205629  0.558564  0  4.242917  0
C  C14  1  0.14141459  0.61033017  0.01424110  1  0  0.206317  0.559305  0  4.242669  0
C  C15  1  0.35846631  0.10989995  0.98557487  1  0  0.205754  0.558567  0  4.241516  0
C  C16  1  0.14141657  0.61033034  0.48575613  1  0  0.206339  0.559241  0  4.242808  0
C  C17  1  0.35846840  0.10989978  0.51442290  1  0  0.205744  0.558533  0  4.241733  0
C  C18  1  0.85865940  0.38978039  0.98574825  1  0  0.206151  0.558965  0  4.241865  0
C  C19  1  0.64144569  0.89003796  0.01441651  1  0  0.205637  0.558523  0  4.242993  0
C  C20  1  0.91346161  0.29737571  0.62887163  1  0  0.083811  0.109031  0  3.952489  0
C  C21  1  0.58556151  0.79754223  0.37111816  1  0  0.08371  0.108962  0  3.949328  0
C  C22  1  0.08664467  0.70272464  0.12888151  1  0  0.083485  0.108772  0  3.952591  0
C  C23  1  0.41434805  0.20237096  0.87112062  1  0  0.084201  0.109908  0  3.948927  0
C  C24  1  0.08664499  0.70272586  0.37111670  1  0  0.083467  0.108834  0  3.952644  0
C  C25  1  0.41435181  0.20236975  0.62887831  1  0  0.084216  0.109917  0  3.948961  0
C  C26  1  0.91345786  0.29738143  0.87113021  1  0  0.083844  0.108964  0  3.952582  0
C  C27  1  0.58556256  0.79754553  0.12888195  1  0  0.083686  0.108999  0  3.949307  0
C  C28  1  0.95735002  0.14762261  0.62808245  1  0  -0.072859  -0.224774  0  3.897207  0
C  C29  1  0.54302837  0.64734060  0.37192048  1  0  -0.072943  -0.225301  0  3.896679  0
C  C30  1  0.04266787  0.85246301  0.12807810  1  0  -0.072924  -0.225387  0  3.89736  0
C  C31  1  0.45700077  0.35252986  0.87192716  1  0  -0.073313  -0.226365  0  3.897447  0
C  C32  1  0.04266547  0.85246196  0.37191808  1  0  -0.072924  -0.225424  0  3.897318  0
C  C33  1  0.45700452  0.35252978  0.62807192  1  0  -0.07334  -0.226448  0  3.897427  0
C  C34  1  0.95735715  0.14762721  0.87192346  1  0  -0.072825  -0.224715  0  3.897157  0
C  C35  1  0.54302805  0.64734390  0.12807642  1  0  -0.072945  -0.225341  0  3.896707  0
C  C36  1  0.98360898  0.06484903  0.75000448  1  0  0.100617  0.402711  0  4.076245  0
C  C37  1  0.51683945  0.56449524  0.24999841  1  0  0.10102  0.403783  0  4.076607  0
C  C38  1  0.01637799  0.93524566  0.24999707  1  0  0.101111  0.403923  0  4.075536  0
C  C39  1  0.48322473  0.43539208  0.75000009  1  0  0.101136  0.404408  0  4.075916  0
O  O40  1  0.90359156  0.37697520  0.75000043  1  0  -0.1616  -0.220188  0  2.768997  0
O  O41  1  0.59353462  0.87737144  0.25000161  1  0  -0.161605  -0.219489  0  2.764443  0
O  O42  1  0.09657755  0.62311853  0.24999909  1  0  -0.161375  -0.219847  0  2.769159  0
O  O43  1  0.40629985  0.12254047  0.74999892  1  0  -0.162002  -0.219958  0  2.763706  0
O  O44  1  0.81466435  0.52593853  0.53930693  1  0  -0.36076  -0.616568  0  2.367891  0
O  O45  1  0.68512108  0.02636473  0.46034812  1  0  -0.361168  -0.616429  0  2.370406  0
O  O46  1  0.18537102  0.47417184  0.03932092  1  0  -0.360689  -0.616555  0  2.368484  0
O  O47  1  0.31482680  0.97356772  0.96034168  1  0  -0.361244  -0.616177  0  2.369924  0
O  O48  1  0.18537157  0.47417199  0.46067936  1  0  -0.360699  -0.61654  0  2.368523  0
O  O49  1  0.31483032  0.97356758  0.53965546  1  0  -0.361239  -0.616175  0  2.370015  0
O  O50  1  0.81466355  0.52593981  0.96069284  1  0  -0.360744  -0.616602  0  2.368084  0
O  O51  1  0.68511917  0.02636683  0.03965173  1  0  -0.361156  -0.616412  0  2.37046  0
O  O52  1  0.85440275  0.33152012  0.39234371  1  0  -0.455693  -0.762531  0  2.38219  0
O  O53  1  0.64641113  0.83168303  0.60739592  1  0  -0.453857  -0.761112  0  2.381355  0
O  O54  1  0.14557368  0.66854535  0.89232156  1  0  -0.455949  -0.762773  0  2.382933  0
O  O55  1  0.35349099  0.16826942  0.10740596  1  0  -0.454097  -0.761652  0  2.380671  0
O  O56  1  0.14557194  0.66854525  0.60767615  1  0  -0.455923  -0.762713  0  2.382932  0
O  O57  1  0.35349409  0.16827291  0.39259444  1  0  -0.454126  -0.761661  0  2.380846  0
O  O58  1  0.85440237  0.33152115  0.10765660  1  0  -0.455692  -0.762491  0  2.382294  0
O  O59  1  0.64641015  0.83168539  0.89260170  1  0  -0.453889  -0.761115  0  2.381369  0
O  O60  1  0.02317292  0.91965405  0.75000492  1  0  -0.461139  -0.757986  0  2.394636  0
O  O61  1  0.47728695  0.41916132  0.24999732  1  0  -0.463202  -0.759849  0  2.398106  0
O  O62  1  0.97674607  0.08043720  0.24999968  1  0  -0.461452  -0.758622  0  2.395382  0
O  O63  1  0.52280714  0.58072941  0.75000016  1  0  -0.463032  -0.759934  0  2.397311  0
