# generated using pymatgen
data_NiH20C26S2(N2Cl)2
_symmetry_space_group_name_H-M   'P 1'
_cell_length_a   9.06512475
_cell_length_b   10.41318798
_cell_length_c   14.82200814
_cell_angle_alpha   74.80879278
_cell_angle_beta   79.35045408
_cell_angle_gamma   69.34146660
_symmetry_Int_Tables_number   1
_chemical_formula_structural   NiH20C26S2(N2Cl)2
_chemical_formula_sum   'Ni2 H40 C52 S4 N8 Cl4'
_cell_volume   1256.81255047
_cell_formula_units_Z   2
loop_
 _symmetry_equiv_pos_site_id
 _symmetry_equiv_pos_as_xyz
  1  'x, y, z'
loop_
 _atom_site_type_symbol
 _atom_site_label
 _atom_site_symmetry_multiplicity
 _atom_site_fract_x
 _atom_site_fract_y
 _atom_site_fract_z
 _atom_site_occupancy
 _atom_site_pbe_bader_charge
 _atom_site_pbe_bader_spin_density
 _atom_site_pbe_cm5_charge
 _atom_site_pbe_ddec_charge
 _atom_site_pbe_ddec_spin_density
 _atom_site_pbe_ddec_sum_bond_order
 _atom_site_pbe_magmom
Ni  Ni0  1  0.50000173  0.50000184  0.50000074  1  0.952206  0  0.68311  0.508633  0  3.219456  0
Ni  Ni1  1  0.00001385  0.99999069  0.50000018  1  0.950407  0  0.693179  0.512428  0  3.181969  0
H  H2  1  0.82874120  0.43806279  0.43120091  1  0.116119  0  0.120216  0.100741  0  1.00534  0
H  H3  1  0.17126597  0.56192056  0.56879883  1  0.116207  0  0.120265  0.100811  0  1.005557  0
H  H4  1  0.99875933  0.57053363  0.32521053  1  0.094101  0  0.095299  0.106957  0  1.056413  0
H  H5  1  0.00126261  0.42946220  0.67479489  1  0.094211  0  0.095341  0.107039  0  1.056477  0
H  H6  1  0.58117042  0.93751384  0.29434891  1  0.090188  0  0.10551  0.124017  0  1.0017  0
H  H7  1  0.41884359  0.06248422  0.70566220  1  0.090182  0  0.105502  0.123946  0  1.001659  0
H  H8  1  0.43019518  0.79237052  0.40480813  1  0.154546  0  0.120637  0.101514  0  1.014835  0
H  H9  1  0.56981141  0.20762101  0.59518465  1  0.154766  0  0.120665  0.101554  0  1.014893  0
H  H10  1  0.02400710  0.78186499  0.22231983  1  0.082525  0  0.089354  0.097145  0  1.034001  0
H  H11  1  0.97600256  0.21813300  0.77767209  1  0.082631  0  0.089406  0.097189  0  1.034018  0
H  H12  1  0.90356383  0.93274161  0.26286978  1  0.071146  0  0.09529  0.122662  0  1.001749  0
H  H13  1  0.09643353  0.06725684  0.73713733  1  0.071004  0  0.095268  0.122669  0  1.001867  0
H  H14  1  0.77178102  0.73909537  0.12765237  1  0.063172  0  0.094501  0.096833  0  1.036709  0
H  H15  1  0.22822556  0.26092557  0.87235017  1  0.063228  0  0.094486  0.096758  0  1.036198  0
H  H16  1  0.67854558  0.84471625  0.97008011  1  0.074605  0  0.09661  0.106937  0  1.041979  0
H  H17  1  0.32145514  0.15529541  0.02993222  1  0.074693  0  0.096625  0.107031  0  1.041506  0
H  H18  1  0.79464570  0.21444567  0.96368297  1  0.090078  0  0.099068  0.109205  0  1.033744  0
H  H19  1  0.20533294  0.78554060  0.03632618  1  0.090748  0  0.099045  0.109216  0  1.033626  0
H  H20  1  0.88227466  0.11098696  0.12340933  1  0.060877  0  0.097569  0.099763  0  1.0152  0
H  H21  1  0.11771610  0.88902063  0.87659185  1  0.060991  0  0.097583  0.099796  0  1.015077  0
H  H22  1  0.82086886  0.83084972  0.47864513  1  0.146174  0  0.114171  0.090152  0  1.032508  0
H  H23  1  0.17916455  0.16914535  0.52136009  1  0.14613  0  0.114196  0.090152  0  1.032476  0
H  H24  1  0.67396916  0.67933245  0.58670973  1  0.110282  0  0.104436  0.12514  0  1.029505  0
H  H25  1  0.32605566  0.32066695  0.41328055  1  0.110268  0  0.104412  0.125158  0  1.029445  0
H  H26  1  0.79577762  0.78941475  0.81804340  1  0.091871  0  0.101047  0.109424  0  1.03605  0
H  H27  1  0.20423169  0.21057031  0.18194703  1  0.091622  0  0.100983  0.109365  0  1.035986  0
H  H28  1  0.93857659  0.93521800  0.70074760  1  0.109671  0  0.111849  0.082939  0  1.042803  0
H  H29  1  0.06143336  0.06476577  0.29925856  1  0.109574  0  0.111822  0.082928  0  1.042765  0
H  H30  1  0.50038216  0.70059901  0.78049974  1  0.089026  0  0.095164  0.110961  0  1.014647  0
H  H31  1  0.49962921  0.29938158  0.21948598  1  0.088856  0  0.095222  0.111135  0  1.014658  0
H  H32  1  0.63530304  0.54582832  0.75132277  1  0.063902  0  0.093777  0.125185  0  1.004683  0
H  H33  1  0.36471336  0.45416516  0.24866132  1  0.064023  0  0.093824  0.125272  0  1.004792  0
H  H34  1  0.46125221  0.72322670  0.93819154  1  0.061363  0  0.097352  0.101865  0  1.036405  0
H  H35  1  0.53874314  0.27676856  0.06179679  1  0.061379  0  0.097387  0.101913  0  1.036261  0
H  H36  1  0.53499960  0.63821933  0.10174350  1  0.112127  0  0.096891  0.107474  0  1.029665  0
H  H37  1  0.46499363  0.36179057  0.89823944  1  0.112016  0  0.096882  0.107514  0  1.029494  0
H  H38  1  0.97325568  0.34871841  0.00597197  1  0.091502  0  0.099743  0.112022  0  1.018548  0
H  H39  1  0.02673577  0.65128485  0.99402798  1  0.091461  0  0.099746  0.112055  0  1.01885  0
H  H40  1  0.89837619  0.43373826  0.84299400  1  0.056215  0  0.097258  0.101108  0  1.021067  0
H  H41  1  0.10162854  0.56625139  0.15700472  1  0.056257  0  0.097284  0.101149  0  1.021138  0
C  C42  1  0.83976785  0.23847555  0.59850312  1  0.512073  0  0.150724  0.255874  0  4.324953  0
C  C43  1  0.16024644  0.76149755  0.40150138  1  0.512247  0  0.150604  0.25573  0  4.324658  0
C  C44  1  0.35534268  0.73974105  0.59905610  1  0.524522  0  0.150444  0.26678  0  4.323491  0
C  C45  1  0.64465617  0.26027968  0.40094651  1  0.524112  0  0.150395  0.266561  0  4.323643  0
C  C46  1  0.77968537  0.54896658  0.39950165  1  0.49573  0  0.048396  0.090888  0  3.908405  0
C  C47  1  0.22030405  0.45104192  0.60049744  1  0.494945  0  0.048246  0.090619  0  3.908613  0
C  C48  1  0.87230444  0.62369512  0.33911953  1  -0.010764  0  -0.089871  -0.191363  0  3.953649  0
C  C49  1  0.12769905  0.37631315  0.66088780  1  -0.010376  0  -0.089862  -0.191327  0  3.953747  0
C  C50  1  0.80417133  0.76574645  0.29847508  1  -0.023339  0  0.014897  0.179431  0  3.923069  0
C  C51  1  0.19582709  0.23424895  0.70153456  1  -0.023494  0  0.014869  0.179396  0  3.922958  0
C  C52  1  0.64172771  0.82710341  0.32274643  1  -0.004626  0  -0.084236  -0.176995  0  3.931163  0
C  C53  1  0.35827747  0.17289680  0.67724950  1  -0.00453  0  -0.084235  -0.176895  0  3.930791  0
C  C54  1  0.55577510  0.74735708  0.38407691  1  0.393617  0  0.048799  0.088358  0  3.903369  0
C  C55  1  0.44422800  0.25265153  0.61591689  1  0.393119  0  0.048688  0.088064  0  3.903587  0
C  C56  1  0.89993615  0.84953703  0.23110887  1  -0.044037  0  -0.155661  -0.254861  0  3.934183  0
C  C57  1  0.10006979  0.15045721  0.76889492  1  -0.044191  0  -0.155652  -0.254846  0  3.93422  0
C  C58  1  0.83689753  0.91616439  0.13638021  1  -0.00347  0  -0.011731  0.118822  0  3.950253  0
C  C59  1  0.16310352  0.08382299  0.86363820  1  -0.003264  0  -0.011822  0.118748  0  3.950479  0
C  C60  1  0.77858018  0.84313622  0.09192778  1  -0.029598  0  -0.094957  -0.127566  0  3.975954  0
C  C61  1  0.22139918  0.15686817  0.90807978  1  -0.028982  0  -0.094851  -0.127366  0  3.975403  0
C  C62  1  0.72622795  0.90170084  0.00286919  1  -0.021394  0  -0.103566  -0.158971  0  4.021644  0
C  C63  1  0.27374996  0.09829289  0.99713992  1  -0.022003  0  -0.103693  -0.159195  0  4.021654  0
C  C64  1  0.73351727  0.03499706  0.95717046  1  0.001346  0  0.005581  0.137617  0  4.055785  0
C  C65  1  0.26647023  0.96500579  0.04282384  1  0.001962  0  0.005565  0.137636  0  4.056428  0
C  C66  1  0.79018059  0.11029072  0.99998397  1  -0.057795  0  -0.099554  -0.149097  0  4.013691  0
C  C67  1  0.20978878  0.88973360  0.00002124  1  -0.059278  0  -0.099422  -0.149017  0  4.014221  0
C  C68  1  0.83999920  0.05103491  0.08960321  1  0.021403  0  -0.089815  -0.120517  0  3.967898  0
C  C69  1  0.15999995  0.94897008  0.91040516  1  0.021778  0  -0.08982  -0.120562  0  3.96844  0
C  C70  1  0.81222088  0.81794973  0.55438668  1  0.418337  0  0.046383  0.089687  0  3.901731  0
C  C71  1  0.18779576  0.18204662  0.44561101  1  0.419225  0  0.046331  0.089593  0  3.901781  0
C  C72  1  0.73006147  0.73457751  0.61546358  1  0.003453  0  -0.085296  -0.179668  0  3.924133  0
C  C73  1  0.26994984  0.26542169  0.38452997  1  0.002668  0  -0.085232  -0.17957  0  3.924115  0
C  C74  1  0.72065844  0.72146847  0.71282356  1  -0.015131  0  0.016547  0.182976  0  3.91326  0
C  C75  1  0.27933624  0.27853030  0.28717089  1  -0.015274  0  0.016623  0.183173  0  3.913207  0
C  C76  1  0.79746021  0.79515217  0.74351477  1  -0.008954  0  -0.091557  -0.193241  0  3.966697  0
C  C77  1  0.20253968  0.20484464  0.25648028  1  -0.008705  0  -0.091578  -0.193294  0  3.966463  0
C  C78  1  0.87787955  0.87699990  0.67892125  1  0.436777  0  0.043837  0.083725  0  3.934802  0
C  C79  1  0.12213172  0.12299149  0.32108668  1  0.437023  0  0.043925  0.083762  0  3.934931  0
C  C80  1  0.62652671  0.63570072  0.78016280  1  -0.025  0  -0.154413  -0.255645  0  3.932043  0
C  C81  1  0.37348788  0.36428775  0.21982852  1  -0.024645  0  -0.154584  -0.256112  0  3.932114  0
C  C82  1  0.67350926  0.58461209  0.87888028  1  0.050483  0  -0.012872  0.114931  0  3.975982  0
C  C83  1  0.32647278  0.41538435  0.12111711  1  0.050424  0  -0.012764  0.115071  0  3.975916  0
C  C84  1  0.57393653  0.64123934  0.95266713  1  -0.110013  0  -0.091024  -0.121611  0  3.964303  0
C  C85  1  0.42605136  0.35877721  0.04732309  1  -0.109649  0  -0.09121  -0.121767  0  3.963899  0
C  C86  1  0.61432975  0.59379251  0.04485934  1  0.033644  0  -0.098034  -0.146166  0  4.001401  0
C  C87  1  0.38565699  0.40621943  0.95512513  1  0.03339  0  -0.097963  -0.146288  0  4.000851  0
C  C88  1  0.75818011  0.48831605  0.06321772  1  0.010154  0  0.008333  0.1368  0  4.05861  0
C  C89  1  0.24179566  0.51170086  0.93678568  1  0.010661  0  0.008372  0.137031  0  4.058273  0
C  C90  1  0.86099972  0.43072417  0.99080005  1  -0.040542  0  -0.100066  -0.155047  0  4.022332  0
C  C91  1  0.13898030  0.56929457  0.00919517  1  -0.040423  0  -0.100035  -0.155112  0  4.022276  0
C  C92  1  0.81781308  0.47908577  0.89932152  1  -0.072789  0  -0.091265  -0.126041  0  3.97319  0
C  C93  1  0.18217865  0.52091340  0.10068190  1  -0.073399  0  -0.091343  -0.126062  0  3.973042  0
S  S94  1  0.74230322  0.37182993  0.64483784  1  0.113354  0  -0.136905  -0.333485  0  2.516021  0
S  S95  1  0.25770442  0.62814069  0.35516369  1  0.113157  0  -0.136868  -0.333367  0  2.516379  0
S  S96  1  0.28783090  0.87741995  0.64369152  1  0.099624  0  -0.159734  -0.357529  0  2.417158  0
S  S97  1  0.71216439  0.12257986  0.35632227  1  0.099084  0  -0.15977  -0.357552  0  2.416832  0
N  N98  1  0.90968548  0.13970956  0.56446405  1  -1.29311  0  -0.425618  -0.449292  0  3.581519  0
N  N99  1  0.09033053  0.86027785  0.43554694  1  -1.292816  0  -0.425529  -0.44926  0  3.581175  0
N  N100  1  0.40541851  0.63818735  0.56634791  1  -1.29928  0  -0.426636  -0.455126  0  3.567843  0
N  N101  1  0.59456322  0.36183256  0.43364828  1  -1.298354  0  -0.426587  -0.45485  0  3.5683  0
N  N102  1  0.62348939  0.60970375  0.42134626  1  -1.185738  0  -0.328377  -0.145066  0  3.660193  0
N  N103  1  0.37650744  0.39030365  0.57864833  1  -1.185299  0  -0.328265  -0.144743  0  3.659885  0
N  N104  1  0.88547765  0.88835592  0.58558297  1  -1.176697  0  -0.329847  -0.141684  0  3.639501  0
N  N105  1  0.11454067  0.11163620  0.41441472  1  -1.176776  0  -0.329823  -0.141664  0  3.639783  0
Cl  Cl106  1  0.67168045  0.10930064  0.84550107  1  -0.237781  0  0.007245  -0.076459  0  1.598487  0
Cl  Cl107  1  0.32830242  0.89070372  0.15450415  1  -0.238036  0  0.007247  -0.076475  0  1.598147  0
Cl  Cl108  1  0.80957294  0.42718461  0.17755119  1  -0.235447  0  0.005986  -0.07309  0  1.572488  0
Cl  Cl109  1  0.19039325  0.57284345  0.82244547  1  -0.235663  0  0.005933  -0.073184  0  1.57215  0
