# generated using pymatgen
data_ZnH14C21(N2O3)2
_symmetry_space_group_name_H-M   'P 1'
_cell_length_a   8.92431504
_cell_length_b   9.26672351
_cell_length_c   12.05645853
_cell_angle_alpha   110.03926825
_cell_angle_beta   89.94967672
_cell_angle_gamma   98.36439825
_symmetry_Int_Tables_number   1
_chemical_formula_structural   ZnH14C21(N2O3)2
_chemical_formula_sum   'Zn2 H28 C42 N8 O12'
_cell_volume   925.44429290
_cell_formula_units_Z   2
loop_
 _symmetry_equiv_pos_site_id
 _symmetry_equiv_pos_as_xyz
  1  'x, y, z'
loop_
 _atom_site_type_symbol
 _atom_site_label
 _atom_site_symmetry_multiplicity
 _atom_site_fract_x
 _atom_site_fract_y
 _atom_site_fract_z
 _atom_site_occupancy
 _atom_site_pbe_bader_spin_density
 _atom_site_pbe_cm5_charge
 _atom_site_pbe_ddec_charge
 _atom_site_pbe_ddec_spin_density
 _atom_site_pbe_ddec_sum_bond_order
 _atom_site_pbe_magmom
Zn  Zn0  1  0.25603534  0.06347990  0.98489872  1  0  0.718178  0.808134  0  2.374753  0
Zn  Zn1  1  0.74396472  0.93651988  0.01510296  1  0  0.718198  0.808123  0  2.374765  0
H  H2  1  0.36365501  0.11833766  0.55252301  1  0  0.103774  0.113507  0  1.024165  0
H  H3  1  0.63634729  0.88166211  0.44747617  1  0  0.103799  0.113522  0  1.024072  0
H  H4  1  0.73090964  0.47679960  0.74426202  1  0  0.101056  0.111457  0  1.034686  0
H  H5  1  0.26908930  0.52320019  0.25573718  1  0  0.101059  0.11146  0  1.03472  0
H  H6  1  0.78359396  0.54039788  0.56404521  1  0  0.099665  0.103633  0  1.029264  0
H  H7  1  0.21640441  0.45960541  0.43595574  1  0  0.099637  0.103611  0  1.029278  0
H  H8  1  0.63219551  0.39636509  0.37870981  1  0  0.098533  0.096073  0  1.022935  0
H  H9  1  0.36780380  0.60363703  0.62129000  1  0  0.098534  0.096066  0  1.022936  0
H  H10  1  0.11963556  0.92438941  0.16903761  1  0  0.132928  0.102062  0  1.057915  0
H  H11  1  0.88036562  0.07561037  0.83096241  1  0  0.13293  0.102061  0  1.057896  0
H  H12  1  0.48533199  0.28546500  0.21547558  1  0  0.117526  0.111113  0  1.01737  0
H  H13  1  0.51466620  0.71453713  0.78452340  1  0  0.117541  0.111143  0  1.017322  0
H  H14  1  0.56700199  0.31041287  0.04584889  1  0  0.134245  0.093109  0  1.013527  0
H  H15  1  0.43299825  0.68958807  0.95415144  1  0  0.134227  0.093058  0  1.01351  0
H  H16  1  0.32844822  0.04445756  0.72185183  1  0  0.120644  0.12584  0  1.017187  0
H  H17  1  0.67155202  0.95554338  0.27814767  1  0  0.12064  0.125829  0  1.017184  0
H  H18  1  0.16720677  0.60745795  0.97041132  1  0  0.107906  0.105996  0  1.038299  0
H  H19  1  0.83279329  0.39254183  0.02958870  1  0  0.107909  0.10599  0  1.038302  0
H  H20  1  0.03658596  0.14173388  0.72640557  1  0  0.112625  0.114926  0  1.018556  0
H  H21  1  0.96341540  0.85826705  0.27359558  1  0  0.112626  0.114926  0  1.018548  0
H  H22  1  0.04454108  0.53066692  0.60805038  1  0  0.111016  0.108878  0  1.055804  0
H  H23  1  0.95545898  0.46933286  0.39194964  1  0  0.111014  0.108873  0  1.055776  0
H  H24  1  0.93911893  0.22277799  0.37206814  1  0  0.30156  0.371488  0  0.97664  0
H  H25  1  0.06088225  0.77722178  0.62793271  1  0  0.301562  0.371497  0  0.976626  0
H  H26  1  0.22929973  0.99832123  0.38012601  1  0  0.314249  0.288945  0  0.979217  0
H  H27  1  0.77070238  0.00167737  0.61987369  1  0  0.31424  0.28895  0  0.979202  0
H  H28  1  0.66758034  0.43399753  0.90011649  1  0  0.306074  0.289314  0  1.010452  0
H  H29  1  0.33242066  0.56600109  0.09988156  1  0  0.306081  0.289345  0  1.010406  0
C  C30  1  0.48671699  0.24659551  0.45209727  1  0  -0.008507  0.051348  0  4.05848  0
C  C31  1  0.51328325  0.75340543  0.54790306  1  0  -0.008466  0.051391  0  4.058459  0
C  C32  1  0.45659326  0.20979742  0.55422928  1  0  -0.090114  -0.169274  0  3.894246  0
C  C33  1  0.54340568  0.79020238  0.44576992  1  0  -0.090167  -0.169349  0  3.894313  0
C  C34  1  0.54429301  0.29105535  0.66033354  1  0  -0.013693  0.05075  0  4.067737  0
C  C35  1  0.45570611  0.70894560  0.33966762  1  0  -0.013691  0.050783  0  4.067695  0
C  C36  1  0.66235908  0.41069716  0.66312644  1  0  -0.09824  -0.143804  0  3.965861  0
C  C37  1  0.33763893  0.58930381  0.33687389  1  0  -0.098235  -0.143823  0  3.965783  0
C  C38  1  0.69298606  0.44659000  0.56132864  1  0  -0.095402  -0.079076  0  4.039671  0
C  C39  1  0.30701306  0.55341095  0.43867169  1  0  -0.095376  -0.079008  0  4.039622  0
C  C40  1  0.60726577  0.36535088  0.45681237  1  0  -0.087947  -0.115165  0  3.963444  0
C  C41  1  0.39273429  0.63464891  0.54318682  1  0  -0.087942  -0.115172  0  3.963423  0
C  C42  1  0.21748307  0.01143646  0.20962559  1  0  0.147886  0.166011  0  3.893097  0
C  C43  1  0.78251811  0.98856331  0.79037443  1  0  0.147899  0.166047  0  3.893029  0
C  C44  1  0.40669772  0.19915728  0.23637822  1  0  0.005386  -0.073395  0  3.943093  0
C  C45  1  0.59330140  0.80084368  0.76362128  1  0  0.005346  -0.073419  0  3.942995  0
C  C46  1  0.39552100  0.17038543  0.34173231  1  0  0.089158  0.112566  0  3.996498  0
C  C47  1  0.60447925  0.82961551  0.65826802  1  0  0.089182  0.112621  0  3.996552  0
C  C48  1  0.52901314  0.26853558  0.95360363  1  0  0.146148  0.168707  0  3.952649  0
C  C49  1  0.47098656  0.73146188  0.04639578  1  0  0.146172  0.168798  0  3.95259  0
C  C50  1  0.40962369  0.13472350  0.78356725  1  0  0.001543  -0.078253  0  3.923546  0
C  C51  1  0.59037637  0.86527628  0.21643277  1  0  0.001546  -0.078248  0  3.923581  0
C  C52  1  0.51162466  0.25155979  0.76583349  1  0  0.081678  0.107981  0  3.996629  0
C  C53  1  0.48837447  0.74844117  0.23416602  1  0  0.08168  0.108007  0  3.996582  0
C  C54  1  0.11214988  0.58839873  0.79192221  1  0  -0.017388  -0.043625  0  3.967205  0
C  C55  1  0.88784906  0.41160106  0.20807865  1  0  -0.017434  -0.043723  0  3.967309  0
C  C56  1  0.13098072  0.52793256  0.88181159  1  0  -0.072517  -0.089302  0  3.925014  0
C  C57  1  0.86901822  0.47206723  0.11818926  1  0  -0.072489  -0.08925  0  3.925001  0
C  C58  1  0.10460455  0.36816259  0.85937755  1  0  -0.019661  -0.042148  0  3.98136  0
C  C59  1  0.89539328  0.63183721  0.14062247  1  0  -0.019729  -0.042198  0  3.981375  0
C  C60  1  0.05220422  0.26687926  0.74599060  1  0  -0.066919  -0.092747  0  3.911423  0
C  C61  1  0.94779584  0.73312052  0.25400942  1  0  -0.066904  -0.092724  0  3.911417  0
C  C62  1  0.02672194  0.32586043  0.65663164  1  0  -0.014941  -0.046302  0  3.981692  0
C  C63  1  0.97327924  0.67413935  0.34336755  1  0  -0.014965  -0.046362  0  3.981751  0
C  C64  1  0.06066675  0.48627764  0.67901746  1  0  -0.067106  -0.089503  0  3.901387  0
C  C65  1  0.93933443  0.51372214  0.32098256  1  0  -0.067083  -0.089424  0  3.901337  0
C  C66  1  0.15155648  0.76108839  0.82037631  1  0  0.219594  0.586868  0  4.165111  0
C  C67  1  0.84844470  0.23891139  0.17962453  1  0  0.219567  0.586793  0  4.165142  0
C  C68  1  0.14151539  0.30657313  0.95457140  1  0  0.205587  0.570979  0  4.211823  0
C  C69  1  0.85848374  0.69342782  0.04542893  1  0  0.205555  0.570854  0  4.211861  0
C  C70  1  0.95827959  0.21986818  0.53843642  1  0  0.23602  0.598174  0  4.121139  0
C  C71  1  0.04172104  0.78012811  0.46156268  1  0  0.236045  0.598181  0  4.121061  0
N  N72  1  0.27393803  0.05101918  0.32165714  1  0  -0.366596  -0.240579  0  3.631942  0
N  N73  1  0.72606297  0.94897943  0.67834174  1  0  -0.36661  -0.240661  0  3.631964  0
N  N74  1  0.29612035  0.09984644  0.15553572  1  0  -0.363241  -0.290519  0  3.611216  0
N  N75  1  0.70387877  0.90015451  0.84446461  1  0  -0.363246  -0.290533  0  3.611054  0
N  N76  1  0.58578141  0.33391561  0.87562172  1  0  -0.375688  -0.255596  0  3.62762  0
N  N77  1  0.41421977  0.66608416  0.12437913  1  0  -0.375688  -0.255652  0  3.627633  0
N  N78  1  0.42226742  0.14677949  0.90085440  1  0  -0.367763  -0.31088  0  3.613057  0
N  N79  1  0.57773152  0.85322030  0.09914562  1  0  -0.36777  -0.310911  0  3.613089  0
O  O80  1  0.13676365  0.82630934  0.74544643  1  0  -0.305028  -0.532896  0  2.233676  0
O  O81  1  0.86323753  0.17369044  0.25455359  1  0  -0.304985  -0.53283  0  2.233669  0
O  O82  1  0.20574661  0.83590648  0.92665812  1  0  -0.321563  -0.544895  0  2.393424  0
O  O83  1  0.79425550  0.16409213  0.07334159  1  0  -0.321554  -0.544844  0  2.393407  0
O  O84  1  0.21817545  0.39449241  0.04688467  1  0  -0.318898  -0.56605  0  2.231429  0
O  O85  1  0.78182274  0.60550971  0.95311763  1  0  -0.318922  -0.566035  0  2.23148  0
O  O86  1  0.09658115  0.16019711  0.93224492  1  0  -0.323055  -0.542433  0  2.340734  0
O  O87  1  0.90341798  0.83980385  0.06775541  1  0  -0.322971  -0.542275  0  2.340686  0
O  O88  1  0.00193043  0.27320612  0.45294295  1  0  -0.325999  -0.49784  0  2.370669  0
O  O89  1  0.99807074  0.72679365  0.54705790  1  0  -0.325997  -0.497838  0  2.370624  0
O  O90  1  0.86901092  0.09836441  0.52390872  1  0  -0.292738  -0.513623  0  2.159086  0
O  O91  1  0.13099325  0.90163302  0.47609150  1  0  -0.292738  -0.513607  0  2.159019  0
