# generated using pymatgen
data_ZnH18C22(NO)4
_symmetry_space_group_name_H-M   'P 1'
_cell_length_a   8.10791264
_cell_length_b   11.37055691
_cell_length_c   11.72996895
_cell_angle_alpha   99.61596809
_cell_angle_beta   107.09730013
_cell_angle_gamma   95.25589383
_symmetry_Int_Tables_number   1
_chemical_formula_structural   ZnH18C22(NO)4
_chemical_formula_sum   'Zn2 H36 C44 N8 O8'
_cell_volume   1007.66506362
_cell_formula_units_Z   2
loop_
 _symmetry_equiv_pos_site_id
 _symmetry_equiv_pos_as_xyz
  1  'x, y, z'
loop_
 _atom_site_type_symbol
 _atom_site_label
 _atom_site_symmetry_multiplicity
 _atom_site_fract_x
 _atom_site_fract_y
 _atom_site_fract_z
 _atom_site_occupancy
 _atom_site_hle17_bader_spin_density
 _atom_site_hle17_ddec_charge
 _atom_site_hle17_ddec_spin_density
 _atom_site_hle17_ddec_sum_bond_order
 _atom_site_hle17_magmom
 _atom_site_hse06_10hf_bader_spin_density
 _atom_site_hse06_10hf_ddec_charge
 _atom_site_hse06_10hf_ddec_spin_density
 _atom_site_hse06_10hf_ddec_sum_bond_order
 _atom_site_hse06_10hf_magmom
 _atom_site_hse06_bader_spin_density
 _atom_site_hse06_ddec_charge
 _atom_site_hse06_ddec_spin_density
 _atom_site_hse06_ddec_sum_bond_order
 _atom_site_hse06_magmom
 _atom_site_pbe_bader_spin_density
 _atom_site_pbe_cm5_charge
 _atom_site_pbe_ddec_charge
 _atom_site_pbe_ddec_spin_density
 _atom_site_pbe_ddec_sum_bond_order
 _atom_site_pbe_magmom
Zn  Zn0  1  0.27303241  0.33982622  0.24612358  1  0  0.995503  0  1.895063  0  0  0.805093  0  2.377404  0  0  0.851863  0  2.321977  0  0  0.685879  0.772434  0  2.415549  0
Zn  Zn1  1  0.72696729  0.66019247  0.75389435  1  0  0.995254  0  1.895166  0  0  0.804868  0  2.377447  0  0  0.851671  0  2.321956  0  0  0.685806  0.772184  0  2.415635  0
H  H2  1  0.62477233  0.99085840  0.40867788  1  0  0.090497  0  0.967676  0  0  0.100174  0  1.032347  0  0  0.102813  0  1.031808  0  0  0.09975  0.098256  0  1.032874  0
H  H3  1  0.37521212  0.00915113  0.59130379  1  0  0.0905  0  0.967794  0  0  0.100149  0  1.032481  0  0  0.102792  0  1.031934  0  0  0.099715  0.098231  0  1.033009  0
H  H4  1  0.55504113  0.78040969  0.29657166  1  0  0.085865  0  0.984225  0  0  0.095462  0  1.049434  0  0  0.097748  0  1.049636  0  0  0.097664  0.093847  0  1.049337  0
H  H5  1  0.44495399  0.21959525  0.70341469  1  0  0.085895  0  0.984176  0  0  0.095429  0  1.049462  0  0  0.097713  0  1.049668  0  0  0.097672  0.093816  0  1.049364  0
H  H6  1  0.03651128  0.71276496  0.14690383  1  0  0.092826  0  0.967636  0  0  0.105161  0  1.028699  0  0  0.107346  0  1.028424  0  0  0.1035  0.103547  0  1.029103  0
H  H7  1  0.96348967  0.28723091  0.85308455  1  0  0.092943  0  0.967609  0  0  0.10527  0  1.028658  0  0  0.107454  0  1.02839  0  0  0.103569  0.103667  0  1.029051  0
H  H8  1  0.31515844  0.83440731  0.16980913  1  0  0.081067  0  0.973285  0  0  0.091632  0  1.035266  0  0  0.093964  0  1.034767  0  0  0.097808  0.089966  0  1.035698  0
H  H9  1  0.68483426  0.16559210  0.83018083  1  0  0.081029  0  0.973283  0  0  0.091652  0  1.035206  0  0  0.093985  0  1.034708  0  0  0.09781  0.089985  0  1.035641  0
H  H10  1  0.38913684  0.04568669  0.28783207  1  0  0.081937  0  0.985341  0  0  0.091188  0  1.049582  0  0  0.09332  0  1.049699  0  0  0.096976  0.089644  0  1.0496  0
H  H11  1  0.61085493  0.95430809  0.71216197  1  0  0.08191  0  0.985347  0  0  0.091149  0  1.049613  0  0  0.093277  0  1.049729  0  0  0.096963  0.089606  0  1.04963  0
H  H12  1  0.18521185  0.13627724  0.38084504  1  0  0.090757  0  0.967614  0  0  0.102828  0  1.029787  0  0  0.105445  0  1.028472  0  0  0.101476  0.100914  0  1.030862  0
H  H13  1  0.81478400  0.86371840  0.61915167  1  0  0.090744  0  0.967694  0  0  0.102802  0  1.029892  0  0  0.105417  0  1.02858  0  0  0.101441  0.100896  0  1.030953  0
H  H14  1  0.97788476  0.17902615  0.52003042  1  0  0.087177  0  0.943772  0  0  0.099987  0  1.011902  0  0  0.100075  0  1.013472  0  0  0.114026  0.099821  0  1.011031  0
H  H15  1  0.02211961  0.82096815  0.47994897  1  0  0.087305  0  0.943839  0  0  0.100098  0  1.011952  0  0  0.100181  0  1.013515  0  0  0.114112  0.099934  0  1.011083  0
H  H16  1  0.96562005  0.21364909  0.37710898  1  0  0.097969  0  0.935568  0  0  0.111928  0  0.996485  0  0  0.11306  0  0.995464  0  0  0.116683  0.111021  0  0.99736  0
H  H17  1  0.03436615  0.78635051  0.62287120  1  0  0.098027  0  0.935492  0  0  0.111919  0  0.996465  0  0  0.113055  0  0.995437  0  0  0.116665  0.111011  0  0.997348  0
H  H18  1  0.76661557  0.25431285  0.61377658  1  0  0.113888  0  0.98977  0  0  0.121996  0  1.053406  0  0  0.123992  0  1.054272  0  0  0.118592  0.120528  0  1.052961  0
H  H19  1  0.23339408  0.74566954  0.38620933  1  0  0.113765  0  0.989814  0  0  0.121877  0  1.053479  0  0  0.123872  0  1.054347  0  0  0.118516  0.120397  0  1.053049  0
H  H20  1  0.45661467  0.34839625  0.52839587  1  0  0.110033  0  0.953235  0  0  0.118074  0  1.01537  0  0  0.12105  0  1.013652  0  0  0.117826  0.115891  0  1.01676  0
H  H21  1  0.54340465  0.65160015  0.47161245  1  0  0.110044  0  0.953202  0  0  0.118094  0  1.015323  0  0  0.12107  0  1.013607  0  0  0.117852  0.115909  0  1.016712  0
H  H22  1  0.61363891  0.20444426  0.22850441  1  0  0.119212  0  0.91901  0  0  0.131782  0  0.973279  0  0  0.134897  0  0.969544  0  0  0.145184  0.129386  0  0.976125  0
H  H23  1  0.38635209  0.79557146  0.77148481  1  0  0.118994  0  0.919074  0  0  0.131649  0  0.973276  0  0  0.134774  0  0.969531  0  0  0.14516  0.129255  0  0.976115  0
H  H24  1  0.14021889  0.96609932  0.94092388  1  0  0.11767  0  0.931889  0  0  0.126688  0  0.989077  0  0  0.130833  0  0.986638  0  0  0.104656  0.123683  0  0.991039  0
H  H25  1  0.85978791  0.03392342  0.05907830  1  0  0.11767  0  0.931831  0  0  0.126686  0  0.989006  0  0  0.130829  0  0.986568  0  0  0.104636  0.123679  0  0.990969  0
H  H26  1  0.89811656  0.58305113  0.42387116  1  0  0.108759  0  0.950281  0  0  0.117965  0  1.014116  0  0  0.12171  0  1.011944  0  0  0.103179  0.115135  0  1.01607  0
H  H27  1  0.10187970  0.41690709  0.57617500  1  0  0.1089  0  0.950286  0  0  0.118112  0  1.014114  0  0  0.121861  0  1.011943  0  0  0.10318  0.115315  0  1.016036  0
H  H28  1  0.38602651  0.68526103  0.02040993  1  0  0.135242  0  0.916051  0  0  0.150803  0  0.963156  0  0  0.153682  0  0.9616  0  0  0.137898  0.14865  0  0.964504  0
H  H29  1  0.61395433  0.31473113  0.97957720  1  0  0.135151  0  0.916061  0  0  0.150736  0  0.963141  0  0  0.153615  0  0.961582  0  0  0.137828  0.148581  0  0.964488  0
H  H30  1  0.14010982  0.53110867  0.07339365  1  0  0.113143  0  0.947311  0  0  0.125243  0  1.002244  0  0  0.127975  0  1.000322  0  0  0.124625  0.123213  0  1.003792  0
H  H31  1  0.85988365  0.46889936  0.92661426  1  0  0.113244  0  0.947308  0  0  0.125355  0  1.002207  0  0  0.128084  0  1.000293  0  0  0.124667  0.123329  0  1.003754  0
H  H32  1  0.64687354  0.47924152  0.26656421  1  0  0.098621  0  0.951244  0  0  0.105487  0  1.020572  0  0  0.10766  0  1.018292  0  0  0.13684  0.103863  0  1.022197  0
H  H33  1  0.35312601  0.52077120  0.73343895  1  0  0.09862  0  0.951258  0  0  0.105497  0  1.02057  0  0  0.107671  0  1.018287  0  0  0.13684  0.103875  0  1.022193  0
H  H34  1  0.82858936  0.60324298  0.17969230  1  0  0.103356  0  0.97539  0  0  0.113575  0  1.046136  0  0  0.115937  0  1.0439  0  0  0.112158  0.111797  0  1.047779  0
H  H35  1  0.17140374  0.39675819  0.82029977  1  0  0.103406  0  0.975454  0  0  0.113604  0  1.046227  0  0  0.115964  0  1.043997  0  0  0.112192  0.111826  0  1.047875  0
H  H36  1  0.72364507  0.67655245  0.06038118  1  0  0.103994  0  0.931584  0  0  0.116845  0  0.997243  0  0  0.117752  0  0.997307  0  0  0.115966  0.116038  0  0.997331  0
H  H37  1  0.27634778  0.32344150  0.93960951  1  0  0.103992  0  0.931547  0  0  0.116834  0  0.997247  0  0  0.117732  0  0.997322  0  0  0.11598  0.116059  0  0.997302  0
C  C38  1  0.71530048  0.95505261  0.36413154  1  0  -0.109847  0  3.78173  0  0  -0.13318  0  4.038898  0  0  -0.135046  0  4.059987  0  0  -0.096069  -0.131848  0  4.024546  0
C  C39  1  0.28470112  0.04494575  0.63586681  1  0  -0.109867  0  3.78195  0  0  -0.133158  0  4.039081  0  0  -0.135024  0  4.060171  0  0  -0.096047  -0.131826  0  4.024728  0
C  C40  1  0.67557931  0.83390450  0.30009917  1  0  -0.13008  0  3.783002  0  0  -0.152209  0  4.038601  0  0  -0.155161  0  4.059945  0  0  -0.102153  -0.150228  0  4.024224  0
C  C41  1  0.32442689  0.16609109  0.69990214  1  0  -0.129939  0  3.782985  0  0  -0.152045  0  4.038514  0  0  -0.154999  0  4.059862  0  0  -0.102096  -0.150061  0  4.024138  0
C  C42  1  0.78176565  0.78535275  0.23777415  1  0  0.044823  0  3.717176  0  0  0.056501  0  3.963732  0  0  0.05643  0  3.986633  0  0  -0.008241  0.056502  0  3.948313  0
C  C43  1  0.21823428  0.21464375  0.76222524  1  0  0.044426  0  3.717276  0  0  0.056286  0  3.963696  0  0  0.056215  0  3.986586  0  0  -0.008368  0.056276  0  3.9483  0
C  C44  1  0.94413987  0.85487797  0.24953491  1  0  0.011661  0  3.754276  0  0  0.024257  0  3.980498  0  0  0.02341  0  4.004451  0  0  -0.006611  0.024848  0  3.964276  0
C  C45  1  0.05585551  0.14511615  0.75044949  1  0  0.011971  0  3.754156  0  0  0.024466  0  3.980451  0  0  0.023628  0  4.004389  0  0  -0.006528  0.025058  0  3.964234  0
C  C46  1  0.06653964  0.80547922  0.19764346  1  0  -0.117463  0  3.755415  0  0  -0.136268  0  4.001937  0  0  -0.138955  0  4.023139  0  0  -0.092573  -0.134422  0  3.987589  0
C  C47  1  0.93345801  0.19451939  0.80234306  1  0  -0.11769  0  3.755481  0  0  -0.136482  0  4.002103  0  0  -0.139175  0  4.023306  0  0  -0.092719  -0.134647  0  3.987754  0
C  C48  1  0.22384116  0.87297354  0.21173775  1  0  -0.064359  0  3.792914  0  0  -0.07737  0  4.040341  0  0  -0.078999  0  4.0622  0  0  -0.091165  -0.076133  0  4.025348  0
C  C49  1  0.77615502  0.12702409  0.78825172  1  0  -0.064283  0  3.792746  0  0  -0.077321  0  4.040162  0  0  -0.078952  0  4.062022  0  0  -0.091084  -0.076085  0  4.025176  0
C  C50  1  0.26601180  0.99238223  0.27892016  1  0  -0.066276  0  3.781914  0  0  -0.078996  0  4.03023  0  0  -0.081453  0  4.052409  0  0  -0.093629  -0.077203  0  4.015041  0
C  C51  1  0.73398331  0.00761622  0.72107265  1  0  -0.066278  0  3.781694  0  0  -0.078995  0  4.030035  0  0  -0.081445  0  4.052204  0  0  -0.093671  -0.077205  0  4.014845  0
C  C52  1  0.14963757  0.04370875  0.32954148  1  0  -0.099641  0  3.740438  0  0  -0.120807  0  3.991591  0  0  -0.122397  0  4.012558  0  0  -0.087891  -0.119688  0  3.977435  0
C  C53  1  0.85036063  0.95628612  0.67045044  1  0  -0.099712  0  3.740416  0  0  -0.120859  0  3.991556  0  0  -0.122449  0  4.012525  0  0  -0.087908  -0.119741  0  3.977397  0
C  C54  1  0.98557642  0.97782988  0.31601507  1  0  0.014558  0  3.754151  0  0  0.026821  0  3.980452  0  0  0.026006  0  4.00501  0  0  -0.005212  0.027402  0  3.963764  0
C  C55  1  0.01441995  0.02216869  0.68397291  1  0  0.014571  0  3.754147  0  0  0.02684  0  3.98053  0  0  0.026022  0  4.005089  0  0  -0.005131  0.027421  0  3.963838  0
C  C56  1  0.86214570  0.02882464  0.36744808  1  0  0.027271  0  3.715949  0  0  0.039582  0  3.960608  0  0  0.038502  0  3.984111  0  0  -0.011426  0.040343  0  3.94459  0
C  C57  1  0.13785067  0.97117393  0.63253989  1  0  0.027382  0  3.716001  0  0  0.039641  0  3.960709  0  0  0.03856  0  3.984213  0  0  -0.011369  0.040408  0  3.944692  0
C  C58  1  0.89545862  0.16190332  0.42416212  1  0  -0.040455  0  3.631891  0  0  -0.106108  0  3.879857  0  0  -0.101538  0  3.890048  0  0  -0.043971  -0.109102  0  3.872932  0
C  C59  1  0.10453086  0.83809361  0.57581736  1  0  -0.040888  0  3.632187  0  0  -0.106403  0  3.880063  0  0  -0.101822  0  3.890242  0  0  -0.044189  -0.109417  0  3.873167  0
C  C60  1  0.68820807  0.25856643  0.52262136  1  0  -0.054533  0  3.666381  0  0  -0.093293  0  3.919929  0  0  -0.092265  0  3.940398  0  0  0.002983  -0.093916  0  3.906163  0
C  C61  1  0.31179768  0.74142753  0.47737189  1  0  -0.054321  0  3.666395  0  0  -0.093094  0  3.919937  0  0  -0.092066  0  3.940417  0  0  0.003069  -0.093706  0  3.90617  0
C  C62  1  0.53621384  0.30448200  0.47966437  1  0  0.003006  0  3.730264  0  0  -0.028122  0  3.990133  0  0  -0.026894  0  4.010101  0  0  -0.001939  -0.028907  0  3.976666  0
C  C63  1  0.46379829  0.69551720  0.52033878  1  0  0.002942  0  3.7302  0  0  -0.02819  0  3.990054  0  0  -0.02697  0  4.01002  0  0  -0.001991  -0.02897  0  3.976584  0
C  C64  1  0.61447772  0.23322361  0.32169728  1  0  0.154841  0  3.62965  0  0  0.091641  0  3.896695  0  0  0.104952  0  3.909008  0  0  0.14532  0.083136  0  3.888092  0
C  C65  1  0.38551859  0.76678664  0.67829455  1  0  0.155209  0  3.629543  0  0  0.091889  0  3.896645  0  0  0.105182  0  3.908959  0  0  0.145392  0.083392  0  3.888035  0
C  C66  1  0.17918452  0.14073858  0.06570906  1  0  0.657169  0  3.941018  0  0  0.616806  0  4.229702  0  0  0.650309  0  4.223078  0  0  0.187292  0.594155  0  4.233251  0
C  C67  1  0.82083280  0.85927854  0.93430354  1  0  0.656924  0  3.941257  0  0  0.616619  0  4.229838  0  0  0.650121  0  4.223217  0  0  0.187154  0.593971  0  4.23338  0
C  C68  1  0.07818046  0.02112889  0.99677027  1  0  -0.156026  0  3.659463  0  0  -0.173198  0  3.908704  0  0  -0.179454  0  3.925749  0  0  -0.085692  -0.169044  0  3.897194  0
C  C69  1  0.92183838  0.97888901  0.00324789  1  0  -0.155781  0  3.659619  0  0  -0.172909  0  3.908762  0  0  -0.179164  0  3.925804  0  0  -0.085503  -0.168755  0  3.897251  0
C  C70  1  0.98374835  0.51573277  0.44563570  1  0  -0.166429  0  3.669359  0  0  -0.187357  0  3.929923  0  0  -0.192013  0  3.943939  0  0  -0.091612  -0.18427  0  3.920544  0
C  C71  1  0.01625533  0.48422997  0.55441277  1  0  -0.167124  0  3.669412  0  0  -0.1881  0  3.930041  0  0  -0.192754  0  3.944024  0  0  -0.091884  -0.185045  0  3.920649  0
C  C72  1  0.05737913  0.46353343  0.34928431  1  0  0.659574  0  3.957672  0  0  0.616772  0  4.246974  0  0  0.650179  0  4.239681  0  0  0.190523  0.594172  0  4.251059  0
C  C73  1  0.94262449  0.53645404  0.65075251  1  0  0.660015  0  3.957032  0  0  0.617297  0  4.246193  0  0  0.650701  0  4.238904  0  0  0.190711  0.594701  0  4.250281  0
C  C74  1  0.40039603  0.62014267  0.07911439  1  0  -0.052889  0  3.634431  0  0  -0.094936  0  3.896141  0  0  -0.093188  0  3.913717  0  0  0.012757  -0.096068  0  3.884336  0
C  C75  1  0.59959444  0.37985217  0.92087685  1  0  -0.052589  0  3.6343  0  0  -0.094634  0  3.895963  0  0  -0.092887  0  3.91354  0  0  0.012895  -0.095763  0  3.884155  0
C  C76  1  0.28129143  0.54349262  0.10494614  1  0  0.016255  0  3.72048  0  0  -0.018801  0  3.989606  0  0  -0.0164  0  4.007908  0  0  0.005965  -0.020413  0  3.977326  0
C  C77  1  0.71870174  0.45650831  0.89505613  1  0  0.015879  0  3.720644  0  0  -0.019215  0  3.989829  0  0  -0.016818  0  4.008138  0  0  0.00583  -0.020828  0  3.977545  0
C  C78  1  0.54009326  0.51415952  0.20870266  1  0  0.156907  0  3.655264  0  0  0.095308  0  3.920634  0  0  0.108842  0  3.933459  0  0  0.145275  0.086622  0  3.911658  0
C  C79  1  0.45990354  0.48585219  0.79130403  1  0  0.156802  0  3.655386  0  0  0.095197  0  3.920717  0  0  0.108729  0  3.93355  0  0  0.145242  0.086513  0  3.911736  0
C  C80  1  0.73143901  0.66354522  0.15262598  1  0  -0.071396  0  3.66305  0  0  -0.138803  0  3.91333  0  0  -0.135978  0  3.924732  0  0  -0.053127  -0.14041  0  3.905456  0
C  C81  1  0.26855203  0.33645232  0.84736586  1  0  -0.07141  0  3.663041  0  0  -0.138933  0  3.913557  0  0  -0.136103  0  3.92496  0  0  -0.053205  -0.140565  0  3.905681  0
N  N82  1  0.73606851  0.21401044  0.42193652  1  0  -0.055401  0  3.576875  0  0  0.039189  0  3.79415  0  0  0.024243  0  3.82117  0  0  -0.238473  0.049117  0  3.775676  0
N  N83  1  0.26392862  0.78599176  0.57805143  1  0  -0.05544  0  3.576947  0  0  0.039168  0  3.794213  0  0  0.02422  0  3.821236  0  0  -0.23843  0.0491  0  3.77574  0
N  N84  1  0.49150399  0.28799573  0.35431364  1  0  -0.381541  0  3.296969  0  0  -0.3005  0  3.593003  0  0  -0.320196  0  3.606578  0  0  -0.353567  -0.287162  0  3.583555  0
N  N85  1  0.50849736  0.71201336  0.64569005  1  0  -0.381554  0  3.296872  0  0  -0.300477  0  3.592918  0  0  -0.320163  0  3.606497  0  0  -0.353568  -0.287146  0  3.583477  0
N  N86  1  0.56328425  0.60037430  0.14583849  1  0  -0.046718  0  3.60032  0  0  0.046708  0  3.819365  0  0  0.032314  0  3.84646  0  0  -0.240335  0.0562  0  3.800852  0
N  N87  1  0.43670888  0.39962676  0.85415783  1  0  -0.046635  0  3.600295  0  0  0.046838  0  3.819308  0  0  0.032444  0  3.846401  0  0  -0.240229  0.056329  0  3.800804  0
N  N88  1  0.37023272  0.47787176  0.18576749  1  0  -0.382453  0  3.33304  0  0  -0.303216  0  3.637334  0  0  -0.322373  0  3.648132  0  0  -0.356472  -0.290268  0  3.629815  0
N  N89  1  0.62976667  0.52213988  0.81424226  1  0  -0.382275  0  3.333028  0  0  -0.303008  0  3.637279  0  0  -0.322168  0  3.648088  0  0  -0.35645  -0.290054  0  3.629751  0
O  O90  1  0.33201775  0.16872801  0.06368390  1  0  -0.641091  0  1.852115  0  0  -0.600658  0  2.066853  0  0  -0.622642  0  2.057092  0  0  -0.345064  -0.585195  0  2.073009  0
O  O91  1  0.66799394  0.83128756  0.93631622  1  0  -0.641002  0  1.85197  0  0  -0.600618  0  2.066688  0  0  -0.622605  0  2.056928  0  0  -0.345055  -0.585151  0  2.072839  0
O  O92  1  0.10278774  0.21025585  0.12774980  1  0  -0.65736  0  2.015646  0  0  -0.584279  0  2.28041  0  0  -0.613031  0  2.265263  0  0  -0.34864  -0.564094  0  2.290032  0
O  O93  1  0.89723179  0.78975942  0.87226460  1  0  -0.657286  0  2.015664  0  0  -0.584188  0  2.280304  0  0  -0.612958  0  2.265183  0  0  -0.348603  -0.564008  0  2.289943  0
O  O94  1  0.17073833  0.39146253  0.37880319  1  0  -0.658506  0  2.028221  0  0  -0.583523  0  2.294217  0  0  -0.611898  0  2.279455  0  0  -0.339932  -0.563586  0  2.303653  0
O  O95  1  0.82928480  0.60853252  0.62122440  1  0  -0.658295  0  2.028111  0  0  -0.583438  0  2.294159  0  0  -0.611817  0  2.279401  0  0  -0.339782  -0.563496  0  2.303587  0
O  O96  1  0.00649840  0.49107347  0.24648620  1  0  -0.621043  0  1.893383  0  0  -0.573793  0  2.111067  0  0  -0.596344  0  2.102129  0  0  -0.326946  -0.558099  0  2.116674  0
O  O97  1  0.99349756  0.50892024  0.75355282  1  0  -0.621222  0  1.892902  0  0  -0.574031  0  2.11062  0  0  -0.596582  0  2.101684  0  0  -0.327149  -0.558335  0  2.116228  0
