# generated using pymatgen
data_GdPH9C8NO9
_symmetry_space_group_name_H-M   'P 1'
_cell_length_a   9.55085074
_cell_length_b   10.53620700
_cell_length_c   15.51460374
_cell_angle_alpha   89.99981171
_cell_angle_beta   102.97163208
_cell_angle_gamma   90.00018553
_symmetry_Int_Tables_number   1
_chemical_formula_structural   GdPH9C8NO9
_chemical_formula_sum   'Gd4 P4 H36 C32 N4 O36'
_cell_volume   1521.39000612
_cell_formula_units_Z   4
loop_
 _symmetry_equiv_pos_site_id
 _symmetry_equiv_pos_as_xyz
  1  'x, y, z'
loop_
 _atom_site_type_symbol
 _atom_site_label
 _atom_site_symmetry_multiplicity
 _atom_site_fract_x
 _atom_site_fract_y
 _atom_site_fract_z
 _atom_site_occupancy
 _atom_site_hle17_bader_spin_density
 _atom_site_hle17_ddec_charge
 _atom_site_hle17_ddec_spin_density
 _atom_site_hle17_ddec_sum_bond_order
 _atom_site_hle17_magmom
 _atom_site_hse06_10hf_bader_spin_density
 _atom_site_hse06_10hf_ddec_charge
 _atom_site_hse06_10hf_ddec_spin_density
 _atom_site_hse06_10hf_ddec_sum_bond_order
 _atom_site_hse06_10hf_magmom
 _atom_site_hse06_bader_spin_density
 _atom_site_hse06_ddec_charge
 _atom_site_hse06_ddec_spin_density
 _atom_site_hse06_ddec_sum_bond_order
 _atom_site_hse06_magmom
 _atom_site_pbe_bader_spin_density
 _atom_site_pbe_cm5_charge
 _atom_site_pbe_ddec_charge
 _atom_site_pbe_ddec_spin_density
 _atom_site_pbe_ddec_sum_bond_order
 _atom_site_pbe_magmom
Gd  Gd0  1  0.21740427  0.12025516  0.39761617  1  0  2.176169  0  1.828257  0  0  2.086029  0  2.196233  0  0  2.138694  0  2.139252  0  0  1.471963  2.046149  0  2.240089  0
Gd  Gd1  1  0.28259453  0.62025373  0.10238847  1  0  2.17628  0  1.828148  0  0  2.086037  0  2.196278  0  0  2.13873  0  2.139248  0  0  1.471976  2.046145  0  2.240142  0
Gd  Gd2  1  0.78260664  0.87973847  0.60238392  1  0  2.176088  0  1.828436  0  0  2.085959  0  2.196399  0  0  2.138626  0  2.139402  0  0  1.471901  2.046059  0  2.24028  0
Gd  Gd3  1  0.71739486  0.37973990  0.89761505  1  0  2.176097  0  1.828257  0  0  2.08588  0  2.196329  0  0  2.138561  0  2.139336  0  0  1.471887  2.045986  0  2.240214  0
P  P4  1  0.16683740  0.86732414  0.23251806  1  0  1.588326  0  4.733519  0  0  1.440027  0  5.243406  0  0  1.489488  0  5.202912  0  0  0.379155  1.405675  0  5.27037  0
P  P5  1  0.33315890  0.36732653  0.26748825  1  0  1.588515  0  4.733075  0  0  1.440264  0  5.242906  0  0  1.489716  0  5.202415  0  0  0.379317  1.405908  0  5.269871  0
P  P6  1  0.83316488  0.13266950  0.76748597  1  0  1.588335  0  4.733262  0  0  1.440028  0  5.243118  0  0  1.489489  0  5.202621  0  0  0.379167  1.405686  0  5.270064  0
P  P7  1  0.66683589  0.63266616  0.73250958  1  0  1.588405  0  4.733418  0  0  1.440149  0  5.243252  0  0  1.4896  0  5.202764  0  0  0.379213  1.405806  0  5.270195  0
H  H8  1  0.33489360  0.88773993  0.92710313  1  0  0.126048  0  0.91434  0  0  0.136152  0  0.970201  0  0  0.140204  0  0.966052  0  0  0.138647  0.133241  0  0.973439  0
H  H9  1  0.16510200  0.38773612  0.57290017  1  0  0.125961  0  0.91434  0  0  0.136079  0  0.970196  0  0  0.140133  0  0.966043  0  0  0.138649  0.133176  0  0.973435  0
H  H10  1  0.66510333  0.11226130  0.07289693  1  0  0.126024  0  0.914337  0  0  0.136123  0  0.970212  0  0  0.140178  0  0.966059  0  0  0.138655  0.133218  0  0.973452  0
H  H11  1  0.83489172  0.61227270  0.42709494  1  0  0.125947  0  0.914555  0  0  0.136082  0  0.970384  0  0  0.140136  0  0.966233  0  0  0.138647  0.133175  0  0.973621  0
H  H12  1  0.39649253  0.12323246  0.92424886  1  0  0.118618  0  0.948566  0  0  0.126552  0  1.007455  0  0  0.130192  0  1.006141  0  0  0.113422  0.123852  0  1.008912  0
H  H13  1  0.10349696  0.62322779  0.57574388  1  0  0.118603  0  0.948667  0  0  0.126537  0  1.007547  0  0  0.130175  0  1.006239  0  0  0.113409  0.123838  0  1.009003  0
H  H14  1  0.60349048  0.87677067  0.07573831  1  0  0.118552  0  0.948631  0  0  0.126496  0  1.007522  0  0  0.130132  0  1.006214  0  0  0.113339  0.123793  0  1.008979  0
H  H15  1  0.89650108  0.37678008  0.42424861  1  0  0.118558  0  0.94855  0  0  0.126492  0  1.00745  0  0  0.130128  0  1.006144  0  0  0.113391  0.123791  0  1.00891  0
H  H16  1  0.29472250  0.27113210  0.02241504  1  0  0.116461  0  0.952358  0  0  0.124727  0  1.013326  0  0  0.127929  0  1.010859  0  0  0.115383  0.122711  0  1.014517  0
H  H17  1  0.20527463  0.77112675  0.47758129  1  0  0.116465  0  0.952379  0  0  0.124681  0  1.013384  0  0  0.127882  0  1.010918  0  0  0.115368  0.122666  0  1.014568  0
H  H18  1  0.70527768  0.72887293  0.97758032  1  0  0.116474  0  0.952377  0  0  0.124683  0  1.013386  0  0  0.127885  0  1.010921  0  0  0.115328  0.122672  0  1.014567  0
H  H19  1  0.79472985  0.22888207  0.52241274  1  0  0.116514  0  0.952324  0  0  0.124743  0  1.013303  0  0  0.127944  0  1.010837  0  0  0.115417  0.122732  0  1.014482  0
H  H20  1  0.14652780  0.18005428  0.12088531  1  0  0.129193  0  0.924729  0  0  0.139284  0  0.980398  0  0  0.143133  0  0.978445  0  0  0.121161  0.136611  0  0.9816  0
H  H21  1  0.35347227  0.68004793  0.37911422  1  0  0.129195  0  0.924748  0  0  0.139307  0  0.980389  0  0  0.143144  0  0.978451  0  0  0.121186  0.136628  0  0.981595  0
H  H22  1  0.85348418  0.81994885  0.87911557  1  0  0.129214  0  0.924618  0  0  0.139335  0  0.980251  0  0  0.143156  0  0.978334  0  0  0.121185  0.136664  0  0.981445  0
H  H23  1  0.64652683  0.31995140  0.62088035  1  0  0.129183  0  0.924689  0  0  0.139316  0  0.980311  0  0  0.143137  0  0.978395  0  0  0.121172  0.13664  0  0.981513  0
H  H24  1  0.00249432  0.85067403  0.09216041  1  0  0.165064  0  0.959261  0  0  0.171038  0  1.025475  0  0  0.174503  0  1.02454  0  0  0.120535  0.168393  0  1.026799  0
H  H25  1  0.49750517  0.35066293  0.40784123  1  0  0.165103  0  0.959204  0  0  0.171069  0  1.025443  0  0  0.174532  0  1.024508  0  0  0.120535  0.168423  0  1.026771  0
H  H26  1  0.99750367  0.14933668  0.90784045  1  0  0.165088  0  0.959233  0  0  0.171043  0  1.025471  0  0  0.174509  0  1.024534  0  0  0.120525  0.168399  0  1.026795  0
H  H27  1  0.50248855  0.64933260  0.59215452  1  0  0.165246  0  0.959145  0  0  0.171175  0  1.02541  0  0  0.174641  0  1.024475  0  0  0.120556  0.168529  0  1.026741  0
H  H28  1  0.98874615  0.00114665  0.14410372  1  0  0.141702  0  0.937695  0  0  0.155169  0  0.992396  0  0  0.157546  0  0.991927  0  0  0.113318  0.153482  0  0.992937  0
H  H29  1  0.51126033  0.50113848  0.35590289  1  0  0.141786  0  0.937622  0  0  0.155264  0  0.992323  0  0  0.157638  0  0.991851  0  0  0.113367  0.153574  0  0.99286  0
H  H30  1  0.01126795  0.99886217  0.85590390  1  0  0.141701  0  0.937711  0  0  0.155173  0  0.992401  0  0  0.157548  0  0.991931  0  0  0.113313  0.153485  0  0.992937  0
H  H31  1  0.48873769  0.49885325  0.64409346  1  0  0.141758  0  0.93763  0  0  0.155219  0  0.992368  0  0  0.157598  0  0.991891  0  0  0.113315  0.153531  0  0.992909  0
H  H32  1  0.03055744  0.84877910  0.32492555  1  0  0.426202  0  0.878912  0  0  0.393521  0  0.945038  0  0  0.405982  0  0.926924  0  0  0.308459  0.38468  0  0.957919  0
H  H33  1  0.46943559  0.34877662  0.17507777  1  0  0.426145  0  0.87897  0  0  0.393463  0  0.945094  0  0  0.405916  0  0.926993  0  0  0.308404  0.384623  0  0.957973  0
H  H34  1  0.96943522  0.15121074  0.67506812  1  0  0.42614  0  0.878962  0  0  0.39343  0  0.945132  0  0  0.405888  0  0.927025  0  0  0.308391  0.384588  0  0.958015  0
H  H35  1  0.53056347  0.65120942  0.82492518  1  0  0.426194  0  0.87891  0  0  0.393476  0  0.945091  0  0  0.405936  0  0.926978  0  0  0.308424  0.384634  0  0.957973  0
H  H36  1  0.01706749  0.26244866  0.27301444  1  0  0.452734  0  0.816384  0  0  0.42897  0  0.867308  0  0  0.439164  0  0.852319  0  0  0.324831  0.421672  0  0.87805  0
H  H37  1  0.48292852  0.76244436  0.22698756  1  0  0.452731  0  0.816342  0  0  0.428976  0  0.86729  0  0  0.439168  0  0.852302  0  0  0.324841  0.421677  0  0.878034  0
H  H38  1  0.98293693  0.73755732  0.72699247  1  0  0.452794  0  0.816282  0  0  0.429021  0  0.867237  0  0  0.439214  0  0.852248  0  0  0.324873  0.421718  0  0.87799  0
H  H39  1  0.51706307  0.23755687  0.77300532  1  0  0.452862  0  0.81627  0  0  0.429095  0  0.867143  0  0  0.43929  0  0.852152  0  0  0.324917  0.421798  0  0.877886  0
H  H40  1  0.88928992  0.17698458  0.29223109  1  0  0.449774  0  0.794172  0  0  0.438985  0  0.830261  0  0  0.446163  0  0.820325  0  0  0.346214  0.433447  0  0.838112  0
H  H41  1  0.61070851  0.67698879  0.20777077  1  0  0.44983  0  0.794129  0  0  0.439043  0  0.830182  0  0  0.446221  0  0.820244  0  0  0.346211  0.433497  0  0.838042  0
H  H42  1  0.11071450  0.82301665  0.70777711  1  0  0.449802  0  0.794232  0  0  0.439017  0  0.830231  0  0  0.446195  0  0.820294  0  0  0.346175  0.433474  0  0.838087  0
H  H43  1  0.38929167  0.32302003  0.79222459  1  0  0.449796  0  0.794282  0  0  0.439007  0  0.830258  0  0  0.446183  0  0.820327  0  0  0.346197  0.433468  0  0.838108  0
C  C44  1  0.29662485  0.95993464  0.96639927  1  0  -0.001855  0  3.618187  0  0  -0.044589  0  3.879896  0  0  -0.037491  0  3.892832  0  0  0.041287  -0.049601  0  3.872901  0
C  C45  1  0.20337850  0.45993113  0.53360238  1  0  -0.001754  0  3.617821  0  0  -0.04449  0  3.879533  0  0  -0.03739  0  3.892467  0  0  0.041285  -0.049509  0  3.872556  0
C  C46  1  0.70337746  0.04006753  0.03359897  1  0  -0.00174  0  3.617877  0  0  -0.044465  0  3.879594  0  0  -0.037365  0  3.892527  0  0  0.041319  -0.049483  0  3.872612  0
C  C47  1  0.79661200  0.54007864  0.46639421  1  0  -0.001839  0  3.618328  0  0  -0.044608  0  3.880044  0  0  -0.037504  0  3.892976  0  0  0.041204  -0.049628  0  3.873062  0
C  C48  1  0.32901957  0.08792448  0.96708496  1  0  -0.102952  0  3.764433  0  0  -0.116035  0  4.024044  0  0  -0.122482  0  4.044244  0  0  -0.077499  -0.111435  0  4.01187  0
C  C49  1  0.17097623  0.58792497  0.53291518  1  0  -0.102858  0  3.764299  0  0  -0.11597  0  4.023899  0  0  -0.122418  0  4.044095  0  0  -0.07744  -0.111372  0  4.011731  0
C  C50  1  0.67097201  0.91207390  0.03290920  1  0  -0.102973  0  3.764373  0  0  -0.116093  0  4.02399  0  0  -0.122542  0  4.044187  0  0  -0.07746  -0.111493  0  4.011822  0
C  C51  1  0.82902177  0.41208385  0.46708375  1  0  -0.102809  0  3.764483  0  0  -0.115895  0  4.024069  0  0  -0.122345  0  4.044274  0  0  -0.077392  -0.111293  0  4.011902  0
C  C52  1  0.27425430  0.16964773  0.02233734  1  0  0.005909  0  3.679928  0  0  -0.022427  0  3.94338  0  0  -0.016298  0  3.957468  0  0  -0.065023  -0.026635  0  3.933369  0
C  C53  1  0.22574465  0.66964149  0.47766593  1  0  0.00582  0  3.680009  0  0  -0.022413  0  3.943397  0  0  -0.016286  0  3.957489  0  0  -0.065025  -0.026618  0  3.933379  0
C  C54  1  0.72574370  0.83035634  0.97766288  1  0  0.005956  0  3.680039  0  0  -0.022297  0  3.943433  0  0  -0.016165  0  3.957514  0  0  -0.064941  -0.026506  0  3.933421  0
C  C55  1  0.77425767  0.33036448  0.52233167  1  0  0.005778  0  3.680129  0  0  -0.022487  0  3.943564  0  0  -0.016359  0  3.957651  0  0  -0.065094  -0.026697  0  3.933555  0
C  C56  1  0.18930329  0.11953742  0.07604197  1  0  -0.119904  0  3.666441  0  0  -0.142717  0  3.927011  0  0  -0.14797  0  3.94359  0  0  -0.066328  -0.138504  0  3.915124  0
C  C57  1  0.31070304  0.61952504  0.42396115  1  0  -0.120028  0  3.666384  0  0  -0.142813  0  3.926993  0  0  -0.148058  0  3.943576  0  0  -0.066381  -0.138587  0  3.915076  0
C  C58  1  0.81070652  0.88047520  0.92396183  1  0  -0.12008  0  3.666402  0  0  -0.14284  0  3.926976  0  0  -0.148072  0  3.943564  0  0  -0.066378  -0.138626  0  3.915076  0
C  C59  1  0.68929821  0.38047429  0.57603565  1  0  -0.120034  0  3.666335  0  0  -0.142828  0  3.926952  0  0  -0.148058  0  3.943537  0  0  -0.066372  -0.138615  0  3.91506  0
C  C60  1  0.15567842  0.99074843  0.07399956  1  0  0.213431  0  3.649386  0  0  0.205168  0  3.899502  0  0  0.214369  0  3.917389  0  0  0.124414  0.198788  0  3.888188  0
C  C61  1  0.34432685  0.49074249  0.42600516  1  0  0.213685  0  3.649091  0  0  0.205233  0  3.899477  0  0  0.214427  0  3.917363  0  0  0.12443  0.198865  0  3.888149  0
C  C62  1  0.84433354  0.00925565  0.92600390  1  0  0.213664  0  3.649165  0  0  0.205193  0  3.899539  0  0  0.214392  0  3.917415  0  0  0.124409  0.198818  0  3.888223  0
C  C63  1  0.65566904  0.50925494  0.57398832  1  0  0.213715  0  3.648989  0  0  0.205299  0  3.899354  0  0  0.214493  0  3.917238  0  0  0.124443  0.198932  0  3.888027  0
C  C64  1  0.06321208  0.93058515  0.12773287  1  0  -0.53738  0  3.731915  0  0  -0.559027  0  3.969904  0  0  -0.569517  0  3.975369  0  0  -0.162052  -0.551939  0  3.967246  0
C  C65  1  0.43679086  0.43058163  0.37227229  1  0  -0.537617  0  3.731888  0  0  -0.55923  0  3.969978  0  0  -0.569709  0  3.975424  0  0  -0.162114  -0.552139  0  3.967318  0
C  C66  1  0.93679559  0.06941608  0.87226934  1  0  -0.537564  0  3.732117  0  0  -0.559122  0  3.970135  0  0  -0.569606  0  3.975594  0  0  -0.162035  -0.552038  0  3.967475  0
C  C67  1  0.56320715  0.56941769  0.62772535  1  0  -0.537752  0  3.731889  0  0  -0.559383  0  3.970093  0  0  -0.56987  0  3.975552  0  0  -0.16208  -0.552298  0  3.96744  0
C  C68  1  0.54246886  0.03833888  0.47130219  1  0  0.56208  0  3.92772  0  0  0.522415  0  4.227933  0  0  0.552481  0  4.219063  0  0  0.216413  0.502103  0  4.232702  0
C  C69  1  0.95752916  0.53833736  0.02869800  1  0  0.561959  0  3.927714  0  0  0.522272  0  4.227945  0  0  0.552338  0  4.219079  0  0  0.216317  0.50196  0  4.232715  0
C  C70  1  0.45753553  0.96166520  0.52871246  1  0  0.562143  0  3.927537  0  0  0.522439  0  4.227796  0  0  0.552504  0  4.218921  0  0  0.216246  0.502133  0  4.232561  0
C  C71  1  0.04246352  0.46165913  0.97128987  1  0  0.562051  0  3.927596  0  0  0.522377  0  4.227797  0  0  0.552443  0  4.218928  0  0  0.21625  0.502062  0  4.232575  0
C  C72  1  0.01570845  0.05640899  0.53277618  1  0  0.584347  0  3.894577  0  0  0.539865  0  4.196223  0  0  0.570153  0  4.186616  0  0  0.226257  0.519699  0  4.201141  0
C  C73  1  0.48429799  0.55640734  0.96722874  1  0  0.584035  0  3.894709  0  0  0.539502  0  4.19648  0  0  0.569806  0  4.186819  0  0  0.226133  0.519337  0  4.201395  0
C  C74  1  0.98429605  0.94359793  0.46721399  1  0  0.583748  0  3.894271  0  0  0.539206  0  4.196033  0  0  0.569463  0  4.186471  0  0  0.225956  0.519046  0  4.200942  0
C  C75  1  0.51570637  0.44359483  0.03279041  1  0  0.584028  0  3.894548  0  0  0.539431  0  4.196377  0  0  0.569726  0  4.186738  0  0  0.225961  0.519271  0  4.201289  0
N  N76  1  0.21092535  0.91331280  0.01845000  1  0  0.23261  0  3.67573  0  0  0.287723  0  3.935607  0  0  0.285691  0  3.957744  0  0  -0.109835  0.288081  0  3.921092  0
N  N77  1  0.28907538  0.41330644  0.48155747  1  0  0.23254  0  3.675549  0  0  0.287715  0  3.935459  0  0  0.285683  0  3.957597  0  0  -0.109844  0.288064  0  3.920955  0
N  N78  1  0.78907801  0.08669127  0.98155612  1  0  0.232538  0  3.675514  0  0  0.287707  0  3.935421  0  0  0.285678  0  3.957555  0  0  -0.109868  0.288059  0  3.920917  0
N  N79  1  0.71091513  0.58669668  0.51843589  1  0  0.232659  0  3.67545  0  0  0.287817  0  3.935353  0  0  0.285787  0  3.957489  0  0  -0.109803  0.288163  0  3.920853  0
O  O80  1  0.23242832  0.97829003  0.28987990  1  0  -0.948786  0  1.979117  0  0  -0.886974  0  2.246947  0  0  -0.913839  0  2.227198  0  0  -0.475679  -0.867449  0  2.26009  0
O  O81  1  0.26757690  0.47830009  0.21012741  1  0  -0.948838  0  1.979011  0  0  -0.887022  0  2.246867  0  0  -0.913892  0  2.227114  0  0  -0.475732  -0.867496  0  2.260007  0
O  O82  1  0.76758041  0.02169507  0.71012439  1  0  -0.94876  0  1.978904  0  0  -0.886956  0  2.246753  0  0  -0.913822  0  2.227005  0  0  -0.475718  -0.867434  0  2.259888  0
O  O83  1  0.73243079  0.52170114  0.78987158  1  0  -0.948799  0  1.97901  0  0  -0.886977  0  2.246856  0  0  -0.913845  0  2.227106  0  0  -0.475711  -0.867456  0  2.259995  0
O  O84  1  0.05236630  0.79572600  0.27481625  1  0  -0.734506  0  1.935393  0  0  -0.668958  0  2.138913  0  0  -0.68886  0  2.112706  0  0  -0.38715  -0.655087  0  2.157502  0
O  O85  1  0.44762443  0.29572133  0.22518494  1  0  -0.734527  0  1.935241  0  0  -0.66898  0  2.13876  0  0  -0.688873  0  2.112555  0  0  -0.387191  -0.655108  0  2.157353  0
O  O86  1  0.94762742  0.20426953  0.72518079  1  0  -0.734467  0  1.935361  0  0  -0.668871  0  2.138874  0  0  -0.688773  0  2.11267  0  0  -0.387124  -0.655005  0  2.157464  0
O  O87  1  0.55236822  0.70426092  0.77481066  1  0  -0.734519  0  1.935331  0  0  -0.668951  0  2.13888  0  0  -0.688839  0  2.112665  0  0  -0.387132  -0.655083  0  2.157471  0
O  O88  1  0.27476485  0.77250369  0.21147258  1  0  -0.945282  0  1.973676  0  0  -0.877221  0  2.23751  0  0  -0.903693  0  2.215641  0  0  -0.450708  -0.85779  0  2.251811  0
O  O89  1  0.22522579  0.27251136  0.28853316  1  0  -0.945336  0  1.973601  0  0  -0.877334  0  2.237473  0  0  -0.903793  0  2.215595  0  0  -0.450771  -0.857909  0  2.251796  0
O  O90  1  0.72523420  0.22748614  0.78853230  1  0  -0.945218  0  1.973499  0  0  -0.877198  0  2.23741  0  0  -0.903672  0  2.215551  0  0  -0.450696  -0.857772  0  2.251711  0
O  O91  1  0.77476364  0.72748797  0.71146070  1  0  -0.945276  0  1.97353  0  0  -0.87727  0  2.237435  0  0  -0.903731  0  2.215552  0  0  -0.450779  -0.857845  0  2.251743  0
O  O92  1  0.17608593  0.79188767  0.01251462  1  0  -0.625796  0  1.851709  0  0  -0.600489  0  2.095993  0  0  -0.624573  0  2.096686  0  0  -0.31836  -0.583463  0  2.095281  0
O  O93  1  0.32391229  0.29188328  0.48749342  1  0  -0.625753  0  1.851628  0  0  -0.600471  0  2.095897  0  0  -0.62455  0  2.096592  0  0  -0.318341  -0.58344  0  2.095191  0
O  O94  1  0.82391419  0.20811261  0.98749234  1  0  -0.625768  0  1.85176  0  0  -0.600455  0  2.096007  0  0  -0.62454  0  2.096703  0  0  -0.318329  -0.583428  0  2.095306  0
O  O95  1  0.67607392  0.70811700  0.51249934  1  0  -0.625805  0  1.851552  0  0  -0.600466  0  2.095752  0  0  -0.624543  0  2.096441  0  0  -0.31831  -0.583439  0  2.095054  0
O  O96  1  0.67807441  0.02363639  0.48973053  1  0  -0.675724  0  2.04563  0  0  -0.63935  0  2.285148  0  0  -0.664152  0  2.27509  0  0  -0.389593  -0.621826  0  2.290867  0
O  O97  1  0.82193110  0.52363742  0.01026881  1  0  -0.67558  0  2.045755  0  0  -0.63918  0  2.285276  0  0  -0.663985  0  2.275222  0  0  -0.389508  -0.621654  0  2.290992  0
O  O98  1  0.32193966  0.97636294  0.51028289  1  0  -0.675646  0  2.045762  0  0  -0.639242  0  2.285276  0  0  -0.664045  0  2.275225  0  0  -0.389517  -0.621724  0  2.290993  0
O  O99  1  0.17806587  0.47635812  0.98972160  1  0  -0.675642  0  2.045514  0  0  -0.639247  0  2.285025  0  0  -0.664054  0  2.274972  0  0  -0.389532  -0.621717  0  2.290742  0
O  O100  1  0.47087813  0.10867637  0.41178687  1  0  -0.618851  0  2.043032  0  0  -0.581333  0  2.277873  0  0  -0.603527  0  2.267419  0  0  -0.364164  -0.565488  0  2.284719  0
O  O101  1  0.02912709  0.60866954  0.08821805  1  0  -0.618872  0  2.042821  0  0  -0.581338  0  2.277675  0  0  -0.603534  0  2.267218  0  0  -0.364165  -0.565491  0  2.284519  0
O  O102  1  0.52914021  0.89132675  0.58823230  1  0  -0.618992  0  2.042651  0  0  -0.581475  0  2.277526  0  0  -0.603667  0  2.267063  0  0  -0.364101  -0.565629  0  2.284375  0
O  O103  1  0.97086343  0.39132315  0.91177403  1  0  -0.618905  0  2.042906  0  0  -0.58138  0  2.277764  0  0  -0.603574  0  2.267303  0  0  -0.364086  -0.565532  0  2.284618  0
O  O104  1  0.08198431  0.15058249  0.51245068  1  0  -0.632725  0  2.033241  0  0  -0.600598  0  2.273626  0  0  -0.622981  0  2.263763  0  0  -0.352727  -0.584827  0  2.279699  0
O  O105  1  0.41801165  0.65058245  0.98755450  1  0  -0.63265  0  2.033013  0  0  -0.600487  0  2.273429  0  0  -0.622886  0  2.263557  0  0  -0.352725  -0.584708  0  2.279485  0
O  O106  1  0.91801802  0.84940735  0.48754305  1  0  -0.632468  0  2.032299  0  0  -0.600326  0  2.272714  0  0  -0.622707  0  2.262876  0  0  -0.352665  -0.584541  0  2.27876  0
O  O107  1  0.58198197  0.34941213  0.01246380  1  0  -0.632532  0  2.03281  0  0  -0.600351  0  2.273239  0  0  -0.622749  0  2.263379  0  0  -0.352624  -0.584573  0  2.279298  0
O  O108  1  0.96910638  0.04288066  0.60316774  1  0  -0.683972  0  2.135826  0  0  -0.631181  0  2.36841  0  0  -0.657953  0  2.357787  0  0  -0.349493  -0.612647  0  2.37503  0
O  O109  1  0.53090268  0.54288753  0.89684013  1  0  -0.683865  0  2.135982  0  0  -0.630997  0  2.368558  0  0  -0.657785  0  2.357926  0  0  -0.349405  -0.612472  0  2.375184  0
O  O110  1  0.03090348  0.95711488  0.39682640  1  0  -0.683694  0  2.136102  0  0  -0.630884  0  2.368689  0  0  -0.657648  0  2.358083  0  0  -0.34933  -0.612361  0  2.375313  0
O  O111  1  0.46909953  0.45711749  0.10317936  1  0  -0.68385  0  2.136042  0  0  -0.631004  0  2.368655  0  0  -0.657786  0  2.358035  0  0  -0.349316  -0.612478  0  2.375278  0
O  O112  1  0.97970438  0.21808957  0.31883520  1  0  -0.860878  0  1.81625  0  0  -0.824612  0  1.97045  0  0  -0.842235  0  1.940803  0  0  -0.592725  -0.811768  0  1.991835  0
O  O113  1  0.52029093  0.71808606  0.18116807  1  0  -0.860946  0  1.816192  0  0  -0.824696  0  1.970403  0  0  -0.842317  0  1.940758  0  0  -0.592755  -0.811852  0  1.991796  0
O  O114  1  0.02030434  0.78190976  0.68117232  1  0  -0.860964  0  1.816231  0  0  -0.824707  0  1.970348  0  0  -0.842328  0  1.940704  0  0  -0.592743  -0.811864  0  1.991744  0
O  O115  1  0.47970280  0.28191232  0.81882639  1  0  -0.861037  0  1.816301  0  0  -0.824769  0  1.970367  0  0  -0.842393  0  1.940711  0  0  -0.592797  -0.811926  0  1.991759  0
