# generated using pymatgen
data_CoH15C15N2O5
_symmetry_space_group_name_H-M   'P 1'
_cell_length_a   8.15154894
_cell_length_b   14.00272173
_cell_length_c   14.56802902
_cell_angle_alpha   89.99641292
_cell_angle_beta   89.99260343
_cell_angle_gamma   97.99663470
_symmetry_Int_Tables_number   1
_chemical_formula_structural   CoH15C15N2O5
_chemical_formula_sum   'Co4 H60 C60 N8 O20'
_cell_volume   1646.68205082
_cell_formula_units_Z   4
loop_
 _symmetry_equiv_pos_site_id
 _symmetry_equiv_pos_as_xyz
  1  'x, y, z'
loop_
 _atom_site_type_symbol
 _atom_site_label
 _atom_site_symmetry_multiplicity
 _atom_site_fract_x
 _atom_site_fract_y
 _atom_site_fract_z
 _atom_site_occupancy
 _atom_site_pbe_bader_charge
 _atom_site_pbe_bader_spin_density
 _atom_site_pbe_cm5_charge
 _atom_site_pbe_ddec_charge
 _atom_site_pbe_ddec_spin_density
 _atom_site_pbe_ddec_sum_bond_order
 _atom_site_pbe_magmom
Co  Co0  1  0.08620177  0.87916723  0.91109149  1  1.29125  2.595885  0.671288  0.895428  2.824194  2.504435  2.578
Co  Co1  1  0.41371167  0.12086874  0.41102677  1  1.291472  2.596098  0.67114  0.895443  2.824543  2.503351  2.578
Co  Co2  1  0.91366352  0.12089394  0.08889520  1  1.291087  2.595951  0.671322  0.895557  2.824188  2.503945  2.578
Co  Co3  1  0.58636920  0.87909427  0.58893520  1  1.291092  2.596174  0.671084  0.895461  2.824472  2.503412  2.578
H  H4  1  0.25634707  0.76292172  0.83117210  1  0.597938  0.000324  0.307193  0.384961  8.4e-05  0.904844  0.0
H  H5  1  0.24372351  0.23712410  0.33107689  1  0.59701  0.000325  0.307081  0.385114  8.4e-05  0.9048  0.0
H  H6  1  0.74351246  0.23708095  0.16880841  1  0.598625  0.000324  0.307147  0.384784  8.4e-05  0.904847  0.0
H  H7  1  0.75637889  0.76286906  0.66886861  1  0.597819  0.000323  0.306986  0.385045  8.4e-05  0.904816  0.0
H  H8  1  0.39077857  0.83018053  0.88605873  1  0.65506  -3.2e-05  0.283166  0.372852  -3e-06  0.976078  0.0
H  H9  1  0.10915076  0.16987050  0.38592166  1  0.655553  -3e-05  0.282994  0.372781  -1e-06  0.976225  0.0
H  H10  1  0.60915126  0.16985112  0.11386275  1  0.65483  -3.3e-05  0.283179  0.372851  -4e-06  0.976129  0.0
H  H11  1  0.89088812  0.83012832  0.61400325  1  0.655238  -3.3e-05  0.283072  0.372915  -4e-06  0.976067  0.0
H  H12  1  0.50294596  0.17584662  0.69061497  1  0.081361  -0.000268  0.10728  0.110526  -0.000433  1.009189  0.0
H  H13  1  0.99701330  0.82418831  0.19058337  1  0.081515  -0.000268  0.107261  0.110486  -0.000433  1.009083  0.0
H  H14  1  0.49716722  0.82406259  0.30938201  1  0.081593  -0.000267  0.107412  0.110641  -0.000433  1.009004  0.0
H  H15  1  0.00285336  0.17592416  0.80942391  1  0.081182  -0.000267  0.107308  0.110409  -0.000432  1.009184  0.0
H  H16  1  0.32437204  0.07262971  0.95701127  1  0.142013  0.001661  0.123814  0.112754  0.000406  1.002935  0.001
H  H17  1  0.17556865  0.92734994  0.45695332  1  0.14316  0.00166  0.123806  0.112657  0.000406  1.003006  0.001
H  H18  1  0.67539424  0.92740058  0.04297267  1  0.141703  0.001659  0.123729  0.112579  0.000405  1.002716  0.001
H  H19  1  0.82468169  0.07265051  0.54301826  1  0.142356  0.001658  0.123653  0.112551  0.000405  1.002651  0.001
H  H20  1  0.46903855  0.24058800  0.93818650  1  0.069101  2.2e-05  0.091013  0.092651  -5.9e-05  1.011389  0.0
H  H21  1  0.03093226  0.75938722  0.43814225  1  0.068555  2.2e-05  0.091063  0.092721  -5.9e-05  1.011302  0.0
H  H22  1  0.53084420  0.75936818  0.06181186  1  0.067911  2.2e-05  0.091073  0.092732  -5.9e-05  1.011178  0.0
H  H23  1  0.96925070  0.24067819  0.56185953  1  0.068707  2.2e-05  0.091178  0.092854  -5.9e-05  1.01107  0.0
H  H24  1  0.64270965  0.18853628  0.90537711  1  0.123654  0.00029  0.100563  0.120754  3.9e-05  1.010763  0.0
H  H25  1  0.85725388  0.81140463  0.40534880  1  0.124274  0.000289  0.100662  0.120853  3.8e-05  1.010889  0.0
H  H26  1  0.35719091  0.81140383  0.09466587  1  0.123923  0.00029  0.100559  0.120722  3.9e-05  1.010782  0.0
H  H27  1  0.14287792  0.18863451  0.59469417  1  0.123093  0.00029  0.100569  0.120655  3.8e-05  1.011026  0.0
H  H28  1  0.67389941  0.28878209  0.76133082  1  0.017622  -4.4e-05  0.081104  0.103446  -4.2e-05  1.034668  0.0
H  H29  1  0.82609615  0.71114583  0.26132111  1  0.018505  -4.4e-05  0.081006  0.103402  -4.2e-05  1.034442  0.0
H  H30  1  0.32610784  0.71114402  0.23870803  1  0.018428  -4.4e-05  0.081142  0.103541  -4.2e-05  1.03443  0.0
H  H31  1  0.17399174  0.28888505  0.73872460  1  0.018353  -4.4e-05  0.081119  0.103804  -4.2e-05  1.034089  0.0
H  H32  1  0.66737030  0.36305437  0.85905239  1  -0.013802  0.00016  0.082475  0.10787  6.7e-05  1.018252  0.0
H  H33  1  0.83261228  0.63689982  0.35907966  1  -0.014896  0.00016  0.082523  0.107865  6.7e-05  1.01801  0.0
H  H34  1  0.33261626  0.63687699  0.14097068  1  -0.013996  0.00016  0.082586  0.108018  6.7e-05  1.018087  0.0
H  H35  1  0.16748882  0.36315769  0.64097086  1  -0.014883  0.00016  0.082419  0.107864  6.7e-05  1.017797  0.0
H  H36  1  0.48978465  0.33768998  0.78769780  1  0.007653  8e-06  0.080285  0.103507  -7e-06  1.020351  0.0
H  H37  1  0.01022992  0.66224162  0.28769868  1  0.007753  8e-06  0.080153  0.103305  -7e-06  1.020032  0.0
H  H38  1  0.51024439  0.66226266  0.21229781  1  0.007478  7e-06  0.080159  0.103367  -7e-06  1.020289  0.0
H  H39  1  0.98984071  0.33778436  0.71233812  1  0.008176  8e-06  0.08017  0.103529  -7e-06  1.01987  0.0
H  H40  1  0.74730606  0.79920561  0.87458406  1  0.137262  0.001492  0.116633  0.088333  0.00042  1.051878  0.001
H  H41  1  0.75262923  0.20086549  0.37449452  1  0.136141  0.001491  0.116768  0.088582  0.000421  1.051357  0.001
H  H42  1  0.25262936  0.20079635  0.12539851  1  0.136859  0.00149  0.116641  0.088253  0.000419  1.051905  0.001
H  H43  1  0.24739563  0.79911755  0.62547226  1  0.136406  0.001489  0.116695  0.088488  0.000419  1.051659  0.001
H  H44  1  0.54077297  0.65823833  0.90752952  1  0.091216  0.001235  0.106583  0.114635  0.000692  1.025937  0.0
H  H45  1  0.95918613  0.34177545  0.40751749  1  0.091641  0.001233  0.106563  0.114564  0.000691  1.025702  0.0
H  H46  1  0.45929828  0.34170235  0.09244755  1  0.092985  0.001236  0.106557  0.114644  0.000693  1.025995  0.0
H  H47  1  0.04074604  0.65823738  0.59248430  1  0.091398  0.001234  0.106527  0.114572  0.000692  1.026095  0.0
H  H48  1  0.90653069  0.55262488  0.08168512  1  0.096248  0.000991  0.104418  0.112876  0.000492  0.997898  0.0
H  H49  1  0.59341965  0.44733798  0.58171162  1  0.096217  0.00099  0.104441  0.11281  0.000491  0.997944  0.0
H  H50  1  0.09363558  0.44747466  0.91836402  1  0.097704  0.00099  0.104617  0.113118  0.000491  0.99803  0.0
H  H51  1  0.40643230  0.55252091  0.41834166  1  0.097188  0.000989  0.104404  0.112927  0.000491  0.998056  0.0
H  H52  1  0.10039510  0.70090071  0.03893721  1  0.114839  0.001431  0.118278  0.090833  0.000229  1.006856  0.001
H  H53  1  0.39949050  0.29913412  0.53891153  1  0.115456  0.001429  0.11813  0.090693  0.000229  1.006526  0.001
H  H54  1  0.89963800  0.29924707  0.96109546  1  0.11554  0.00143  0.118294  0.09074  0.00023  1.006409  0.001
H  H55  1  0.60047261  0.70069987  0.46112802  1  0.114592  0.001428  0.118151  0.090792  0.00023  1.006244  0.001
H  H56  1  0.64213356  0.43851513  0.00875274  1  0.048071  -0.00072  0.101407  0.10366  -0.000587  0.982676  0.0
H  H57  1  0.85790107  0.56147573  0.50878968  1  0.048488  -0.000719  0.101457  0.10371  -0.000586  0.982856  0.0
H  H58  1  0.35804369  0.56150118  0.99128543  1  0.046642  -0.000719  0.101429  0.103601  -0.000585  0.982921  0.0
H  H59  1  0.14193680  0.43846858  0.49128076  1  0.046295  -0.000719  0.101465  0.103642  -0.000585  0.982846  0.0
H  H60  1  0.56789181  0.50353183  0.09869697  1  0.039296  -0.000787  0.101064  0.102779  -0.000637  0.971055  0.0
H  H61  1  0.93208098  0.49642861  0.59872016  1  0.038736  -0.000785  0.101119  0.102721  -0.000636  0.971033  0.0
H  H62  1  0.43229130  0.49648804  0.90133501  1  0.04  -0.000785  0.100952  0.102795  -0.000636  0.970862  0.0
H  H63  1  0.06775161  0.50351431  0.40135920  1  0.040457  -0.000784  0.100987  0.102803  -0.000636  0.970986  0.0
C  C64  1  0.22307623  0.98489650  0.75179689  1  0.495392  -0.003909  0.103755  0.055413  -0.00509  3.971883  -0.003
C  C65  1  0.27691603  0.01513243  0.25176832  1  0.495766  -0.003901  0.103566  0.054681  -0.005083  3.971385  -0.003
C  C66  1  0.77686042  0.01510545  0.24817538  1  0.494622  -0.003913  0.103525  0.055059  -0.005092  3.972093  -0.003
C  C67  1  0.72312271  0.98489819  0.74819846  1  0.495794  -0.003893  0.103621  0.054933  -0.005075  3.972207  -0.003
C  C68  1  0.32584131  0.04736753  0.69474178  1  -0.048499  0.009486  0.000774  -0.059243  0.00461  3.945171  0.007
C  C69  1  0.17413900  0.95265493  0.19472289  1  -0.049553  0.009496  0.000966  -0.058205  0.004614  3.943774  0.007
C  C70  1  0.67415917  0.95259767  0.30523736  1  -0.047766  0.00949  0.000616  -0.059306  0.00461  3.945102  0.007
C  C71  1  0.82579834  0.04741423  0.80526242  1  -0.049071  0.009494  0.000834  -0.058916  0.004613  3.943787  0.007
C  C72  1  0.42461017  0.12595121  0.73494444  1  0.040062  -0.009587  -0.07341  -0.126502  -0.010455  3.911364  -0.006
C  C73  1  0.07534437  0.87406437  0.23492575  1  0.03937  -0.009573  -0.07363  -0.126915  -0.010442  3.911337  -0.006
C  C74  1  0.57542900  0.87399339  0.26503881  1  0.040406  -0.009584  -0.073489  -0.126658  -0.010452  3.911621  -0.006
C  C75  1  0.92459514  0.12602212  0.76506437  1  0.040454  -0.009564  -0.073506  -0.126326  -0.010431  3.910968  -0.006
C  C76  1  0.42590256  0.13840366  0.83003650  1  0.000204  0.005346  0.003324  0.09427  0.002539  3.928886  0.004
C  C77  1  0.07405425  0.86159634  0.33001385  1  0.000193  0.005342  0.003353  0.094513  0.002537  3.928975  0.004
C  C78  1  0.57403723  0.86156862  0.16994607  1  -0.001806  0.005349  0.003427  0.09463  0.002541  3.928699  0.004
C  C79  1  0.92602272  0.13845344  0.66997009  1  -0.002984  0.005345  0.003195  0.094205  0.002539  3.928391  0.004
C  C80  1  0.32574207  0.06876363  0.88221674  1  0.460519  -0.00811  0.055865  0.057486  -0.008627  3.861132  -0.005
C  C81  1  0.17419314  0.93123707  0.38217168  1  0.458638  -0.008088  0.056083  0.057881  -0.008606  3.860678  -0.005
C  C82  1  0.67409635  0.93123345  0.11776035  1  0.46031  -0.008098  0.05593  0.057773  -0.008615  3.860286  -0.005
C  C83  1  0.82595866  0.06878961  0.61780127  1  0.460308  -0.008077  0.056152  0.057884  -0.008592  3.859888  -0.005
C  C84  1  0.09540097  0.90576977  0.71638179  1  1.57447  0.000948  0.206917  0.534201  0.000312  4.227789  0.001
C  C85  1  0.40462280  0.09424100  0.21630218  1  1.572951  0.000955  0.207403  0.534892  0.000313  4.227294  0.001
C  C86  1  0.90451748  0.09424680  0.28359323  1  1.576151  0.000965  0.20685  0.534062  0.000325  4.228809  0.001
C  C87  1  0.59543565  0.90575764  0.78364263  1  1.575218  0.000971  0.207335  0.534648  0.000331  4.228048  0.001
C  C88  1  0.34442192  0.03059849  0.59373344  1  1.603001  0.012628  0.229578  0.60722  0.009057  4.164815  0.01
C  C89  1  0.15558694  0.96943038  0.09368536  1  1.604496  0.012657  0.229332  0.606578  0.009084  4.163798  0.01
C  C90  1  0.65561693  0.96937719  0.40625462  1  1.603853  0.012634  0.229344  0.606758  0.009061  4.164757  0.01
C  C91  1  0.84432897  0.03062742  0.90631437  1  1.604915  0.012659  0.22966  0.606967  0.009081  4.162935  0.01
C  C92  1  0.53505358  0.21886740  0.87758839  1  -0.088398  0.000966  -0.166099  -0.159468  0.000512  3.954232  0.001
C  C93  1  0.96493201  0.78111405  0.37756308  1  -0.087916  0.000964  -0.166213  -0.159747  0.000511  3.954795  0.001
C  C94  1  0.46489684  0.78110333  0.12241958  1  -0.086589  0.000964  -0.166176  -0.15972  0.000511  3.954012  0.001
C  C95  1  0.03518110  0.21893322  0.62245724  1  -0.085263  0.000963  -0.166216  -0.159674  0.000511  3.95479  0.001
C  C96  1  0.59423082  0.30661177  0.81793861  1  -0.010173  0.000287  -0.245759  -0.348661  0.000134  3.983165  0.0
C  C97  1  0.90578125  0.69334863  0.31793729  1  -0.010347  0.000287  -0.245579  -0.348385  0.000134  3.982261  0.0
C  C98  1  0.40577213  0.69333967  0.18207965  1  -0.010939  0.000287  -0.245772  -0.348765  0.000135  3.982662  0.0
C  C99  1  0.09431467  0.30668941  0.68210294  1  -0.011551  0.000287  -0.245602  -0.349106  0.000134  3.982406  0.0
C  C100  1  0.77904306  0.74203301  0.91857413  1  0.518692  -0.010307  0.047091  0.108134  -0.011059  3.934297  -0.007
C  C101  1  0.72089051  0.25802341  0.41850881  1  0.501938  -0.010308  0.047044  0.108112  -0.011039  3.933838  -0.007
C  C102  1  0.22095208  0.25799513  0.08142628  1  0.519199  -0.010291  0.047036  0.108089  -0.01104  3.934168  -0.007
C  C103  1  0.27909325  0.74192966  0.58149367  1  0.50345  -0.010304  0.047242  0.108441  -0.011031  3.933764  -0.007
C  C104  1  0.66335797  0.66205194  0.93811321  1  -0.073688  0.005621  -0.092106  -0.196475  0.002418  3.964473  0.005
C  C105  1  0.83659321  0.33797225  0.43809993  1  -0.055931  0.005636  -0.092174  -0.196653  0.002417  3.964431  0.005
C  C106  1  0.33670713  0.33793941  0.06188034  1  -0.076351  0.005618  -0.092065  -0.196266  0.002418  3.964511  0.005
C  C107  1  0.16334130  0.66199863  0.56191970  1  -0.057273  0.005631  -0.092358  -0.196877  0.002415  3.96502  0.005
C  C108  1  0.70503248  0.59106326  0.99780759  1  -0.021306  -0.014429  0.004451  0.153748  -0.015403  3.958685  -0.009
C  C109  1  0.79493833  0.40894323  0.49781910  1  -0.022387  -0.014407  0.004393  0.153898  -0.015378  3.958556  -0.009
C  C110  1  0.29507443  0.40895155  0.00220586  1  -0.021026  -0.014402  0.004907  0.15418  -0.015374  3.958953  -0.009
C  C111  1  0.20493852  0.59100000  0.50222937  1  -0.021538  -0.01439  0.005001  0.154388  -0.01536  3.959194  -0.009
C  C112  1  0.86595894  0.60542544  0.03470197  1  -0.062108  0.006246  -0.09492  -0.207028  0.002859  3.983451  0.005
C  C113  1  0.63399894  0.39456676  0.53470746  1  -0.069262  0.006244  -0.095066  -0.207106  0.002857  3.983821  0.005
C  C114  1  0.13414446  0.39464072  0.96531766  1  -0.063188  0.006237  -0.095307  -0.207673  0.002855  3.985528  0.005
C  C115  1  0.36589243  0.60532501  0.46533895  1  -0.069039  0.006239  -0.095218  -0.207293  0.002855  3.984979  0.005
C  C116  1  0.97480956  0.68741818  0.01160597  1  0.438129  -0.009402  0.042141  0.088472  -0.010317  3.972403  -0.006
C  C117  1  0.52510273  0.31261334  0.51156934  1  0.445318  -0.009396  0.042233  0.088638  -0.010307  3.972014  -0.006
C  C118  1  0.02523639  0.31268105  0.98841229  1  0.437331  -0.009379  0.04175  0.088558  -0.010293  3.9731  -0.006
C  C119  1  0.47483587  0.68727147  0.48846334  1  0.4455  -0.009375  0.04199  0.088035  -0.010287  3.972689  -0.006
C  C120  1  0.58445120  0.50357209  0.02352011  1  -0.009777  5.2e-05  -0.153834  -0.196963  -0.000408  3.965735  0.001
C  C121  1  0.91555848  0.49640687  0.52353969  1  -0.009389  5.3e-05  -0.153923  -0.197031  -0.000407  3.965859  0.001
C  C122  1  0.41571396  0.49643566  0.97651325  1  -0.039651  5.2e-05  -0.153433  -0.196805  -0.000407  3.965256  0.001
C  C123  1  0.08431229  0.50354581  0.47652595  1  -0.040109  5.2e-05  -0.153595  -0.196838  -0.000407  3.965371  0.001
N  N124  1  0.22659514  0.99494851  0.84417134  1  -1.22117  0.048613  -0.325092  -0.27405  0.025324  3.643447  0.045
N  N125  1  0.27334872  0.00507496  0.34413883  1  -1.219307  0.04859  -0.324986  -0.274121  0.025317  3.643328  0.045
N  N126  1  0.77323308  0.00506096  0.15579956  1  -1.220935  0.048627  -0.324757  -0.273974  0.025334  3.642768  0.045
N  N127  1  0.72679672  0.99494166  0.65581970  1  -1.21974  0.04862  -0.324705  -0.273801  0.025335  3.642678  0.045
N  N128  1  0.93246921  0.75549222  0.95425388  1  -1.227485  0.048607  -0.32914  -0.235433  0.025956  3.560231  0.044
N  N129  1  0.56744035  0.24456926  0.45417776  1  -1.227576  0.048596  -0.328794  -0.235309  0.025949  3.559385  0.044
N  N130  1  0.06751752  0.24458732  0.04575751  1  -1.226876  0.048614  -0.329004  -0.235473  0.025963  3.559577  0.044
N  N131  1  0.43256112  0.75534895  0.54584119  1  -1.228281  0.048579  -0.328848  -0.235271  0.02595  3.559292  0.044
O  O132  1  0.03447450  0.84202513  0.77534859  1  -1.154799  0.081431  -0.328695  -0.579168  0.042214  2.313358  0.069
O  O133  1  0.46551836  0.15798945  0.27526485  1  -1.154064  0.081372  -0.328977  -0.579726  0.042193  2.313493  0.069
O  O134  1  0.96530930  0.15800645  0.22461477  1  -1.154983  0.081367  -0.328934  -0.579286  0.042191  2.313987  0.069
O  O135  1  0.53468228  0.84199484  0.72466554  1  -1.154604  0.081319  -0.329006  -0.579503  0.042172  2.314235  0.069
O  O136  1  0.05337038  0.90649435  0.63317916  1  -1.158442  0.012399  -0.292616  -0.495112  0.006056  2.198583  0.01
O  O137  1  0.44664236  0.09344935  0.13309932  1  -1.158512  0.012375  -0.292652  -0.495095  0.006044  2.198559  0.01
O  O138  1  0.94665696  0.09347494  0.36678556  1  -1.159054  0.012415  -0.292294  -0.494688  0.006063  2.198877  0.01
O  O139  1  0.55328273  0.90659680  0.86683246  1  -1.159167  0.012404  -0.292698  -0.495044  0.006057  2.198462  0.01
O  O140  1  0.39163343  0.95245219  0.56766189  1  -1.16057  0.081871  -0.301898  -0.565378  0.041721  2.471937  0.067
O  O141  1  0.10839945  0.04758452  0.06760985  1  -1.160901  0.081903  -0.301783  -0.565173  0.041737  2.472639  0.067
O  O142  1  0.60840300  0.04750978  0.43233784  1  -1.16103  0.081931  -0.301726  -0.564894  0.041741  2.472175  0.067
O  O143  1  0.89151567  0.95248413  0.93240567  1  -1.160589  0.081895  -0.301976  -0.565261  0.041738  2.472649  0.067
O  O144  1  0.31954057  0.09963159  0.54097014  1  -1.145344  0.080511  -0.296264  -0.524709  0.041989  2.344871  0.066
O  O145  1  0.18044423  0.90036742  0.04094366  1  -1.146233  0.080603  -0.296299  -0.524652  0.042046  2.344843  0.066
O  O146  1  0.68049915  0.90032890  0.45901655  1  -1.145783  0.080557  -0.29625  -0.524644  0.042007  2.344726  0.066
O  O147  1  0.81946326  0.09971865  0.95903204  1  -1.147177  0.080629  -0.29638  -0.524726  0.042047  2.34421  0.066
O  O148  1  0.28221648  0.78501006  0.89369303  1  -1.232167  0.05884  -0.570766  -0.748821  0.030505  2.096812  0.048
O  O149  1  0.21772743  0.21502859  0.39358935  1  -1.231482  0.058794  -0.570593  -0.748963  0.030504  2.096299  0.048
O  O150  1  0.71768591  0.21505220  0.10626757  1  -1.232539  0.058814  -0.570819  -0.748638  0.030518  2.097174  0.048
O  O151  1  0.78234706  0.78493809  0.60634654  1  -1.232105  0.058812  -0.570598  -0.749046  0.03052  2.096465  0.048
