# generated using pymatgen
data_CdH8C14(SN3)2
_symmetry_space_group_name_H-M   'P 1'
_cell_length_a   5.67308267
_cell_length_b   8.85338568
_cell_length_c   17.73132708
_cell_angle_alpha   90.00155174
_cell_angle_beta   89.99930275
_cell_angle_gamma   112.14232886
_symmetry_Int_Tables_number   1
_chemical_formula_structural   CdH8C14(SN3)2
_chemical_formula_sum   'Cd2 H16 C28 S4 N12'
_cell_volume   824.89402948
_cell_formula_units_Z   2
loop_
 _symmetry_equiv_pos_site_id
 _symmetry_equiv_pos_as_xyz
  1  'x, y, z'
loop_
 _atom_site_type_symbol
 _atom_site_label
 _atom_site_symmetry_multiplicity
 _atom_site_fract_x
 _atom_site_fract_y
 _atom_site_fract_z
 _atom_site_occupancy
 _atom_site_hle17_bader_spin_density
 _atom_site_hle17_ddec_charge
 _atom_site_hle17_ddec_spin_density
 _atom_site_hle17_ddec_sum_bond_order
 _atom_site_hle17_magmom
 _atom_site_hse06_10hf_bader_spin_density
 _atom_site_hse06_10hf_ddec_charge
 _atom_site_hse06_10hf_ddec_spin_density
 _atom_site_hse06_10hf_ddec_sum_bond_order
 _atom_site_hse06_10hf_magmom
 _atom_site_hse06_bader_spin_density
 _atom_site_hse06_ddec_charge
 _atom_site_hse06_ddec_spin_density
 _atom_site_hse06_ddec_sum_bond_order
 _atom_site_hse06_magmom
 _atom_site_pbe_bader_spin_density
 _atom_site_pbe_cm5_charge
 _atom_site_pbe_ddec_charge
 _atom_site_pbe_ddec_spin_density
 _atom_site_pbe_ddec_sum_bond_order
 _atom_site_pbe_magmom
Cd  Cd0  1  0.00000364  0.99999845  0.00000220  1  0  0.946978  0  1.987836  0  0  0.763434  0  2.450731  0  0  0.809249  0  2.414378  0  0  0.723443  0.731572  0  2.475009  0
Cd  Cd1  1  0.50001107  0.50000458  0.50000111  1  0  0.947012  0  1.987804  0  0  0.763453  0  2.450741  0  0  0.809267  0  2.414394  0  0  0.723457  0.731588  0  2.475021  0
H  H2  1  0.29509457  0.20693030  0.86165096  1  0  0.090661  0  0.977017  0  0  0.093548  0  1.048932  0  0  0.096213  0  1.046655  0  0  0.11264  0.091631  0  1.050572  0
H  H3  1  0.79507162  0.70693803  0.63834750  1  0  0.09062  0  0.977112  0  0  0.093762  0  1.048765  0  0  0.096444  0  1.046444  0  0  0.112691  0.091843  0  1.050386  0
H  H4  1  0.70491448  0.79306773  0.13834731  1  0  0.090652  0  0.977082  0  0  0.093617  0  1.048891  0  0  0.096281  0  1.046614  0  0  0.112662  0.091699  0  1.050532  0
H  H5  1  0.20491774  0.29306922  0.36165360  1  0  0.090701  0  0.977111  0  0  0.093647  0  1.048913  0  0  0.096309  0  1.046638  0  0  0.112673  0.091734  0  1.050536  0
H  H6  1  0.32154586  0.43430127  0.77494770  1  0  0.124278  0  0.950927  0  0  0.129311  0  1.01748  0  0  0.133176  0  1.015458  0  0  0.11064  0.126528  0  1.019052  0
H  H7  1  0.82149554  0.93431658  0.72505371  1  0  0.124319  0  0.950757  0  0  0.129335  0  1.017321  0  0  0.133192  0  1.015325  0  0  0.110632  0.126561  0  1.018863  0
H  H8  1  0.67847323  0.56569578  0.22505113  1  0  0.124312  0  0.950902  0  0  0.129352  0  1.017453  0  0  0.133234  0  1.015412  0  0  0.110682  0.126577  0  1.018997  0
H  H9  1  0.17847552  0.06569269  0.27494626  1  0  0.12433  0  0.950806  0  0  0.12936  0  1.017375  0  0  0.133244  0  1.015335  0  0  0.11065  0.126586  0  1.018917  0
H  H10  1  0.74744346  0.51379116  0.91300932  1  0  0.115611  0  0.942772  0  0  0.125569  0  1.002172  0  0  0.128785  0  1.001602  0  0  0.10941  0.123263  0  1.002717  0
H  H11  1  0.24741036  0.01379430  0.58699293  1  0  0.115786  0  0.942784  0  0  0.125801  0  1.002098  0  0  0.129016  0  1.00153  0  0  0.109543  0.123493  0  1.002647  0
H  H12  1  0.25256321  0.48619598  0.08699065  1  0  0.115809  0  0.942731  0  0  0.125783  0  1.002103  0  0  0.128998  0  1.001532  0  0  0.109495  0.123475  0  1.00265  0
H  H13  1  0.75256881  0.98620069  0.41300591  1  0  0.115735  0  0.942749  0  0  0.125724  0  1.002093  0  0  0.128937  0  1.001526  0  0  0.109461  0.123415  0  1.002643  0
H  H14  1  0.74663091  0.28230856  0.99409870  1  0  0.073592  0  0.978589  0  0  0.079422  0  1.04876  0  0  0.080717  0  1.048809  0  0  0.10918  0.078432  0  1.048806  0
H  H15  1  0.24658952  0.78230201  0.50590094  1  0  0.073514  0  0.978663  0  0  0.079356  0  1.048806  0  0  0.080678  0  1.048786  0  0  0.109109  0.078368  0  1.048854  0
H  H16  1  0.25337998  0.71767987  0.00590013  1  0  0.07357  0  0.978654  0  0  0.079382  0  1.048822  0  0  0.080702  0  1.048801  0  0  0.109153  0.078394  0  1.048872  0
H  H17  1  0.75337762  0.21769030  0.49409507  1  0  0.07345  0  0.978704  0  0  0.079279  0  1.048876  0  0  0.080602  0  1.048834  0  0  0.109114  0.078292  0  1.048925  0
C  C18  1  0.45575898  0.91416271  0.90833946  1  0  0.303015  0  4.018249  0  0  0.281531  0  4.322552  0  0  0.303759  0  4.336765  0  0  0.144358  0.266445  0  4.312513  0
C  C19  1  0.95576733  0.41418113  0.59166458  1  0  0.302819  0  4.017322  0  0  0.281331  0  4.321704  0  0  0.303565  0  4.335925  0  0  0.144232  0.266241  0  4.311663  0
C  C20  1  0.54424604  0.08583764  0.09165825  1  0  0.303025  0  4.018041  0  0  0.281538  0  4.322362  0  0  0.303768  0  4.336572  0  0  0.144434  0.266453  0  4.312323  0
C  C21  1  0.04427265  0.58582841  0.40833877  1  0  0.303117  0  4.018518  0  0  0.281618  0  4.322833  0  0  0.303848  0  4.337051  0  0  0.144442  0.266531  0  4.312796  0
C  C22  1  0.17927568  0.27928267  0.87142871  1  0  0.131682  0  3.682199  0  0  0.102064  0  3.933764  0  0  0.108223  0  3.951483  0  0  0.049896  0.098065  0  3.92162  0
C  C23  1  0.67924900  0.77929582  0.62857453  1  0  0.131587  0  3.682239  0  0  0.101755  0  3.933696  0  0  0.107912  0  3.951428  0  0  0.04978  0.097767  0  3.921549  0
C  C24  1  0.82073092  0.72071411  0.12857182  1  0  0.131612  0  3.682353  0  0  0.101974  0  3.933866  0  0  0.108132  0  3.95159  0  0  0.049849  0.097974  0  3.921725  0
C  C25  1  0.32072410  0.22070746  0.37142656  1  0  0.131464  0  3.682705  0  0  0.101902  0  3.93414  0  0  0.10806  0  3.95187  0  0  0.049821  0.097905  0  3.921999  0
C  C26  1  0.19395124  0.40624873  0.82326506  1  0  -0.126715  0  3.675743  0  0  -0.151114  0  3.92641  0  0  -0.156851  0  3.945263  0  0  -0.066244  -0.147386  0  3.913822  0
C  C27  1  0.69389602  0.90626140  0.67673645  1  0  -0.126602  0  3.675778  0  0  -0.150997  0  3.92634  0  0  -0.156744  0  3.945198  0  0  -0.06612  -0.14726  0  3.913748  0
C  C28  1  0.80606025  0.59375056  0.17673321  1  0  -0.12664  0  3.675851  0  0  -0.151117  0  3.92652  0  0  -0.15687  0  3.945362  0  0  -0.06626  -0.147383  0  3.913933  0
C  C29  1  0.30607345  0.09375145  0.32326295  1  0  -0.126629  0  3.676047  0  0  -0.151142  0  3.926636  0  0  -0.156901  0  3.945477  0  0  -0.066217  -0.14741  0  3.914052  0
C  C30  1  0.03728619  0.49306324  0.83809449  1  0  0.085646  0  3.859644  0  0  0.100486  0  4.091078  0  0  0.103613  0  4.109654  0  0  0.027532  0.098496  0  4.07856  0
C  C31  1  0.53724094  0.99307052  0.66190650  1  0  0.085528  0  3.859679  0  0  0.100471  0  4.090948  0  0  0.103596  0  4.109526  0  0  0.027364  0.098477  0  4.078436  0
C  C32  1  0.96271996  0.50693594  0.16190604  1  0  0.085573  0  3.859545  0  0  0.1005  0  4.090888  0  0  0.103627  0  4.109467  0  0  0.027482  0.09851  0  4.078374  0
C  C33  1  0.46272608  0.00694107  0.33809628  1  0  0.085481  0  3.859755  0  0  0.100508  0  4.090943  0  0  0.103634  0  4.109527  0  0  0.027455  0.098517  0  4.078425  0
C  C34  1  0.87276924  0.44940937  0.90027921  1  0  -0.126997  0  3.666714  0  0  -0.146029  0  3.910279  0  0  -0.152353  0  3.929557  0  0  -0.066662  -0.141906  0  3.897363  0
C  C35  1  0.37274165  0.94941528  0.59972617  1  0  -0.127022  0  3.667027  0  0  -0.146162  0  3.91054  0  0  -0.152489  0  3.929825  0  0  -0.066754  -0.142039  0  3.897629  0
C  C36  1  0.12724007  0.55058265  0.09971963  1  0  -0.127149  0  3.666843  0  0  -0.146226  0  3.910368  0  0  -0.152552  0  3.929646  0  0  -0.066717  -0.142102  0  3.897454  0
C  C37  1  0.62724572  0.05058831  0.40027492  1  0  -0.12705  0  3.666998  0  0  -0.146157  0  3.910482  0  0  -0.152488  0  3.929763  0  0  -0.066704  -0.142035  0  3.897573  0
C  C38  1  0.87218322  0.32076354  0.94536352  1  0  0.13406  0  3.701735  0  0  0.10452  0  3.952875  0  0  0.110513  0  3.972657  0  0  0.048904  0.100572  0  3.939444  0
C  C39  1  0.37214872  0.82076331  0.55463957  1  0  0.134013  0  3.702177  0  0  0.104493  0  3.953273  0  0  0.11049  0  3.973076  0  0  0.048994  0.100541  0  3.939844  0
C  C40  1  0.12782384  0.67923084  0.05463757  1  0  0.133987  0  3.702201  0  0  0.104486  0  3.953334  0  0  0.110486  0  3.973128  0  0  0.048899  0.100534  0  3.939907  0
C  C41  1  0.62782286  0.17923392  0.44536040  1  0  0.134094  0  3.702097  0  0  0.104548  0  3.953295  0  0  0.110559  0  3.973086  0  0  0.048918  0.100595  0  3.939869  0
C  C42  1  0.04493782  0.62416060  0.79021795  1  0  0.28082  0  3.690262  0  0  0.268217  0  3.956362  0  0  0.278063  0  3.972989  0  0  0.19975  0.261522  0  3.94518  0
C  C43  1  0.54490322  0.12416985  0.70978483  1  0  0.280835  0  3.68998  0  0  0.268186  0  3.956048  0  0  0.278035  0  3.972672  0  0  0.199886  0.261492  0  3.944865  0
C  C44  1  0.95507949  0.37583641  0.20978033  1  0  0.280807  0  3.690176  0  0  0.268183  0  3.956242  0  0  0.278029  0  3.972867  0  0  0.199817  0.261485  0  3.945062  0
C  C45  1  0.45510153  0.87583653  0.29021513  1  0  0.280802  0  3.68987  0  0  0.268142  0  3.955914  0  0  0.277988  0  3.972544  0  0  0.199818  0.261446  0  3.944732  0
S  S46  1  0.65755703  0.82961516  0.88765648  1  0  -0.341126  0  2.119903  0  0  -0.312927  0  2.43694  0  0  -0.330612  0  2.432788  0  0  -0.148187  -0.300377  0  2.439385  0
S  S47  1  0.15757842  0.32960995  0.61235203  1  0  -0.34096  0  2.119215  0  0  -0.312774  0  2.436273  0  0  -0.330466  0  2.432124  0  0  -0.148115  -0.300225  0  2.438721  0
S  S48  1  0.34244528  0.17038996  0.11234856  1  0  -0.341103  0  2.119728  0  0  -0.312909  0  2.436763  0  0  -0.330583  0  2.4326  0  0  -0.148198  -0.300361  0  2.439204  0
S  S49  1  0.84246684  0.67037681  0.38765245  1  0  -0.341111  0  2.119709  0  0  -0.312939  0  2.436788  0  0  -0.330621  0  2.432625  0  0  -0.148209  -0.300391  0  2.439232  0
N  N50  1  0.31014438  0.97678543  0.92306549  1  0  -0.537661  0  2.894027  0  0  -0.479281  0  3.169952  0  0  -0.500897  0  3.177055  0  0  -0.394373  -0.464466  0  3.164866  0
N  N51  1  0.81012564  0.47680489  0.57693540  1  0  -0.537592  0  2.893762  0  0  -0.479213  0  3.169709  0  0  -0.50084  0  3.176818  0  0  -0.394286  -0.464398  0  3.164621  0
N  N52  1  0.68986090  0.02320892  0.07693842  1  0  -0.537698  0  2.894018  0  0  -0.479329  0  3.169962  0  0  -0.500947  0  3.177064  0  0  -0.394445  -0.46452  0  3.16488  0
N  N53  1  0.18988044  0.52320392  0.42306456  1  0  -0.537744  0  2.894418  0  0  -0.47934  0  3.170307  0  0  -0.500962  0  3.177415  0  0  -0.394423  -0.464529  0  3.165224  0
N  N54  1  0.02305519  0.23773853  0.93157762  1  0  -0.317798  0  3.250635  0  0  -0.239754  0  3.505904  0  0  -0.258452  0  3.526656  0  0  -0.320137  -0.226935  0  3.491474  0
N  N55  1  0.52301750  0.73774347  0.56842619  1  0  -0.31776  0  3.250694  0  0  -0.239749  0  3.506009  0  0  -0.258452  0  3.526769  0  0  -0.320152  -0.226929  0  3.491577  0
N  N56  1  0.97695300  0.76225467  0.06842516  1  0  -0.317684  0  3.250809  0  0  -0.239673  0  3.506073  0  0  -0.258376  0  3.52683  0  0  -0.320098  -0.226856  0  3.49165  0
N  N57  1  0.47695831  0.26225506  0.43156869  1  0  -0.317577  0  3.25088  0  0  -0.239613  0  3.506168  0  0  -0.258318  0  3.526927  0  0  -0.320056  -0.226795  0  3.491739  0
N  N58  1  0.05213644  0.73255238  0.75168234  1  0  -0.36257  0  2.580287  0  0  -0.3373  0  2.801289  0  0  -0.348557  0  2.815993  0  0  -0.278438  -0.329693  0  2.791412  0
N  N59  1  0.55213064  0.23257511  0.74831735  1  0  -0.362592  0  2.58025  0  0  -0.337301  0  2.801247  0  0  -0.348556  0  2.815947  0  0  -0.278508  -0.329693  0  2.791373  0
N  N60  1  0.94785278  0.26744161  0.24831875  1  0  -0.362572  0  2.580283  0  0  -0.337285  0  2.80126  0  0  -0.348543  0  2.815972  0  0  -0.278492  -0.329679  0  2.791384  0
N  N61  1  0.44785760  0.76743331  0.25167585  1  0  -0.362546  0  2.580191  0  0  -0.337258  0  2.801188  0  0  -0.348516  0  2.815896  0  0  -0.27847  -0.32965  0  2.791313  0
