# generated using pymatgen
data_Al2H31C38(N3O7)3
_symmetry_space_group_name_H-M   'P 1'
_cell_length_a   6.64933818
_cell_length_b   23.71344142
_cell_length_c   30.21827347
_cell_angle_alpha   89.49294713
_cell_angle_beta   90.71214173
_cell_angle_gamma   88.98397592
_symmetry_Int_Tables_number   1
_chemical_formula_structural   Al2H31C38(N3O7)3
_chemical_formula_sum   'Al4 H62 C76 N18 O42'
_cell_volume   4763.46465688
_cell_formula_units_Z   2
loop_
 _symmetry_equiv_pos_site_id
 _symmetry_equiv_pos_as_xyz
  1  'x, y, z'
loop_
 _atom_site_type_symbol
 _atom_site_label
 _atom_site_symmetry_multiplicity
 _atom_site_fract_x
 _atom_site_fract_y
 _atom_site_fract_z
 _atom_site_occupancy
 _atom_site_pbe_bader_charge
 _atom_site_pbe_bader_spin_density
 _atom_site_pbe_cm5_charge
 _atom_site_pbe_ddec_charge
 _atom_site_pbe_ddec_spin_density
 _atom_site_pbe_ddec_sum_bond_order
 _atom_site_pbe_magmom
Al  Al0  1  0.22117678  0.74792510  0.25265259  1  2.502359  0  0.398759  1.632875  0  2.569509  0
Al  Al1  1  0.80047161  0.24726754  0.74805172  1  2.503641  0  0.399946  1.640959  0  2.572319  0
Al  Al2  1  0.72074010  0.74081867  0.25275638  1  2.500517  0  0.394776  1.62697  0  2.58683  0
Al  Al3  1  0.30294095  0.25527163  0.75229390  1  2.503838  0  0.399166  1.637851  0  2.58517  0
H  H4  1  0.68699278  0.66860888  0.12880732  1  0.137512  0  0.118969  0.150432  0  0.982466  0
H  H5  1  0.31735077  0.33118050  0.87480039  1  0.121301  0  0.116899  0.143189  0  0.98414  0
H  H6  1  0.77494635  0.05987780  0.58493481  1  0.05004  0  0.110508  0.124985  0  1.048535  0
H  H7  1  0.41212248  0.97403339  0.38374132  1  0.050462  0  0.11023  0.134435  0  1.000012  0
H  H8  1  0.27706256  0.10484339  0.93614403  1  0.066989  0  0.104985  0.130409  0  1.004369  0
H  H9  1  0.76602349  0.87314656  0.06084130  1  0.027535  0  0.096068  0.116851  0  1.019717  0
H  H10  1  0.81041343  0.98772789  0.05752484  1  0.070509  0  0.095962  0.109198  0  1.022309  0
H  H11  1  0.27050912  0.00266178  0.94415993  1  0.069007  0  0.09945  0.113651  0  1.01763  0
H  H12  1  0.38003477  0.68276737  0.40940870  1  0.622534  0  0.298999  0.319863  0  0.982679  0
H  H13  1  0.73137954  0.30720327  0.65820084  1  0.658025  0  0.31598  0.359847  0  0.965926  0
H  H14  1  0.68744087  0.40315569  0.02656336  1  0.608523  0  0.33798  0.372362  0  0.872083  0
H  H15  1  0.22713450  0.61493366  0.02406250  1  0.606756  0  0.334814  0.378397  0  0.870276  0
H  H16  1  0.19954026  0.22155633  0.65031696  1  0.459868  0  0.306666  0.300162  0  0.985571  0
H  H17  1  0.07188186  0.19258902  0.60486851  1  0.473528  0  0.309297  0.303136  0  0.951575  0
H  H18  1  0.67752697  0.74517087  0.37243504  1  0.44912  0  0.30133  0.299193  0  0.970371  0
H  H19  1  0.75695744  0.76000769  0.42382067  1  0.413462  0  0.302961  0.284117  0  0.952304  0
H  H20  1  0.06868432  0.08943030  0.54508487  1  0.49927  0  0.290455  0.2964  0  1.019577  0
H  H21  1  0.99286258  0.10895029  0.59760607  1  0.471059  0  0.284868  0.275861  0  1.04621  0
H  H22  1  0.64435022  0.84136822  0.50066221  1  0.484984  0  0.285339  0.286827  0  1.033206  0
H  H23  1  0.57796089  0.77953449  0.47589406  1  0.412704  0  0.293575  0.280502  0  0.985036  0
H  H24  1  0.85024690  0.14430345  0.67610760  1  0.633476  0  0.308192  0.346407  0  0.975655  0
H  H25  1  0.29044312  0.88340350  0.29660605  1  0.621854  0  0.313658  0.358238  0  0.938729  0
H  H26  1  0.67920803  0.99627479  0.60217228  1  0.60274  0  0.309594  0.354541  0  0.933558  0
H  H27  1  0.18586536  0.96585377  0.41729523  1  0.617196  0  0.31256  0.357719  0  0.927927  0
H  H28  1  0.83540355  0.91760841  0.53791709  1  0.631213  0  0.333657  0.37134  0  0.888419  0
H  H29  1  0.12213024  0.06774854  0.46514151  1  0.643733  0  0.333983  0.373912  0  0.891102  0
H  H30  1  0.24679945  0.18843593  0.83958815  1  0.652939  0  0.316394  0.359377  0  0.956413  0
H  H31  1  0.87573777  0.80379771  0.10570638  1  0.592321  0  0.33428  0.361214  0  0.874358  0
H  H32  1  0.96863421  0.03385965  0.87252842  1  0.61709  0  0.320695  0.350233  0  0.918928  0
H  H33  1  0.25851434  0.00059010  0.08324690  1  0.61475  0  0.323256  0.351062  0  0.908467  0
H  H34  1  0.30745106  0.60878066  0.48210622  1  0.415686  0  0.292773  0.287846  0  0.947178  0
H  H35  1  0.45358821  0.58940419  0.44110001  1  0.45642  0  0.278425  0.273955  0  1.018952  0
H  H36  1  0.67913801  0.40634058  0.52725064  1  0.526214  0  0.299112  0.285985  0  1.033944  0
H  H37  1  0.59154435  0.35533219  0.56471080  1  0.453172  0  0.312526  0.314264  0  0.937762  0
H  H38  1  0.03453521  0.11449259  0.84902662  1  0.466921  0  0.287222  0.281578  0  1.016642  0
H  H39  1  0.89616590  0.12732954  0.80459872  1  0.464331  0  0.297589  0.306192  0  0.971227  0
H  H40  1  0.07161309  0.93317875  0.16532790  1  0.468064  0  0.314144  0.317675  0  0.934217  0
H  H41  1  0.13940727  0.87202662  0.19459285  1  0.478999  0  0.306968  0.30766  0  0.977472  0
H  H42  1  0.00362946  0.04713666  0.01506281  1  0.420159  0  0.290916  0.280367  0  0.971032  0
H  H43  1  0.95134526  0.06290692  0.96193129  1  0.455667  0  0.285179  0.279597  0  1.025784  0
H  H44  1  0.14699255  0.91956517  0.03952244  1  0.442302  0  0.286626  0.274564  0  1.012255  0
H  H45  1  0.06749670  0.94624540  0.99041342  1  0.434555  0  0.295951  0.294026  0  0.961368  0
H  H46  1  0.70242149  0.51509220  0.43287570  1  0.633161  0  0.301356  0.301981  0  1.051582  0
H  H47  1  0.41667118  0.46222145  0.62261038  1  0.619955  0  0.31121  0.341524  0  0.933535  0
H  H48  1  0.54080790  0.58450121  0.35024462  1  0.469103  0  0.310584  0.310927  0  0.946013  0
H  H49  1  0.62722353  0.63775334  0.31468080  1  0.521372  0  0.312141  0.323953  0  0.967866  0
H  H50  1  0.36162416  0.38259167  0.69588923  1  0.465081  0  0.295196  0.305133  0  0.961536  0
H  H51  1  0.50238794  0.38066814  0.65184611  1  0.456621  0  0.281953  0.275149  0  1.016283  0
H  H52  1  0.39795563  0.57400731  0.15914427  1  0.62475  0  0.317232  0.341683  0  0.926492  0
H  H53  1  0.59507051  0.41563115  0.83951256  1  0.606403  0  0.313947  0.341584  0  0.935471  0
H  H54  1  0.30758601  0.50702018  0.07884324  1  0.41706  0  0.291314  0.291071  0  0.95091  0
H  H55  1  0.45024131  0.56285378  0.08618947  1  0.462334  0  0.278121  0.266895  0  1.045668  0
H  H56  1  0.53984108  0.43296833  0.91255459  1  0.473923  0  0.281626  0.282112  0  1.024577  0
H  H57  1  0.67361793  0.49119785  0.91106215  1  0.411298  0  0.289384  0.281367  0  0.959548  0
H  H58  1  0.68638531  0.58689164  0.03029068  1  0.624068  0  0.319306  0.346982  0  0.912426  0
H  H59  1  0.29651856  0.41864481  0.96904558  1  0.584257  0  0.317173  0.336284  0  0.928446  0
H  H60  1  0.77012258  0.49701697  0.09415698  1  0.621195  0  0.333314  0.373586  0  0.872881  0
H  H61  1  0.29476388  0.55996954  0.93298210  1  0.63892  0  0.336848  0.372995  0  0.873017  0
H  H62  1  0.45610130  0.67851410  0.22768113  1  0.627974  0  0.342919  0.42439  0  0.874148  0
H  H63  1  0.57445231  0.31678924  0.77429163  1  0.630402  0  0.344012  0.42779  0  0.874569  0
H  H64  1  0.94090086  0.81096057  0.23020926  1  0.615847  0  0.342039  0.413739  0  0.887345  0
H  H65  1  0.08011833  0.18324296  0.72898876  1  0.603782  0  0.348882  0.423278  0  0.864577  0
C  C66  1  0.48262787  0.80343148  0.31634527  1  1.52963  0  0.274644  0.682574  0  4.052166  0
C  C67  1  0.53618946  0.18825971  0.68588150  1  1.439311  0  0.252082  0.656795  0  4.075906  0
C  C68  1  0.46622668  0.81321954  0.19207397  1  1.552456  0  0.264639  0.685935  0  4.055209  0
C  C69  1  0.56155845  0.17892978  0.80944574  1  1.476004  0  0.261605  0.664041  0  4.073387  0
C  C70  1  0.97023738  0.68030399  0.19042382  1  1.630203  0  0.267739  0.65706  0  4.089867  0
C  C71  1  0.04199997  0.31370225  0.81217991  1  1.549835  0  0.272313  0.671166  0  4.071406  0
C  C72  1  0.99210498  0.68082539  0.31391227  1  1.507996  0  0.263107  0.667199  0  4.068943  0
C  C73  1  0.04064302  0.32128337  0.68946483  1  1.489819  0  0.260169  0.651891  0  4.071092  0
C  C74  1  0.15190252  0.64786849  0.38594355  1  0.56044  0  0.074464  0.212995  0  4.083481  0
C  C75  1  0.87321684  0.35575018  0.62003637  1  0.514919  0  0.066886  0.176266  0  4.040863  0
C  C76  1  0.16656297  0.60977540  0.42143744  1  0.35454  0  0.039065  0.076959  0  4.087449  0
C  C77  1  0.86808670  0.38601188  0.57932933  1  0.526771  0  0.0994  0.189036  0  4.076863  0
C  C78  1  0.00943635  0.57068581  0.42843213  1  0.0207  0  -0.030232  -0.184627  0  4.073262  0
C  C79  1  0.03407000  0.42106247  0.56855720  1  0.04149  0  -0.024823  -0.185026  0  3.971084  0
C  C80  1  0.83442343  0.57447950  0.40143472  1  0.504637  0  0.071256  0.16546  0  4.011873  0
C  C81  1  0.19600226  0.42438342  0.59962320  1  0.515874  0  0.068503  0.17757  0  4.079723  0
C  C82  1  0.82294252  0.61133412  0.36389908  1  0.52324  0  0.103486  0.215487  0  4.08084  0
C  C83  1  0.20592047  0.39138573  0.63823560  1  0.395083  0  0.052873  0.123741  0  4.088121  0
C  C84  1  0.98830477  0.64697521  0.35481364  1  0.021599  0  -0.041478  -0.27324  0  3.937813  0
C  C85  1  0.04083496  0.35662781  0.64917074  1  -0.014275  0  -0.043828  -0.264904  0  4.035123  0
C  C86  1  0.03635194  0.45285219  0.52733087  1  0.923271  0  0.232067  0.265937  0  3.972708  0
C  C87  1  0.02675846  0.52546010  0.46121806  1  0.926463  0  0.230766  0.262432  0  3.994584  0
C  C88  1  0.15555234  0.60974205  0.14184243  1  0.543125  0  0.083307  0.205032  0  4.027348  0
C  C89  1  0.84174747  0.38376937  0.85720352  1  0.499797  0  0.086393  0.21029  0  4.016693  0
C  C90  1  0.15812110  0.57501297  0.10398306  1  0.323898  0  0.062515  0.112962  0  4.085685  0
C  C91  1  0.83129341  0.42083293  0.89358355  1  0.408655  0  0.073458  0.13172  0  4.037516  0
C  C92  1  0.98978877  0.57341897  0.07529027  1  -0.025461  0  -0.049359  -0.169321  0  4.137322  0
C  C93  1  0.99491035  0.42569115  0.92277113  1  0.047631  0  -0.023077  -0.083933  0  3.99888  0
C  C94  1  0.82016229  0.60784824  0.08467676  1  0.376745  0  0.054775  0.223057  0  4.130483  0
C  C95  1  0.16926635  0.39244048  0.91568264  1  0.436614  0  0.067006  0.24307  0  4.089143  0
C  C96  1  0.81746647  0.64193330  0.12169732  1  0.01152  0  -0.102231  -0.212806  0  3.99127  0
C  C97  1  0.18189377  0.35662686  0.87992984  1  0.040046  0  -0.099794  -0.206814  0  3.986847  0
C  C98  1  0.98400735  0.64321526  0.15070911  1  0.034745  0  -0.017647  -0.113236  0  3.95481  0
C  C99  1  0.01893348  0.35188699  0.85016959  1  0.035011  0  -0.025968  -0.140977  0  4.008773  0
C  C100  1  0.86317611  0.48955296  0.03399862  1  0.480505  0  0.041199  0.103911  0  4.164891  0
C  C101  1  0.11294031  0.51177827  0.96271315  1  0.465361  0  0.054573  0.130399  0  4.133655  0
C  C102  1  0.86334790  0.45360020  0.99742281  1  0.461059  0  0.059228  0.148575  0  4.128276  0
C  C103  1  0.11444789  0.54699471  0.99974506  1  0.496083  0  0.043659  0.118823  0  4.164344  0
C  C104  1  0.98835196  0.46431480  0.96111963  1  0.089197  0  -0.033845  -0.127906  0  4.065943  0
C  C105  1  0.98892223  0.53660203  0.03586898  1  -0.043221  0  -0.055301  -0.170547  0  4.202152  0
C  C106  1  0.32708427  0.15095955  0.62327978  1  0.459469  0  0.115117  0.250712  0  4.007014  0
C  C107  1  0.55641195  0.81661216  0.39772463  1  0.366798  0  0.098956  0.215208  0  4.017843  0
C  C108  1  0.29292047  0.10982628  0.58952520  1  0.479192  0  0.079334  0.131938  0  4.009002  0
C  C109  1  0.53588274  0.84939387  0.43681263  1  0.502064  0  0.078795  0.137554  0  4.030234  0
C  C110  1  0.45273181  0.07473939  0.57543504  1  0.000456  0  -0.010897  0.051306  0  3.975873  0
C  C111  1  0.48581199  0.90747713  0.43239540  1  0.022201  0  -0.017546  0.032218  0  3.985105  0
C  C112  1  0.64109005  0.08055234  0.59781366  1  -0.035606  0  -0.14636  -0.359076  0  4.068265  0
C  C113  1  0.42916724  0.92882914  0.38986532  1  -0.040739  0  -0.134879  -0.336023  0  4.04884  0
C  C114  1  0.66682061  0.11447596  0.63427152  1  0.453447  0  0.070546  0.310746  0  4.13056  0
C  C115  1  0.40422575  0.89339916  0.35395812  1  0.5105  0  0.073534  0.310621  0  4.133066  0
C  C116  1  0.50989559  0.15146881  0.64837292  1  0.032837  0  -0.058806  -0.324807  0  4.012175  0
C  C117  1  0.47731607  0.83705237  0.35704638  1  0.021114  0  -0.043866  -0.288838  0  3.980024  0
C  C118  1  0.57650425  0.98319003  0.54281455  1  0.462928  0  0.048812  0.122786  0  4.087749  0
C  C119  1  0.32308856  0.98964698  0.47061111  1  0.42803  0  0.051265  0.122592  0  4.110795  0
C  C120  1  0.60350921  0.94635507  0.50727743  1  0.460616  0  0.055978  0.145166  0  4.067388  0
C  C121  1  0.32016531  0.03261199  0.50214893  1  0.495525  0  0.055002  0.142651  0  4.074361  0
C  C122  1  0.47333636  0.94671702  0.47010278  1  0.124421  0  -0.028573  -0.110492  0  4.019539  0
C  C123  1  0.44406608  0.03099635  0.54057339  1  0.077666  0  -0.03666  -0.133964  0  4.012107  0
C  C124  1  0.39789355  0.13746154  0.87625901  1  0.467249  0  0.07625  0.299495  0  4.105179  0
C  C125  1  0.63760066  0.84466601  0.12218688  1  0.454584  0  0.0699  0.293948  0  4.1402  0
C  C126  1  0.40441980  0.10337931  0.91384596  1  0.036591  0  -0.121427  -0.288625  0  4.002512  0
C  C127  1  0.64870460  0.87994778  0.08529698  1  -0.009674  0  -0.141133  -0.330914  0  4.076058  0
C  C128  1  0.57200168  0.06825144  0.92396276  1  -0.007185  0  -0.007136  0.036227  0  4.013148  0
C  C129  1  0.50341596  0.92299866  0.07784435  1  -0.003885  0  -0.026272  0.011494  0  4.09121  0
C  C130  1  0.73495679  0.06960580  0.89504489  1  0.478977  0  0.058293  0.123075  0  4.023801  0
C  C131  1  0.34960978  0.93004296  0.10835890  1  0.453407  0  0.047178  0.098764  0  4.056288  0
C  C132  1  0.73717709  0.10591492  0.85793879  1  0.407392  0  0.088096  0.199211  0  4.062964  0
C  C133  1  0.33023551  0.89360342  0.14525948  1  0.476522  0  0.098945  0.221901  0  4.10735  0
C  C134  1  0.56565943  0.14011790  0.84742507  1  0.025524  0  -0.047569  -0.294898  0  3.979649  0
C  C135  1  0.47829037  0.85036526  0.15253774  1  0.049785  0  -0.04748  -0.282236  0  3.928876  0
C  C136  1  0.72236890  0.02590784  0.99515012  1  0.343419  0  0.077766  0.234436  0  4.088112  0
C  C137  1  0.35865402  0.96492159  0.00648602  1  0.342401  0  0.068896  0.208958  0  4.13546  0
C  C138  1  0.69255039  0.99090786  0.03203632  1  -0.016433  0  -0.11378  -0.248318  0  3.999567  0
C  C139  1  0.38815820  0.00012705  0.96967355  1  -0.01897  0  -0.110131  -0.2427  0  3.984965  0
C  C140  1  0.51589043  0.96075463  0.03867836  1  -0.037845  0  -0.031452  -0.034328  0  4.034382  0
C  C141  1  0.56451595  0.03044412  0.96303302  1  0.035638  0  -0.018099  0.001487  0  3.9596  0
N  N142  1  0.86172181  0.49487777  0.46989237  1  -0.656056  0  -0.161988  -0.149582  0  3.375569  0
N  N143  1  0.21490941  0.47003695  0.50969159  1  -0.481341  0  -0.142491  -0.115531  0  3.200038  0
N  N144  1  0.86477940  0.45834125  0.50279972  1  -0.579324  0  -0.152197  -0.133996  0  3.256169  0
N  N145  1  0.21030221  0.50651408  0.47710645  1  -0.530801  0  -0.149877  -0.147207  0  3.218462  0
N  N146  1  0.17329439  0.18854863  0.63023400  1  -1.242623  0  -0.585841  -0.580801  0  3.384392  0
N  N147  1  0.63885953  0.76222958  0.40203130  1  -1.202128  0  -0.593565  -0.597954  0  3.312602  0
N  N148  1  0.09690786  0.11087412  0.57333585  1  -1.31545  0  -0.629426  -0.646463  0  3.417272  0
N  N149  1  0.55786755  0.82190171  0.47747940  1  -1.245245  0  -0.619251  -0.626813  0  3.357691  0
N  N150  1  0.33847547  0.61638245  0.44970727  1  -1.181661  0  -0.616962  -0.63707  0  3.323204  0
N  N151  1  0.70521342  0.37836186  0.55249654  1  -1.262027  0  -0.58186  -0.576498  0  3.390382  0
N  N152  1  0.90916997  0.10166907  0.83181899  1  -1.220094  0  -0.618942  -0.640275  0  3.276868  0
N  N153  1  0.17770866  0.90401810  0.17418237  1  -1.257371  0  -0.591883  -0.594852  0  3.336793  0
N  N154  1  0.89433995  0.05870804  0.99286495  1  -1.221039  0  -0.616773  -0.628826  0  3.309521  0
N  N155  1  0.18732664  0.93166993  0.00862431  1  -1.222519  0  -0.617504  -0.634184  0  3.32093  0
N  N156  1  0.65437493  0.60779410  0.33829774  1  -1.276014  0  -0.58426  -0.577669  0  3.356593  0
N  N157  1  0.37838797  0.40018094  0.66528120  1  -1.217544  0  -0.622864  -0.641478  0  3.280673  0
N  N158  1  0.33248823  0.54056894  0.09890287  1  -1.20042  0  -0.620541  -0.643337  0  3.328138  0
N  N159  1  0.65128055  0.45362621  0.89587560  1  -1.208414  0  -0.615982  -0.642557  0  3.318938  0
O  O160  1  0.62806834  0.80100837  0.21329538  1  -1.263746  0  -0.23728  -0.599931  0  2.35702  0
O  O161  1  0.38834764  0.19872123  0.79611945  1  -1.257762  0  -0.242341  -0.608675  0  2.383362  0
O  O162  1  0.32588398  0.80551029  0.29076499  1  -1.263478  0  -0.238428  -0.613731  0  2.327013  0
O  O163  1  0.71558844  0.19620024  0.70229198  1  -1.270064  0  -0.250263  -0.625642  0  2.352552  0
O  O164  1  0.15402634  0.70451645  0.30251273  1  -1.25556  0  -0.231231  -0.569661  0  2.359518  0
O  O165  1  0.87288972  0.29776241  0.69991385  1  -1.256607  0  -0.240867  -0.601182  0  2.398886  0
O  O166  1  0.29070608  0.79654562  0.20314417  1  -1.258971  0  -0.246212  -0.618279  0  2.333636  0
O  O167  1  0.72602745  0.19197328  0.79078851  1  -1.268063  0  -0.236492  -0.594147  0  2.380742  0
O  O168  1  0.13433403  0.69279763  0.20947503  1  -1.248254  0  -0.230532  -0.584249  0  2.383029  0
O  O169  1  0.88319007  0.29745216  0.79262323  1  -1.268607  0  -0.232268  -0.595212  0  2.396531  0
O  O170  1  0.64265403  0.77595191  0.30709238  1  -1.259065  0  -0.225463  -0.570099  0  2.325914  0
O  O171  1  0.38065648  0.21241287  0.70251244  1  -1.287926  0  -0.24448  -0.615102  0  2.410143  0
O  O172  1  0.46870633  0.70797123  0.24970210  1  -1.431455  0  -0.449374  -0.980203  0  2.159095  0
O  O173  1  0.55457399  0.28733436  0.75235401  1  -1.433918  0  -0.451149  -0.988799  0  2.153585  0
O  O174  1  0.79443755  0.69636984  0.20153026  1  -1.253711  0  -0.235349  -0.588852  0  2.346319  0
O  O175  1  0.22044716  0.29892190  0.80117020  1  -1.263131  0  -0.24034  -0.604353  0  2.333176  0
O  O176  1  0.82995277  0.68357394  0.28994510  1  -1.27327  0  -0.246048  -0.621962  0  2.386383  0
O  O177  1  0.20150302  0.31400700  0.71239896  1  -1.260873  0  -0.234146  -0.586559  0  2.359954  0
O  O178  1  0.96325009  0.78083087  0.25177115  1  -1.423328  0  -0.449348  -0.975845  0  2.156053  0
O  O179  1  0.05941868  0.21554117  0.74801660  1  -1.412478  0  -0.451834  -0.985976  0  2.175461  0
O  O180  1  0.29525569  0.68741457  0.38230487  1  -1.132992  0  -0.345272  -0.406029  0  2.383613  0
O  O181  1  0.70525509  0.32493950  0.62823543  1  -1.171813  0  -0.353305  -0.444592  0  2.321791  0
O  O182  1  0.74513829  0.40707235  0.99711531  1  -1.099723  0  -0.341789  -0.403273  0  2.284767  0
O  O183  1  0.24324212  0.59178447  0.99766941  1  -1.126131  0  -0.362712  -0.449944  0  2.291852  0
O  O184  1  0.84817666  0.11151269  0.65590660  1  -1.163277  0  -0.363687  -0.452112  0  2.320503  0
O  O185  1  0.32511168  0.91554898  0.31549997  1  -1.142751  0  -0.374693  -0.462354  0  2.231974  0
O  O186  1  0.69466699  0.96767903  0.57911524  1  -1.145797  0  -0.373152  -0.465345  0  2.320325  0
O  O187  1  0.16920663  0.99530221  0.43981186  1  -1.153038  0  -0.365649  -0.460942  0  2.330353  0
O  O188  1  0.76531276  0.90915124  0.51008976  1  -1.14193  0  -0.345114  -0.420228  0  2.31809  0
O  O189  1  0.19088409  0.07742828  0.49294003  1  -1.148761  0  -0.347526  -0.419164  0  2.319008  0
O  O190  1  0.22750861  0.16938938  0.86887256  1  -1.169997  0  -0.354757  -0.445104  0  2.283949  0
O  O191  1  0.77574464  0.80143250  0.12889085  1  -1.114896  0  -0.350233  -0.438021  0  2.293902  0
O  O192  1  0.89763079  0.03312044  0.90098166  1  -1.149133  0  -0.35906  -0.446046  0  2.323322  0
O  O193  1  0.20731308  0.97346972  0.10473633  1  -1.159853  0  -0.36797  -0.455071  0  2.299091  0
O  O194  1  0.66907207  0.54207518  0.40721114  1  -1.156108  0  -0.346671  -0.432793  0  2.378645  0
O  O195  1  0.34445807  0.46256266  0.59368084  1  -1.129199  0  -0.354957  -0.4301  0  2.326951  0
O  O196  1  0.31897232  0.60694012  0.16935409  1  -1.137073  0  -0.334707  -0.394737  0  2.301256  0
O  O197  1  0.67958878  0.38349232  0.82917705  1  -1.121459  0  -0.340573  -0.415472  0  2.302485  0
O  O198  1  0.65276624  0.60851162  0.05676008  1  -1.156734  0  -0.356677  -0.438272  0  2.309981  0
O  O199  1  0.33231688  0.39407412  0.94445093  1  -1.116573  0  -0.350326  -0.430454  0  2.32548  0
O  O200  1  0.73749955  0.47467750  0.06804600  1  -1.149656  0  -0.36241  -0.447099  0  2.298803  0
O  O201  1  0.23285589  0.52359441  0.92734644  1  -1.133348  0  -0.347534  -0.412268  0  2.278244  0
