# generated using pymatgen
data_CoH10(C6N5)2
_symmetry_space_group_name_H-M   'P 1'
_cell_length_a   3.44362119
_cell_length_b   9.59901035
_cell_length_c   11.31844713
_cell_angle_alpha   99.88836571
_cell_angle_beta   96.00886028
_cell_angle_gamma   92.16233762
_symmetry_Int_Tables_number   1
_chemical_formula_structural   CoH10(C6N5)2
_chemical_formula_sum   'Co1 H10 C12 N10'
_cell_volume   365.95912279
_cell_formula_units_Z   1
loop_
 _symmetry_equiv_pos_site_id
 _symmetry_equiv_pos_as_xyz
  1  'x, y, z'
loop_
 _atom_site_type_symbol
 _atom_site_label
 _atom_site_symmetry_multiplicity
 _atom_site_fract_x
 _atom_site_fract_y
 _atom_site_fract_z
 _atom_site_occupancy
 _atom_site_hle17_ddec_charge
 _atom_site_hle17_ddec_spin_density
 _atom_site_hle17_ddec_sum_bond_order
 _atom_site_hle17_magmom
 _atom_site_hse06_10hf_ddec_charge
 _atom_site_hse06_10hf_ddec_spin_density
 _atom_site_hse06_10hf_ddec_sum_bond_order
 _atom_site_hse06_10hf_magmom
 _atom_site_hse06_ddec_charge
 _atom_site_hse06_ddec_spin_density
 _atom_site_hse06_ddec_sum_bond_order
 _atom_site_hse06_magmom
 _atom_site_pbe_cm5_charge
 _atom_site_pbe_ddec_charge
 _atom_site_pbe_ddec_spin_density
 _atom_site_pbe_ddec_sum_bond_order
 _atom_site_pbe_magmom
Co  Co0  1  0.00000134  0.49999929  0.50000027  1  0.806022  2.780449  2.16515  2.461  0.810068  2.792239  2.560914  2.549  0.904774  2.860928  2.480765  2.655  0.661694  0.738756  2.727633  2.619815  2.445
H  H1  1  0.11643132  0.34866041  0.23453948  1  0.09732  -0.000127  0.933396  0.0  0.106648  -8.5e-05  0.995472  0.0  0.109208  -0.00011  0.992121  0.0  0.136541  0.103973  -0.000103  0.998675  0.0
H  H2  1  0.88355361  0.65134284  0.76546014  1  0.097287  -0.000131  0.933399  0.0  0.106605  -8.5e-05  0.995489  0.0  0.109168  -0.000109  0.992131  0.0  0.136507  0.103928  -0.000103  0.998693  0.0
H  H3  1  0.75638448  0.16271676  0.51909402  1  0.103381  -0.000125  0.956179  0.0  0.112663  -5.4e-05  1.016523  0.0  0.11407  -7.8e-05  1.016942  0.0  0.118928  0.11121  3.2e-05  1.016684  0.0
H  H4  1  0.24362304  0.83728120  0.48090725  1  0.103371  -0.000129  0.956132  0.0  0.112652  -5.4e-05  1.016485  0.0  0.114059  -7.8e-05  1.016905  0.0  0.118914  0.111186  3.2e-05  1.016657  0.0
H  H5  1  0.73749688  0.95302992  0.31560834  1  0.116917  9e-05  0.996988  0.0  0.121998  0.000284  1.069368  0.0  0.12498  0.00022  1.067271  0.0  0.118836  0.120029  0.00063  1.069873  0.0
H  H6  1  0.26250780  0.04696910  0.68439035  1  0.116916  9.1e-05  0.996977  0.0  0.121989  0.000285  1.069367  0.0  0.124972  0.000221  1.067271  0.0  0.118853  0.120018  0.00063  1.069877  0.0
H  H7  1  0.81504368  0.24981993  0.04073909  1  0.103887  3.5e-05  0.935418  0.0  0.117809  6.6e-05  0.987981  0.0  0.120472  4.5e-05  0.986917  0.0  0.10946  0.115559  5.4e-05  0.989118  0.0
H  H8  1  0.18496152  0.75018227  0.95926096  1  0.10384  3.5e-05  0.935421  0.0  0.117757  6.5e-05  0.987995  0.0  0.12042  4.3e-05  0.986935  0.0  0.10943  0.115504  5.4e-05  0.989132  0.0
H  H9  1  0.11676701  0.86297776  0.16694468  1  0.115613  0.000516  0.978287  0.0  0.12242  0.000671  1.047673  0.0  0.12571  0.000543  1.044865  0.0  0.107455  0.119411  0.000859  1.050167  0.0
H  H10  1  0.88323803  0.13702338  0.83305521  1  0.115587  0.000512  0.97829  0.0  0.122393  0.00067  1.047686  0.0  0.125683  0.000539  1.044878  0.0  0.107444  0.11938  0.000859  1.050185  0.0
C  C11  1  0.00791191  0.27180988  0.28454377  1  0.166108  -0.005551  3.635524  -0.003  0.104136  0.000525  3.917781  0.001  0.119504  0.00039  3.930277  0.001  0.139376  0.092671  -0.001642  3.910597  0.0
C  C12  1  0.99208115  0.72818914  0.71545635  1  0.166247  -0.005527  3.635235  -0.003  0.104291  0.000526  3.917502  0.001  0.119661  0.000373  3.929982  0.001  0.139464  0.092829  -0.001642  3.910316  0.0
C  C13  1  0.82814542  0.17083638  0.42953219  1  0.014784  -0.004196  3.713845  -0.003  -0.015153  -0.000918  3.981501  0.0  -0.012085  -0.000997  4.003118  0.0  0.000934  -0.018129  -0.001307  3.969251  0.0
C  C14  1  0.17186208  0.82916159  0.57046819  1  0.014848  -0.00419  3.713663  -0.003  -0.015083  -0.000916  3.981314  0.0  -0.012008  -0.000998  4.002931  0.0  0.000921  -0.018051  -0.001307  3.969064  0.0
C  C15  1  0.96469311  0.06464591  0.11783062  1  0.16932  0.000745  3.78074  0.001  0.159217  0.000466  4.032135  0.001  0.164196  0.000372  4.054736  0.001  0.091732  0.155658  0.000224  4.017395  0.0
C  C16  1  0.03530576  0.93535311  0.88216878  1  0.169289  0.000751  3.780717  0.001  0.159184  0.000454  4.032114  0.001  0.164157  0.000226  4.054715  0.0  0.091723  0.155624  0.000224  4.017378  0.0
C  C17  1  0.81935807  0.06562852  0.33041080  1  -0.063583  0.004053  3.654344  0.005  -0.103181  0.001937  3.913911  0.002  -0.101767  0.001413  3.931664  0.002  -0.00115  -0.103948  0.002237  3.902068  0.003
C  C18  1  0.18063805  0.93437155  0.66958868  1  -0.06362  0.004042  3.654296  0.005  -0.10321  0.001936  3.913881  0.002  -0.101804  0.001408  3.931638  0.002  -0.001155  -0.103975  0.002237  3.902034  0.003
C  C19  1  0.90321095  0.14102343  0.02352219  1  -0.130871  -0.000199  3.747048  0.0  -0.151689  1.2e-05  4.000429  0.0  -0.154923  -0.00013  4.021639  0.0  -0.087239  -0.149923  -1.8e-05  3.987093  0.0
C  C20  1  0.09678535  0.85897771  0.97647833  1  -0.130764  -0.000199  3.746953  0.0  -0.15158  2.8e-05  4.000329  0.0  -0.154808  8.8e-05  4.021535  0.0  -0.08721  -0.149813  -1.8e-05  3.986996  0.0
C  C21  1  0.06074898  0.92323032  0.09426575  1  -0.118443  0.000586  3.718633  0.001  -0.138748  0.000529  3.968864  0.001  -0.14171  0.000314  3.989618  0.001  -0.084877  -0.137246  0.000559  3.956435  0.001
C  C22  1  0.93925301  0.07676976  0.90573478  1  -0.11839  0.000587  3.718644  0.001  -0.138706  0.00054  3.968898  0.001  -0.141671  0.00045  3.989656  0.001  -0.084875  -0.137203  0.000559  3.956474  0.001
N  N23  1  0.94683507  0.29859770  0.39990776  1  -0.343218  0.030529  3.340691  0.049  -0.299482  0.022525  3.644282  0.034  -0.329612  0.018184  3.666217  0.028  -0.349942  -0.279159  0.024895  3.631779  0.037
N  N24  1  0.05316102  0.70140238  0.60009083  1  -0.343339  0.030538  3.340509  0.049  -0.29961  0.022523  3.644092  0.034  -0.329749  0.018174  3.666042  0.028  -0.349989  -0.279287  0.024895  3.631571  0.037
N  N25  1  0.93110406  0.13129595  0.23814768  1  -0.093497  0.002082  3.611873  0.003  -0.00439  0.001572  3.825077  0.002  -0.019068  0.001226  3.850619  0.002  -0.227824  0.004995  0.001136  3.808823  0.002
N  N26  1  0.06889222  0.86870518  0.76185196  1  -0.093507  0.002081  3.611875  0.003  -0.004407  0.001576  3.825083  0.002  -0.019084  0.001235  3.850614  0.002  -0.227825  0.004976  0.001135  3.808833  0.002
N  N27  1  0.48725654  0.55404447  0.39564725  1  -0.533077  0.024989  2.835292  0.053  -0.564041  0.020887  3.176153  0.036  -0.607444  0.006712  3.185332  0.018  -0.288751  -0.527946  0.035698  3.166518  0.054
N  N28  1  0.51275126  0.44595561  0.60435256  1  -0.533232  0.025048  2.835042  0.053  -0.564198  0.020882  3.175871  0.035  -0.607617  0.006739  3.185092  0.018  -0.288747  -0.528077  0.035717  3.16623  0.054
N  N29  1  0.50837484  0.64119086  0.33112271  1  0.382997  -0.031516  4.188934  -0.027  0.430605  -0.003397  4.490544  -0.001  0.449756  -0.009239  4.523992  -0.005  0.083282  0.415525  0.002063  4.46559  0.004
N  N30  1  0.49162598  0.35880075  0.66888097  1  0.382967  -0.031521  4.18926  -0.027  0.430587  -0.00335  4.490876  -0.001  0.449741  -0.009221  4.524313  -0.005  0.083228  0.415499  0.002077  4.465927  0.004
N  N31  1  0.53167034  0.72495456  0.26781195  1  -0.390683  0.087853  2.409259  0.132  -0.403878  0.058843  2.64647  0.085  -0.413694  0.050575  2.656234  0.076  -0.197631  -0.392088  0.070864  2.637191  0.098
N  N32  1  0.46834045  0.27504658  0.73218546  1  -0.390477  0.0878  2.409932  0.132  -0.403665  0.05882  2.647155  0.085  -0.413486  0.050545  2.656909  0.076  -0.197508  -0.391887  0.070835  2.637877  0.098
