# generated using pymatgen
data_ZnH19C23NO6
_symmetry_space_group_name_H-M   'P 1'
_cell_length_a   13.89857057
_cell_length_b   15.30749417
_cell_length_c   17.32031342
_cell_angle_alpha   90.59011961
_cell_angle_beta   84.07475390
_cell_angle_gamma   90.06156186
_symmetry_Int_Tables_number   1
_chemical_formula_structural   ZnH19C23NO6
_chemical_formula_sum   'Zn2 H38 C46 N2 O12'
_cell_volume   3665.05486546
_cell_formula_units_Z   2
loop_
 _symmetry_equiv_pos_site_id
 _symmetry_equiv_pos_as_xyz
  1  'x, y, z'
loop_
 _atom_site_type_symbol
 _atom_site_label
 _atom_site_symmetry_multiplicity
 _atom_site_fract_x
 _atom_site_fract_y
 _atom_site_fract_z
 _atom_site_occupancy
 _atom_site_pbe_bader_charge
 _atom_site_pbe_bader_spin_density
 _atom_site_pbe_cm5_charge
 _atom_site_pbe_ddec_charge
 _atom_site_pbe_ddec_spin_density
 _atom_site_pbe_ddec_sum_bond_order
 _atom_site_pbe_magmom
Zn  Zn0  1  0.40142112  0.49116041  0.50253045  1  1.281655  0  0.670391  0.809295  0  2.417657  0
Zn  Zn1  1  0.59967627  0.49466889  0.50201526  1  1.283842  0  0.667968  0.818122  0  2.440961  0
H  H2  1  0.63405597  0.55179539  0.73279721  1  0.09723  0  0.100133  0.096679  0  1.014716  0
H  H3  1  0.38110160  0.47463455  0.25788350  1  0.072305  0  0.104498  0.107632  0  0.998929  0
H  H4  1  0.92212673  0.56857128  0.60616357  1  0.083387  0  0.11829  0.124919  0  0.982573  0
H  H5  1  0.07212879  0.35343390  0.46870427  1  0.073617  0  0.118439  0.125257  0  0.983763  0
H  H6  1  0.74182685  0.56587008  0.60404641  1  0.13053  0  0.131007  0.104095  0  0.973913  0
H  H7  1  0.25237428  0.35810377  0.47176620  1  0.143162  0  0.135787  0.112968  0  0.958625  0
H  H8  1  0.76292418  0.42041878  0.40057061  1  0.134032  0  0.13342  0.108682  0  0.96307  0
H  H9  1  0.24742943  0.62213812  0.52506628  1  0.151797  0  0.135316  0.11579  0  0.964577  0
H  H10  1  0.94392239  0.41439948  0.39442717  1  0.084626  0  0.118974  0.1261  0  0.981519  0
H  H11  1  0.06629486  0.62851061  0.52829770  1  0.080533  0  0.118437  0.125598  0  0.983059  0
H  H12  1  0.67376489  0.56290590  0.26061156  1  0.080926  0  0.103311  0.106776  0  1.003117  0
H  H13  1  0.32411777  0.53880468  0.75359788  1  0.105702  0  0.105652  0.107649  0  0.996274  0
H  H14  1  0.61821732  0.57122516  0.99580292  1  0.074163  0  0.100153  0.096618  0  1.006895  0
H  H15  1  0.39547063  0.57158174  0.00987649  1  0.02907  0  0.099317  0.093995  0  1.012888  0
H  H16  1  0.31956676  0.56423786  0.89656648  1  0.051998  0  0.099261  0.095865  0  1.001043  0
H  H17  1  0.68317318  0.59314154  0.11858506  1  0.053857  0  0.099065  0.097795  0  0.999999  0
H  H18  1  0.38884052  0.50375115  0.11658680  1  0.060045  0  0.099905  0.096697  0  1.008258  0
H  H19  1  0.63119950  0.58141370  0.87353700  1  0.068417  0  0.100715  0.098961  0  1.005443  0
H  H20  1  0.57806196  0.93116093  0.60238806  1  0.09301  0  0.10465  0.129272  0  0.992518  0
H  H21  1  0.58444934  0.05732695  0.38984106  1  0.072969  0  0.104513  0.128241  0  0.992521  0
H  H22  1  0.43049476  0.93917957  0.39519607  1  0.0799  0  0.100165  0.119204  0  1.021779  0
H  H23  1  0.42939556  0.04902168  0.61958726  1  0.068266  0  0.103688  0.126946  0  1.001159  0
H  H24  1  0.59744551  0.70199269  0.58610828  1  0.632089  0  0.298214  0.347593  0  0.980981  0
H  H25  1  0.60998267  0.28601119  0.40685723  1  0.624486  0  0.303262  0.355634  0  0.955294  0
H  H26  1  0.51479956  0.76725114  0.28664449  1  0.042646  0  0.095544  0.056844  0  0.971028  0
H  H27  1  0.43589183  0.85957487  0.29482560  1  -0.006116  0  0.09413  0.051604  0  0.995093  0
H  H28  1  0.37172228  0.67156173  0.26606930  1  0.024909  0  0.09047  0.087228  0  0.995651  0
H  H29  1  0.29698054  0.76535043  0.26959411  1  0.002009  0  0.088966  0.079198  0  0.974288  0
H  H30  1  0.39984601  0.82574496  0.15172777  1  -0.009287  0  0.082904  0.10606  0  1.005958  0
H  H31  1  0.35010507  0.72243708  0.13106419  1  0.005409  0  0.083943  0.111095  0  1.006383  0
H  H32  1  0.47293893  0.73025993  0.14874481  1  0.035171  0  0.081465  0.107715  0  1.028458  0
H  H33  1  0.52830105  0.30742443  0.65565081  1  0.047585  0  0.093195  0.063702  0  0.998727  0
H  H34  1  0.53734442  0.20525091  0.70350162  1  0.025154  0  0.090739  0.048192  0  0.975883  0
H  H35  1  0.38469238  0.34784884  0.74374431  1  0.04586  0  0.089319  0.085957  0  0.982382  0
H  H36  1  0.38209658  0.24381840  0.78758087  1  0.022979  0  0.090669  0.083173  0  0.970708  0
H  H37  1  0.54149008  0.27325660  0.83929952  1  0.014198  0  0.080956  0.103406  0  1.009628  0
H  H38  1  0.45978504  0.35951664  0.86838032  1  0.011947  0  0.083069  0.112696  0  1.010395  0
H  H39  1  0.55105231  0.37521947  0.79078453  1  0.017349  0  0.080035  0.108695  0  1.030864  0
C  C40  1  0.49607311  0.66441052  0.49684315  1  1.517662  0  0.21533  0.628536  0  4.136894  0
C  C41  1  0.50093870  0.32307637  0.50929092  1  1.538138  0  0.21614  0.623984  0  4.159286  0
C  C42  1  0.54330633  0.89802056  0.55667400  1  0.047753  0  -0.119038  -0.288081  0  3.960121  0
C  C43  1  0.54844796  0.09006993  0.44106081  1  0.070837  0  -0.1166  -0.281296  0  3.954606  0
C  C44  1  0.54541118  0.80681063  0.55281971  1  0.459196  0  0.084052  0.3337  0  4.079964  0
C  C45  1  0.55354843  0.18120624  0.44658711  1  0.465573  0  0.081971  0.327548  0  4.08126  0
C  C46  1  0.49847141  0.76118865  0.49529955  1  0.031646  0  -0.050344  -0.294694  0  3.942456  0
C  C47  1  0.50534296  0.22610532  0.51141484  1  0.026294  0  -0.050136  -0.298806  0  3.965498  0
C  C48  1  0.45769458  0.81030834  0.43802074  1  0.443971  0  0.085738  0.273422  0  4.072068  0
C  C49  1  0.46168124  0.17649547  0.57376846  1  0.443653  0  0.082642  0.270249  0  4.085485  0
C  C50  1  0.46223858  0.90151348  0.43915352  1  0.015262  0  -0.125995  -0.312294  0  4.01142  0
C  C51  1  0.46240667  0.08557082  0.57009310  1  0.043776  0  -0.117624  -0.290288  0  3.993525  0
C  C52  1  0.50277553  0.94533370  0.49954197  1  -0.049148  0  -0.004182  0.125003  0  4.045067  0
C  C53  1  0.50353591  0.04207886  0.50290021  1  -0.057983  0  -0.005293  0.118324  0  4.040064  0
C  C54  1  0.88985143  0.53523306  0.55926766  1  -0.012134  0  -0.073627  -0.172665  0  3.940255  0
C  C55  1  0.10796699  0.41449800  0.48131974  1  0.018473  0  -0.07489  -0.17644  0  3.943873  0
C  C56  1  0.79002528  0.53395903  0.55869795  1  0.501587  0  0.065914  0.112009  0  3.917382  0
C  C57  1  0.20776412  0.41639294  0.48275656  1  0.451879  0  0.067622  0.1123  0  3.90708  0
C  C58  1  0.80179024  0.45124258  0.44512743  1  0.480879  0  0.066482  0.113862  0  3.912404  0
C  C59  1  0.20460339  0.56430190  0.51444116  1  0.51978  0  0.068811  0.114953  0  3.897473  0
C  C60  1  0.90198351  0.44824190  0.44228615  1  0.032602  0  -0.073588  -0.173646  0  3.938552  0
C  C61  1  0.10452765  0.56705320  0.51582933  1  -0.020472  0  -0.073935  -0.176323  0  3.942917  0
C  C62  1  0.48299780  0.51557548  0.65126953  1  1.552356  0  0.212822  0.587951  0  4.175826  0
C  C63  1  0.52187315  0.49828681  0.35247741  1  1.560998  0  0.212137  0.592065  0  4.172245  0
C  C64  1  0.94794220  0.49137360  0.50015768  1  -0.06257  0  0.018134  0.107673  0  3.99113  0
C  C65  1  0.05425168  0.49090732  0.49898986  1  -0.008432  0  0.016556  0.107292  0  3.996028  0
C  C66  1  0.47937402  0.54125308  0.73485859  1  -0.012906  0  -0.014967  -0.030945  0  3.958059  0
C  C67  1  0.52713431  0.51656632  0.26762391  1  0.027718  0  -0.018132  -0.033808  0  3.959268  0
C  C68  1  0.56536982  0.55569204  0.76915733  1  -0.080322  0  -0.083439  -0.087314  0  4.004684  0
C  C69  1  0.44660650  0.50119350  0.22667876  1  -0.097672  0  -0.081142  -0.085868  0  3.994493  0
C  C70  1  0.56332165  0.57174706  0.84817433  1  -0.089538  0  -0.087656  -0.129752  0  3.964415  0
C  C71  1  0.45110942  0.51856709  0.14797736  1  -0.007685  0  -0.087371  -0.128681  0  3.965074  0
C  C72  1  0.47486130  0.57183812  0.89617900  1  0.012656  0  -0.008035  0.115333  0  4.047514  0
C  C73  1  0.53622680  0.55213415  0.10731553  1  0.016463  0  -0.007853  0.113686  0  4.050489  0
C  C74  1  0.38869778  0.56271908  0.86034252  1  0.040935  0  -0.088347  -0.136778  0  3.976372  0
C  C75  1  0.61661650  0.56733759  0.14909224  1  -0.044134  0  -0.092477  -0.143891  0  3.987967  0
C  C76  1  0.39067740  0.54805242  0.78086676  1  -0.078797  0  -0.081075  -0.082715  0  3.986014  0
C  C77  1  0.61200489  0.55036191  0.22809327  1  -0.072505  0  -0.085439  -0.08874  0  3.995399  0
C  C78  1  0.46906377  0.57253098  0.98047805  1  -0.04831  0  -0.089784  -0.132583  0  4.003661  0
C  C79  1  0.54423686  0.56713091  0.02406625  1  -0.08438  0  -0.08945  -0.130846  0  3.995935  0
C  C80  1  0.43930006  0.78831256  0.30280901  1  0.454427  0  -0.065251  0.044441  0  3.897446  0
C  C81  1  0.37112334  0.74170367  0.25303881  1  0.022519  0  -0.169406  -0.128558  0  3.985119  0
C  C82  1  0.40015593  0.75601384  0.16652069  1  -0.022471  0  -0.246016  -0.352628  0  3.986291  0
C  C83  1  0.48621804  0.25596873  0.68810992  1  0.399317  0  -0.068214  0.044035  0  3.890689  0
C  C84  1  0.43075053  0.29427571  0.76058330  1  -0.003228  0  -0.168378  -0.127267  0  3.980832  0
C  C85  1  0.49960080  0.32724197  0.81791015  1  -0.042096  0  -0.247272  -0.353398  0  3.981969  0
N  N86  1  0.74694303  0.49304429  0.50245619  1  -1.2588  0  -0.316836  -0.195119  0  3.517232  0
N  N87  1  0.25491519  0.49004098  0.49897372  1  -1.242742  0  -0.314215  -0.190012  0  3.512848  0
O  O88  1  0.42364056  0.62283174  0.47716987  1  -1.15649  0  -0.303258  -0.525647  0  2.332854  0
O  O89  1  0.57955480  0.36207858  0.48195564  1  -1.180662  0  -0.322488  -0.581737  0  2.335754  0
O  O90  1  0.57066276  0.62722325  0.52175153  1  -1.17363  0  -0.322283  -0.575973  0  2.34624  0
O  O91  1  0.42198949  0.36184996  0.53037589  1  -1.15416  0  -0.303902  -0.521427  0  2.303845  0
O  O92  1  0.40631992  0.52490077  0.61789981  1  -1.156139  0  -0.316703  -0.541762  0  2.308613  0
O  O93  1  0.59763750  0.51508372  0.38608002  1  -1.164702  0  -0.324331  -0.556688  0  2.327629  0
O  O94  1  0.56349831  0.48512578  0.61935145  1  -1.178011  0  -0.326911  -0.568374  0  2.328693  0
O  O95  1  0.44273186  0.46843483  0.38575093  1  -1.173399  0  -0.322725  -0.553804  0  2.306921  0
O  O96  1  0.59299768  0.76386242  0.60550554  1  -1.154509  0  -0.374428  -0.465635  0  2.239522  0
O  O97  1  0.60419513  0.22498120  0.38766513  1  -1.151267  0  -0.373759  -0.46333  0  2.227369  0
O  O98  1  0.41275085  0.76554652  0.38275005  1  -1.068674  0  -0.196255  -0.222267  0  2.526953  0
O  O99  1  0.41857122  0.21595683  0.64043099  1  -1.079811  0  -0.211234  -0.248239  0  2.492018  0
