# generated using pymatgen
data_ZnH20C15(NO)4
_symmetry_space_group_name_H-M   'P 1'
_cell_length_a   8.41097779
_cell_length_b   8.48785149
_cell_length_c   15.94634877
_cell_angle_alpha   96.54493027
_cell_angle_beta   106.52569349
_cell_angle_gamma   108.59295586
_symmetry_Int_Tables_number   1
_chemical_formula_structural   ZnH20C15(NO)4
_chemical_formula_sum   'Zn2 H40 C30 N8 O8'
_cell_volume   1007.85483507
_cell_formula_units_Z   2
loop_
 _symmetry_equiv_pos_site_id
 _symmetry_equiv_pos_as_xyz
  1  'x, y, z'
loop_
 _atom_site_type_symbol
 _atom_site_label
 _atom_site_symmetry_multiplicity
 _atom_site_fract_x
 _atom_site_fract_y
 _atom_site_fract_z
 _atom_site_occupancy
 _atom_site_hle17_bader_spin_density
 _atom_site_hle17_ddec_charge
 _atom_site_hle17_ddec_spin_density
 _atom_site_hle17_ddec_sum_bond_order
 _atom_site_hle17_magmom
 _atom_site_hse06_10hf_bader_spin_density
 _atom_site_hse06_10hf_ddec_charge
 _atom_site_hse06_10hf_ddec_spin_density
 _atom_site_hse06_10hf_ddec_sum_bond_order
 _atom_site_hse06_10hf_magmom
 _atom_site_hse06_bader_spin_density
 _atom_site_hse06_ddec_charge
 _atom_site_hse06_ddec_spin_density
 _atom_site_hse06_ddec_sum_bond_order
 _atom_site_hse06_magmom
 _atom_site_pbe_bader_spin_density
 _atom_site_pbe_cm5_charge
 _atom_site_pbe_ddec_charge
 _atom_site_pbe_ddec_spin_density
 _atom_site_pbe_ddec_sum_bond_order
 _atom_site_pbe_magmom
Zn  Zn0  1  0.05911514  0.99615924  0.24679346  1  0  0.996716  0  1.891296  0  0  0.806304  0  2.3754  0  0  0.853339  0  2.319861  0  0  0.686884  0.773455  0  2.41358  0
Zn  Zn1  1  0.94088614  0.00383983  0.75320643  1  0  0.996691  0  1.891423  0  0  0.806273  0  2.375528  0  0  0.853302  0  2.319988  0  0  0.686866  0.773425  0  2.413706  0
H  H2  1  0.93463856  0.40372244  0.27542350  1  0  0.096506  0  0.948453  0  0  0.110452  0  1.010545  0  0  0.112022  0  1.010893  0  0  0.092017  0.109351  0  1.010341  0
H  H3  1  0.06536082  0.59627525  0.72457418  1  0  0.096564  0  0.948452  0  0  0.110505  0  1.010511  0  0  0.112071  0  1.01086  0  0  0.092024  0.109406  0  1.010308  0
H  H4  1  0.80405511  0.42417431  0.17029501  1  0  0.082281  0  0.942401  0  0  0.095926  0  1.005134  0  0  0.097989  0  1.004618  0  0  0.084096  0.094407  0  1.005636  0
H  H5  1  0.19593302  0.57581333  0.82970250  1  0  0.082372  0  0.942421  0  0  0.095971  0  1.005166  0  0  0.098032  0  1.00465  0  0  0.084129  0.09445  0  1.005672  0
H  H6  1  0.73312522  0.48446826  0.34804482  1  0  0.061579  0  0.928914  0  0  0.080915  0  0.987406  0  0  0.081708  0  0.988028  0  0  0.087883  0.080302  0  0.987038  0
H  H7  1  0.26688792  0.51552580  0.65195954  1  0  0.061604  0  0.928893  0  0  0.080889  0  0.987428  0  0  0.081681  0  0.988053  0  0  0.087896  0.080276  0  0.987061  0
H  H8  1  0.60680511  0.50758277  0.24435602  1  0  0.062249  0  0.927553  0  0  0.080465  0  0.985583  0  0  0.082012  0  0.984678  0  0  0.08549  0.079265  0  0.986358  0
H  H9  1  0.39319409  0.49241293  0.75565157  1  0  0.062301  0  0.927559  0  0  0.080454  0  0.985651  0  0  0.082  0  0.984746  0  0  0.085511  0.079254  0  0.986424  0
H  H10  1  0.54428536  0.19486282  0.17854372  1  0  0.077789  0  0.94407  0  0  0.092171  0  1.008536  0  0  0.093719  0  1.00853  0  0  0.088453  0.091106  0  1.008572  0
H  H11  1  0.45572190  0.80513515  0.82146069  1  0  0.077779  0  0.943984  0  0  0.092158  0  1.008447  0  0  0.093705  0  1.00844  0  0  0.088425  0.091091  0  1.00848  0
H  H12  1  0.64716413  0.17507756  0.28674104  1  0  0.097036  0  0.940332  0  0  0.110687  0  1.003582  0  0  0.112325  0  1.004331  0  0  0.094605  0.109524  0  1.003143  0
H  H13  1  0.35285059  0.82491766  0.71326171  1  0  0.097041  0  0.940245  0  0  0.110675  0  1.003488  0  0  0.112312  0  1.004236  0  0  0.094599  0.109501  0  1.00306  0
H  H14  1  0.66780972  0.98197361  0.13340922  1  0  0.105642  0  0.944509  0  0  0.117765  0  0.99961  0  0  0.120351  0  0.998123  0  0  0.122869  0.115858  0  1.000837  0
H  H15  1  0.33219011  0.01801351  0.86658168  1  0  0.105743  0  0.944453  0  0  0.117917  0  0.999488  0  0  0.120506  0  0.997995  0  0  0.122954  0.116009  0  1.000715  0
H  H16  1  0.61036004  0.11751404  0.97995942  1  0  0.110585  0  0.969038  0  0  0.122795  0  1.028022  0  0  0.125043  0  1.027389  0  0  0.123576  0.121138  0  1.028625  0
H  H17  1  0.38964088  0.88248751  0.02003930  1  0  0.110548  0  0.969226  0  0  0.122784  0  1.028158  0  0  0.125033  0  1.027524  0  0  0.123599  0.121128  0  1.028762  0
H  H18  1  0.15547249  0.19067200  0.08978401  1  0  0.103157  0  0.918916  0  0  0.115868  0  0.975386  0  0  0.118017  0  0.973349  0  0  0.143817  0.114244  0  0.976876  0
H  H19  1  0.84454127  0.80933711  0.91021621  1  0  0.103191  0  0.919126  0  0  0.115879  0  0.975612  0  0  0.118025  0  0.973574  0  0  0.143861  0.114253  0  0.977102  0
H  H20  1  0.82252135  0.18041601  0.87857623  1  0  0.099644  0  0.942736  0  0  0.113745  0  1.003187  0  0  0.11573  0  1.001281  0  0  0.113391  0.112151  0  1.004758  0
H  H21  1  0.17748002  0.81960226  0.12142532  1  0  0.0997  0  0.942775  0  0  0.113737  0  1.003218  0  0  0.115729  0  1.001308  0  0  0.113384  0.112146  0  1.004781  0
H  H22  1  0.05381479  0.26148663  0.93841437  1  0  0.08904  0  0.929692  0  0  0.102187  0  0.993391  0  0  0.103597  0  0.992456  0  0  0.112725  0.101049  0  0.994226  0
H  H23  1  0.94618373  0.73852502  0.06158205  1  0  0.08926  0  0.929724  0  0  0.102296  0  0.993425  0  0  0.103729  0  0.992475  0  0  0.11277  0.101121  0  0.9943  0
H  H24  1  0.94186334  0.48952824  0.89790267  1  0  0.085862  0  0.923474  0  0  0.107447  0  0.976252  0  0  0.107574  0  0.977793  0  0  0.10247  0.107268  0  0.975261  0
H  H25  1  0.05812839  0.51048660  0.10210368  1  0  0.085922  0  0.923297  0  0  0.107461  0  0.976147  0  0  0.107597  0  0.977673  0  0  0.102443  0.107276  0  0.975166  0
H  H26  1  0.79530169  0.43817055  0.95941459  1  0  0.066819  0  0.919334  0  0  0.088512  0  0.973588  0  0  0.089144  0  0.973863  0  0  0.093414  0.087967  0  0.973515  0
H  H27  1  0.20469145  0.56183164  0.04059378  1  0  0.066864  0  0.919246  0  0  0.08853  0  0.973559  0  0  0.089165  0  0.973837  0  0  0.093427  0.087985  0  0.973484  0
H  H28  1  0.14944629  0.34457707  0.39655659  1  0  0.122878  0  0.936302  0  0  0.134821  0  0.988617  0  0  0.138095  0  0.986187  0  0  0.127145  0.132393  0  0.990539  0
H  H29  1  0.85054907  0.65543226  0.60344304  1  0  0.122927  0  0.936353  0  0  0.134872  0  0.988656  0  0  0.138159  0  0.986212  0  0  0.127169  0.132444  0  0.990577  0
H  H30  1  0.96558325  0.31309047  0.52103260  1  0  0.130734  0  0.960082  0  0  0.138157  0  1.02264  0  0  0.141781  0  1.020403  0  0  0.126039  0.135456  0  1.024421  0
H  H31  1  0.03440200  0.68691604  0.47895988  1  0  0.130699  0  0.960045  0  0  0.138088  0  1.022662  0  0  0.141717  0  1.020427  0  0  0.126037  0.135422  0  1.024406  0
H  H32  1  0.77378871  0.84258414  0.33484755  1  0  0.101134  0  0.934571  0  0  0.11232  0  0.995447  0  0  0.114657  0  0.992603  0  0  0.14151  0.110553  0  0.997531  0
H  H33  1  0.22622475  0.15742018  0.66515803  1  0  0.101167  0  0.934502  0  0  0.112372  0  0.995386  0  0  0.114618  0  0.992653  0  0  0.141506  0.110608  0  0.997453  0
H  H34  1  0.79116593  0.01787317  0.55795003  1  0  0.084819  0  0.970159  0  0  0.096743  0  1.040102  0  0  0.098078  0  1.039015  0  0  0.109797  0.095654  0  1.041016  0
H  H35  1  0.20882777  0.98212584  0.44204695  1  0  0.084806  0  0.970152  0  0  0.096722  0  1.040111  0  0  0.098057  0  1.039024  0  0  0.1098  0.095632  0  1.041024  0
H  H36  1  0.66802053  0.84213183  0.46336107  1  0  0.07445  0  0.910066  0  0  0.093083  0  0.965326  0  0  0.093422  0  0.965689  0  0  0.114119  0.092721  0  0.965214  0
H  H37  1  0.33197506  0.15787221  0.53663518  1  0  0.074448  0  0.909982  0  0  0.093014  0  0.965307  0  0  0.093352  0  0.965669  0  0  0.114129  0.092656  0  0.965189  0
H  H38  1  0.47015763  0.99723212  0.39986387  1  0  0.080637  0  0.937885  0  0  0.09821  0  0.997351  0  0  0.099111  0  0.997851  0  0  0.093053  0.097465  0  0.997127  0
H  H39  1  0.52983162  0.00276453  0.60013553  1  0  0.080646  0  0.937927  0  0  0.09826  0  0.997346  0  0  0.099163  0  0.997845  0  0  0.093066  0.09751  0  0.99712  0
H  H40  1  0.60416706  0.17812855  0.49029994  1  0  0.077282  0  0.916436  0  0  0.099454  0  0.967207  0  0  0.100173  0  0.967753  0  0  0.09777  0.098842  0  0.966966  0
H  H41  1  0.39581972  0.82186812  0.50969913  1  0  0.077311  0  0.916388  0  0  0.099464  0  0.967211  0  0  0.100183  0  0.967756  0  0  0.097763  0.098851  0  0.966969  0
C  C42  1  0.96131008  0.66108823  0.26816683  1  0  0.681378  0  3.880144  0  0  0.641815  0  4.173919  0  0  0.674213  0  4.167788  0  0  0.192851  0.619809  0  4.177311  0
C  C43  1  0.03868909  0.33890567  0.73183124  1  0  0.681145  0  3.88029  0  0  0.641666  0  4.173938  0  0  0.674062  0  4.167805  0  0  0.192791  0.619661  0  4.177324  0
C  C44  1  0.85074892  0.47131993  0.24356416  1  0  -0.265577  0  3.687887  0  0  -0.30312  0  3.940017  0  0  -0.309303  0  3.949324  0  0  -0.174041  -0.298813  0  3.933482  0
C  C45  1  0.14924815  0.52867789  0.75643509  1  0  -0.26581  0  3.688114  0  0  -0.303269  0  3.940063  0  0  -0.309439  0  3.949352  0  0  -0.174126  -0.298965  0  3.933536  0
C  C46  1  0.68857537  0.43674248  0.27487240  1  0  -0.059113  0  3.70966  0  0  -0.100372  0  3.969194  0  0  -0.100264  0  3.983345  0  0  -0.16466  -0.100231  0  3.959384  0
C  C47  1  0.31143164  0.56325165  0.72513176  1  0  -0.058988  0  3.709728  0  0  -0.100202  0  3.969162  0  0  -0.100094  0  3.983309  0  0  -0.164625  -0.100062  0  3.959347  0
C  C48  1  0.57402366  0.24734624  0.25018174  1  0  -0.254489  0  3.694741  0  0  -0.287616  0  3.943253  0  0  -0.293676  0  3.953562  0  0  -0.169581  -0.283457  0  3.936075  0
C  C49  1  0.42598400  0.75264927  0.74982447  1  0  -0.254665  0  3.694586  0  0  -0.287702  0  3.942975  0  0  -0.293758  0  3.953281  0  0  -0.169582  -0.283529  0  3.935791  0
C  C50  1  0.39584814  0.20277842  0.26560999  1  0  0.672245  0  3.886955  0  0  0.629802  0  4.186272  0  0  0.661604  0  4.181286  0  0  0.190626  0.608205  0  4.188894  0
C  C51  1  0.60416365  0.79720553  0.73439553  1  0  0.672541  0  3.886956  0  0  0.630089  0  4.186239  0  0  0.661889  0  4.181251  0  0  0.190727  0.608492  0  4.188858  0
C  C52  1  0.75945199  0.04375835  0.10070886  1  0  -0.003521  0  3.770764  0  0  -0.038502  0  4.040139  0  0  -0.036573  0  4.05992  0  0  -0.000328  -0.039809  0  4.026896  0
C  C53  1  0.24055853  0.95623928  0.89929031  1  0  -0.003806  0  3.770846  0  0  -0.03886  0  4.040241  0  0  -0.036933  0  4.060024  0  0  -0.000473  -0.040162  0  4.026997  0
C  C54  1  0.72930513  0.10962264  0.02533150  1  0  -0.080675  0  3.706032  0  0  -0.122999  0  3.966692  0  0  -0.122298  0  3.986862  0  0  -0.002071  -0.123458  0  3.953199  0
C  C55  1  0.27069829  0.89036982  0.97466456  1  0  -0.080487  0  3.706186  0  0  -0.122842  0  3.966869  0  0  -0.12214  0  3.987038  0  0  -0.00203  -0.123307  0  3.953382  0
C  C56  1  0.01501127  0.15066296  0.08164443  1  0  0.16698  0  3.656815  0  0  0.101622  0  3.927796  0  0  0.115084  0  3.940893  0  0  0.148431  0.092952  0  3.918632  0
C  C57  1  0.98497267  0.84932982  0.91835279  1  0  0.166945  0  3.656336  0  0  0.101581  0  3.927325  0  0  0.11505  0  3.940411  0  0  0.148354  0.092915  0  3.918158  0
C  C58  1  0.92525394  0.26031879  0.94214554  1  0  -0.018797  0  3.627669  0  0  -0.081641  0  3.889705  0  0  -0.07792  0  3.900329  0  0  -0.05678  -0.08395  0  3.882461  0
C  C59  1  0.07474152  0.73969061  0.05785537  1  0  -0.019203  0  3.628109  0  0  -0.081741  0  3.889815  0  0  -0.078047  0  3.90045  0  0  -0.056838  -0.084019  0  3.882561  0
C  C60  1  0.92620028  0.44108587  0.95735113  1  0  -0.121102  0  3.688513  0  0  -0.16541  0  3.957335  0  0  -0.166524  0  3.971408  0  0  -0.161761  -0.164473  0  3.947562  0
C  C61  1  0.07379197  0.55892116  0.04265236  1  0  -0.121201  0  3.688403  0  0  -0.165585  0  3.957256  0  0  -0.166726  0  3.971364  0  0  -0.161794  -0.164641  0  3.947471  0
C  C62  1  0.04243050  0.23789449  0.40176937  1  0  0.001948  0  3.739117  0  0  -0.03181  0  4.005458  0  0  -0.029983  0  4.024952  0  0  0.005483  -0.033052  0  3.992427  0
C  C63  1  0.95756086  0.76211372  0.59823218  1  0  0.001716  0  3.739276  0  0  -0.032068  0  4.00562  0  0  -0.030252  0  4.025112  0  0  0.005394  -0.033311  0  3.992595  0
C  C64  1  0.95344324  0.22500399  0.46250417  1  0  -0.064167  0  3.6412  0  0  -0.1045  0  3.899769  0  0  -0.104166  0  3.919327  0  0  0.004878  -0.104662  0  3.886792  0
C  C65  1  0.04654603  0.77500272  0.53749262  1  0  -0.064048  0  3.641098  0  0  -0.104351  0  3.899686  0  0  -0.104024  0  3.919259  0  0  0.004916  -0.104545  0  3.886688  0
C  C66  1  0.85015011  0.97614380  0.36666635  1  0  0.155795  0  3.67168  0  0  0.091023  0  3.940287  0  0  0.104976  0  3.952856  0  0  0.144382  0.081991  0  3.931547  0
C  C67  1  0.14985637  0.02385907  0.63333444  1  0  0.155766  0  3.671595  0  0  0.09097  0  3.940202  0  0  0.105  0  3.952801  0  0  0.144392  0.081941  0  3.931433  0
C  C68  1  0.71257042  0.98103705  0.48621013  1  0  -0.003168  0  3.628272  0  0  -0.069321  0  3.890541  0  0  -0.065253  0  3.902241  0  0  -0.054224  -0.071832  0  3.882432  0
C  C69  1  0.28742512  0.01896330  0.51378843  1  0  -0.00307  0  3.628312  0  0  -0.069136  0  3.890516  0  0  -0.065067  0  3.902216  0  0  -0.05421  -0.071643  0  3.88239  0
C  C70  1  0.55452573  0.03779498  0.47120526  1  0  -0.11807  0  3.66508  0  0  -0.157647  0  3.924958  0  0  -0.159444  0  3.939016  0  0  -0.1607  -0.156229  0  3.915129  0
C  C71  1  0.44546936  0.96220413  0.52879379  1  0  -0.118253  0  3.665218  0  0  -0.157915  0  3.92516  0  0  -0.15971  0  3.939212  0  0  -0.160773  -0.156478  0  3.915318  0
N  N72  1  0.93810886  0.07025427  0.13504366  1  0  -0.366697  0  3.300054  0  0  -0.289242  0  3.597428  0  0  -0.308438  0  3.610797  0  0  -0.351761  -0.276274  0  3.588182  0
N  N73  1  0.06189535  0.92974060  0.86495013  1  0  -0.366662  0  3.299646  0  0  -0.289157  0  3.596997  0  0  -0.308352  0  3.610366  0  0  -0.351714  -0.276187  0  3.58775  0
N  N74  1  0.89246896  0.17594682  0.01399939  1  0  -0.062068  0  3.594898  0  0  0.03202  0  3.817249  0  0  0.017354  0  3.844613  0  0  -0.242891  0.041722  0  3.798576  0
N  N75  1  0.10754287  0.82405996  0.98600421  1  0  -0.061952  0  3.594579  0  0  0.032098  0  3.816812  0  0  0.017432  0  3.844185  0  0  -0.242864  0.041803  0  3.798129  0
N  N76  1  0.97679960  0.08130964  0.34251420  1  0  -0.398793  0  3.358942  0  0  -0.318608  0  3.668066  0  0  -0.338816  0  3.679656  0  0  -0.366505  -0.304932  0  3.660003  0
N  N77  1  0.02320302  0.91869588  0.65748747  1  0  -0.398638  0  3.359049  0  0  -0.31842  0  3.668125  0  0  -0.338621  0  3.679693  0  0  -0.366447  -0.304743  0  3.660057  0
N  N78  1  0.83290699  0.05835501  0.43911609  1  0  -0.047909  0  3.571669  0  0  0.046097  0  3.793738  0  0  0.031799  0  3.820892  0  0  -0.237294  0.055526  0  3.775267  0
N  N79  1  0.16708583  0.94164791  0.56088224  1  0  -0.047936  0  3.571891  0  0  0.04606  0  3.793924  0  0  0.031768  0  3.821054  0  0  -0.237299  0.055487  0  3.775463  0
O  O80  1  0.91323712  0.74617038  0.20890096  1  0  -0.686611  0  2.000237  0  0  -0.614293  0  2.266188  0  0  -0.642962  0  2.251376  0  0  -0.358521  -0.594187  0  2.275627  0
O  O81  1  0.08676551  0.25382332  0.79109443  1  0  -0.686463  0  2.000367  0  0  -0.614176  0  2.266281  0  0  -0.642839  0  2.251458  0  0  -0.358456  -0.594073  0  2.275723  0
O  O82  1  0.08388658  0.72759819  0.34236072  1  0  -0.632177  0  1.898302  0  0  -0.586746  0  2.116047  0  0  -0.609053  0  2.107139  0  0  -0.331726  -0.571179  0  2.121718  0
O  O83  1  0.91610197  0.27239704  0.65763600  1  0  -0.63209  0  1.898188  0  0  -0.586753  0  2.115965  0  0  -0.609056  0  2.107054  0  0  -0.331742  -0.571183  0  2.121624  0
O  O84  1  0.29961331  0.03905717  0.24150406  1  0  -0.682811  0  2.023375  0  0  -0.612619  0  2.298988  0  0  -0.640881  0  2.282323  0  0  -0.355469  -0.592768  0  2.309724  0
O  O85  1  0.70039507  0.96093432  0.75849889  1  0  -0.682955  0  2.023298  0  0  -0.612804  0  2.298954  0  0  -0.641074  0  2.282307  0  0  -0.355563  -0.59295  0  2.30969  0
O  O86  1  0.34646883  0.31321336  0.29639565  1  0  -0.619433  0  1.852031  0  0  -0.575861  0  2.055249  0  0  -0.597264  0  2.046574  0  0  -0.339433  -0.560983  0  2.060785  0
O  O87  1  0.65353873  0.68678208  0.70360929  1  0  -0.619476  0  1.852342  0  0  -0.575905  0  2.055557  0  0  -0.597303  0  2.046882  0  0  -0.339421  -0.561031  0  2.061094  0
