# generated using pymatgen
data_AgH18C24N3O4
_symmetry_space_group_name_H-M   'P 1'
_cell_length_a   7.81520641
_cell_length_b   9.60593985
_cell_length_c   13.90201993
_cell_angle_alpha   110.20536782
_cell_angle_beta   92.11980308
_cell_angle_gamma   89.98690059
_symmetry_Int_Tables_number   1
_chemical_formula_structural   AgH18C24N3O4
_chemical_formula_sum   'Ag2 H36 C48 N6 O8'
_cell_volume   978.67416542
_cell_formula_units_Z   2
loop_
 _symmetry_equiv_pos_site_id
 _symmetry_equiv_pos_as_xyz
  1  'x, y, z'
loop_
 _atom_site_type_symbol
 _atom_site_label
 _atom_site_symmetry_multiplicity
 _atom_site_fract_x
 _atom_site_fract_y
 _atom_site_fract_z
 _atom_site_occupancy
 _atom_site_hle17_bader_spin_density
 _atom_site_hle17_ddec_charge
 _atom_site_hle17_ddec_spin_density
 _atom_site_hle17_ddec_sum_bond_order
 _atom_site_hle17_magmom
 _atom_site_hse06_10hf_bader_spin_density
 _atom_site_hse06_10hf_ddec_charge
 _atom_site_hse06_10hf_ddec_spin_density
 _atom_site_hse06_10hf_ddec_sum_bond_order
 _atom_site_hse06_10hf_magmom
 _atom_site_hse06_bader_spin_density
 _atom_site_hse06_ddec_charge
 _atom_site_hse06_ddec_spin_density
 _atom_site_hse06_ddec_sum_bond_order
 _atom_site_hse06_magmom
 _atom_site_pbe_bader_spin_density
 _atom_site_pbe_cm5_charge
 _atom_site_pbe_ddec_charge
 _atom_site_pbe_ddec_spin_density
 _atom_site_pbe_ddec_sum_bond_order
 _atom_site_pbe_magmom
Ag  Ag0  1  0.24900250  0.80072010  0.59758622  1  0  0.523743  0  1.387312  0  0  0.371243  0  1.810392  0  0  0.399335  0  1.770507  0  0  0.472859  0.352392  0  1.836546  0
Ag  Ag1  1  0.74898436  0.79706050  0.59755557  1  0  0.52412  0  1.385884  0  0  0.371262  0  1.808931  0  0  0.399391  0  1.769  0  0  0.473026  0.352289  0  1.835176  0
H  H2  1  0.87668224  0.57465429  0.26277244  1  0  0.109864  0  0.949641  0  0  0.122763  0  1.006761  0  0  0.125271  0  1.007401  0  0  0.107015  0.120423  0  1.007558  0
H  H3  1  0.37639898  0.68834980  0.26267438  1  0  0.109854  0  0.949625  0  0  0.123001  0  1.006371  0  0  0.125502  0  1.007032  0  0  0.107008  0.120682  0  1.007121  0
H  H4  1  0.02361576  0.58619693  0.42688677  1  0  0.085796  0  0.96795  0  0  0.096169  0  1.032781  0  0  0.098111  0  1.030635  0  0  0.115965  0.094671  0  1.03429  0
H  H5  1  0.52331287  0.84099766  0.42676914  1  0  0.086795  0  0.966903  0  0  0.096491  0  1.03225  0  0  0.098413  0  1.030177  0  0  0.115956  0.094999  0  1.033759  0
H  H6  1  0.16273812  0.02781831  0.49459764  1  0  0.086035  0  0.979405  0  0  0.090472  0  1.049635  0  0  0.093306  0  1.046699  0  0  0.115747  0.087866  0  1.052423  0
H  H7  1  0.66306253  0.46721531  0.49456545  1  0  0.086548  0  0.979215  0  0  0.090729  0  1.049738  0  0  0.093569  0  1.046788  0  0  0.115867  0.088141  0  1.052537  0
H  H8  1  0.01131130  0.03778107  0.33722804  1  0  0.116105  0  0.953982  0  0  0.12627  0  1.015378  0  0  0.128651  0  1.015873  0  0  0.111071  0.124099  0  1.015926  0
H  H9  1  0.51171152  0.29980339  0.33722165  1  0  0.116039  0  0.952735  0  0  0.125813  0  1.014789  0  0  0.128105  0  1.015366  0  0  0.111216  0.123712  0  1.01528  0
H  H10  1  0.67792237  0.97156519  0.35720477  1  0  0.094367  0  1.000497  0  0  0.098338  0  1.075008  0  0  0.101794  0  1.072831  0  0  0.097682  0.095993  0  1.076307  0
H  H11  1  0.17797924  0.38620571  0.35721271  1  0  0.094081  0  1.000561  0  0  0.098297  0  1.074826  0  0  0.101777  0  1.072578  0  0  0.097802  0.095974  0  1.076084  0
H  H12  1  0.39185590  0.07580818  0.36029424  1  0  0.10849  0  0.962698  0  0  0.120345  0  1.021235  0  0  0.122862  0  1.020159  0  0  0.10475  0.11837  0  1.022403  0
H  H13  1  0.89193166  0.28513012  0.36034818  1  0  0.109022  0  0.961679  0  0  0.120499  0  1.020926  0  0  0.123006  0  1.019839  0  0  0.104679  0.118553  0  1.022049  0
H  H14  1  0.22392702  0.03943625  0.19614327  1  0  0.087871  0  0.971109  0  0  0.098831  0  1.032685  0  0  0.100671  0  1.033594  0  0  0.097356  0.097495  0  1.032152  0
H  H15  1  0.72411289  0.15711907  0.19621574  1  0  0.087708  0  0.971107  0  0  0.098622  0  1.032856  0  0  0.100521  0  1.033616  0  0  0.097203  0.097259  0  1.032352  0
H  H16  1  0.35154852  0.90975295  0.03026205  1  0  0.083848  0  0.982068  0  0  0.093292  0  1.047712  0  0  0.095992  0  1.047271  0  0  0.094007  0.091411  0  1.048131  0
H  H17  1  0.85191666  0.12051352  0.03033196  1  0  0.083813  0  0.982377  0  0  0.093656  0  1.047579  0  0  0.096315  0  1.047221  0  0  0.094118  0.091794  0  1.047981  0
H  H18  1  0.83517477  0.62571370  0.83087461  1  0  0.101171  0  0.996842  0  0  0.110715  0  1.059356  0  0  0.113479  0  1.058551  0  0  0.099165  0.108888  0  1.059611  0
H  H19  1  0.33544329  0.20521803  0.83085943  1  0  0.100634  0  0.996693  0  0  0.110894  0  1.058363  0  0  0.113698  0  1.05754  0  0  0.098853  0.109024  0  1.05868  0
H  H20  1  0.12043739  0.52329888  0.82784078  1  0  0.097336  0  0.958511  0  0  0.10635  0  1.022457  0  0  0.109422  0  1.020545  0  0  0.100797  0.104055  0  1.024139  0
H  H21  1  0.62090117  0.30400420  0.82777994  1  0  0.097777  0  0.95924  0  0  0.106382  0  1.023549  0  0  0.109449  0  1.021635  0  0  0.10079  0.104082  0  1.025244  0
H  H22  1  0.28635253  0.55513241  0.99294047  1  0  0.08613  0  0.97643  0  0  0.096102  0  1.039926  0  0  0.098073  0  1.040621  0  0  0.096233  0.094699  0  1.039501  0
H  H23  1  0.78732978  0.43646270  0.99286420  1  0  0.086295  0  0.976607  0  0  0.096302  0  1.040168  0  0  0.098265  0  1.040886  0  0  0.096405  0.094907  0  1.039716  0
H  H24  1  0.15446489  0.67696881  0.15837004  1  0  0.083807  0  0.983556  0  0  0.092933  0  1.049897  0  0  0.095509  0  1.049696  0  0  0.094408  0.091126  0  1.050166  0
H  H25  1  0.65526835  0.48023871  0.15832186  1  0  0.083776  0  0.983205  0  0  0.092993  0  1.049326  0  0  0.095615  0  1.049005  0  0  0.094349  0.091169  0  1.049654  0
H  H26  1  0.50019962  0.54610486  0.85047527  1  0  0.111518  0  0.960496  0  0  0.124557  0  1.016869  0  0  0.12656  0  1.018064  0  0  0.110346  0.12259  0  1.017046  0
H  H27  1  0.00063448  0.30421532  0.85024625  1  0  0.112228  0  0.960435  0  0  0.124881  0  1.017403  0  0  0.126888  0  1.018581  0  0  0.110348  0.122937  0  1.017543  0
H  H28  1  0.34353556  0.55592851  0.69424141  1  0  0.084685  0  0.96581  0  0  0.089323  0  1.035596  0  0  0.091196  0  1.033924  0  0  0.118114  0.087639  0  1.037083  0
H  H29  1  0.84358606  0.13827197  0.69423494  1  0  0.085202  0  0.965928  0  0  0.089854  0  1.035744  0  0  0.091648  0  1.034132  0  0  0.118315  0.088216  0  1.037178  0
H  H30  1  0.46637290  0.00071945  0.76540593  1  0  0.089936  0  0.984869  0  0  0.100365  0  1.046944  0  0  0.102191  0  1.045181  0  0  0.115263  0.099047  0  1.048077  0
H  H31  1  0.96620932  0.76469867  0.76555062  1  0  0.09048  0  0.984337  0  0  0.10117  0  1.046111  0  0  0.103009  0  1.044304  0  0  0.115427  0.099854  0  1.047248  0
H  H32  1  0.62189088  0.01179037  0.92762894  1  0  0.110861  0  0.944612  0  0  0.123334  0  1.002017  0  0  0.125879  0  1.00263  0  0  0.107896  0.120865  0  1.003016  0
H  H33  1  0.12200935  0.91568605  0.92764841  1  0  0.110703  0  0.945837  0  0  0.12341  0  1.002724  0  0  0.125923  0  1.003397  0  0  0.108054  0.12095  0  1.003691  0
H  H34  1  0.44536804  0.09186643  0.62081655  1  0  0.39564  0  0.919806  0  0  0.363197  0  0.989935  0  0  0.374028  0  0.973646  0  0  0.273807  0.35524  0  1.001873  0
H  H35  1  0.94529570  0.52880885  0.62092333  1  0  0.395558  0  0.91997  0  0  0.363203  0  0.989967  0  0  0.37403  0  0.973685  0  0  0.273704  0.355261  0  1.001877  0
H  H36  1  0.26959257  0.17208995  0.64875843  1  0  0.402206  0  0.908644  0  0  0.368449  0  0.979122  0  0  0.379399  0  0.962996  0  0  0.275927  0.36122  0  0.989617  0
H  H37  1  0.76951890  0.47647690  0.64873604  1  0  0.401966  0  0.908878  0  0  0.368613  0  0.97895  0  0  0.379564  0  0.96279  0  0  0.276104  0.361322  0  0.989556  0
C  C38  1  0.93138085  0.80607618  0.28485042  1  0  0.114811  0  3.755401  0  0  0.12966  0  3.98294  0  0  0.134421  0  4.004011  0  0  0.019532  0.126592  0  3.968379  0
C  C39  1  0.43157476  0.47905466  0.28478552  1  0  0.112523  0  3.75748  0  0  0.127043  0  3.985729  0  0  0.131855  0  4.006778  0  0  0.018322  0.123925  0  3.971191  0
C  C40  1  0.93677982  0.67834441  0.31201534  1  0  -0.153381  0  3.696353  0  0  -0.173435  0  3.94332  0  0  -0.181145  0  3.965391  0  0  -0.083146  -0.168409  0  3.929165  0
C  C41  1  0.43657720  0.63393533  0.31192918  1  0  -0.152843  0  3.696566  0  0  -0.172957  0  3.943535  0  0  -0.180709  0  3.965582  0  0  -0.082582  -0.167802  0  3.929277  0
C  C42  1  0.01927970  0.68310936  0.40331313  1  0  0.100638  0  3.741592  0  0  0.069147  0  3.991587  0  0  0.076304  0  4.010279  0  0  0.034016  0.064174  0  3.979661  0
C  C43  1  0.51900598  0.72053221  0.40323131  1  0  0.099574  0  3.739592  0  0  0.068342  0  3.989721  0  0  0.075607  0  4.008181  0  0  0.033402  0.063171  0  3.978095  0
C  C44  1  0.09541425  0.93036584  0.44199290  1  0  0.131597  0  3.674764  0  0  0.102068  0  3.916872  0  0  0.108733  0  3.93573  0  0  0.046562  0.09789  0  3.904304  0
C  C45  1  0.59555364  0.51204434  0.44197564  1  0  0.129824  0  3.676073  0  0  0.100387  0  3.918031  0  0  0.107037  0  3.936932  0  0  0.046266  0.096237  0  3.905375  0
C  C46  1  0.01188809  0.93436472  0.35293385  1  0  -0.137774  0  3.666948  0  0  -0.15623  0  3.909553  0  0  -0.163258  0  3.930119  0  0  -0.073409  -0.1516  0  3.896036  0
C  C47  1  0.51216858  0.41891701  0.35290069  1  0  -0.135478  0  3.664134  0  0  -0.153799  0  3.907507  0  0  -0.160768  0  3.928065  0  0  -0.072968  -0.149235  0  3.893983  0
C  C48  1  0.84247595  0.80304219  0.18764945  1  0  -0.037153  0  3.700155  0  0  -0.032075  0  3.937275  0  0  -0.03343  0  3.959138  0  0  -0.001575  -0.030781  0  3.921786  0
C  C49  1  0.34265341  0.38478235  0.18760729  1  0  -0.036739  0  3.698385  0  0  -0.031603  0  3.935776  0  0  -0.032973  0  3.957606  0  0  -0.001466  -0.030358  0  3.920369  0
C  C50  1  0.68198187  0.87148325  0.19055353  1  0  0.021751  0  3.775296  0  0  0.030214  0  4.009289  0  0  0.029858  0  4.03343  0  0  -0.005789  0.030576  0  3.992668  0
C  C51  1  0.18208915  0.31946303  0.19057382  1  0  0.021352  0  3.776357  0  0  0.029279  0  4.010331  0  0  0.028897  0  4.034506  0  0  -0.006521  0.029668  0  3.993707  0
C  C52  1  0.60654899  0.95356501  0.28509289  1  0  -0.118125  0  3.748547  0  0  -0.136562  0  3.999434  0  0  -0.139722  0  4.020327  0  0  -0.093553  -0.134238  0  3.985891  0
C  C53  1  0.10656145  0.33213423  0.28512633  1  0  -0.116915  0  3.749643  0  0  -0.135383  0  4.000359  0  0  -0.138497  0  4.021226  0  0  -0.09303  -0.133144  0  3.986866  0
C  C54  1  0.44645074  0.01343078  0.28707100  1  0  -0.077521  0  3.752565  0  0  -0.091321  0  4.001912  0  0  -0.092891  0  4.022327  0  0  -0.09511  -0.090529  0  3.989496  0
C  C55  1  0.94652050  0.27421098  0.28709933  1  0  -0.078371  0  3.75337  0  0  -0.092127  0  4.002971  0  0  -0.093698  0  4.023422  0  0  -0.095466  -0.091397  0  3.990556  0
C  C56  1  0.35255176  0.99507696  0.19397118  1  0  -0.063486  0  3.778062  0  0  -0.079959  0  4.032462  0  0  -0.080969  0  4.053624  0  0  -0.09424  -0.079111  0  4.018057  0
C  C57  1  0.85269921  0.19929933  0.19399531  1  0  -0.062852  0  3.778441  0  0  -0.079312  0  4.032976  0  0  -0.080322  0  4.054149  0  0  -0.093794  -0.078412  0  4.018569  0
C  C58  1  0.42356770  0.92250355  0.10138662  1  0  -0.119401  0  3.75855  0  0  -0.137349  0  4.008673  0  0  -0.140131  0  4.029454  0  0  -0.096762  -0.135265  0  3.994157  0
C  C59  1  0.92385153  0.17905433  0.10142414  1  0  -0.119961  0  3.760186  0  0  -0.138518  0  4.009992  0  0  -0.141293  0  4.03078  0  0  -0.09697  -0.136482  0  3.995471  0
C  C60  1  0.59003637  0.85946846  0.09570183  1  0  0.023918  0  3.772874  0  0  0.032093  0  4.006905  0  0  0.032084  0  4.030123  0  0  -0.006961  0.032197  0  3.99078  0
C  C61  1  0.09028034  0.23639356  0.09571792  1  0  0.024174  0  3.77343  0  0  0.033823  0  4.005787  0  0  0.033797  0  4.028987  0  0  -0.006296  0.033966  0  3.989661  0
C  C62  1  0.66392979  0.78354458  0.00094588  1  0  -0.041953  0  3.708546  0  0  -0.038392  0  3.948689  0  0  -0.039832  0  3.970482  0  0  -0.003186  -0.036934  0  3.933166  0
C  C63  1  0.16420209  0.21733413  0.00091826  1  0  -0.041752  0  3.70719  0  0  -0.038807  0  3.947947  0  0  -0.040192  0  3.969597  0  0  -0.003389  -0.037454  0  3.932506  0
C  C64  1  0.82566847  0.71741589  0.99802591  1  0  0.022749  0  3.783821  0  0  0.031186  0  4.018765  0  0  0.03098  0  4.042581  0  0  -0.006636  0.031386  0  4.002413  0
C  C65  1  0.32600449  0.28039548  0.99797509  1  0  0.022004  0  3.78354  0  0  0.029637  0  4.020053  0  0  0.02938  0  4.043884  0  0  -0.006865  0.02992  0  4.003654  0
C  C66  1  0.90347594  0.63954701  0.90341913  1  0  -0.12272  0  3.743767  0  0  -0.139606  0  3.988922  0  0  -0.142795  0  4.010155  0  0  -0.094366  -0.137219  0  3.975222  0
C  C67  1  0.40385413  0.26372021  0.90339098  1  0  -0.121947  0  3.743251  0  0  -0.139048  0  3.988225  0  0  -0.142275  0  4.009424  0  0  -0.093428  -0.136684  0  3.974546  0
C  C68  1  0.06463886  0.58176694  0.90157149  1  0  -0.078401  0  3.773519  0  0  -0.09038  0  4.023374  0  0  -0.09184  0  4.043514  0  0  -0.095491  -0.089662  0  4.011096  0
C  C69  1  0.56516919  0.31932519  0.90153687  1  0  -0.078683  0  3.773643  0  0  -0.090352  0  4.023555  0  0  -0.091786  0  4.043707  0  0  -0.09584  -0.089662  0  4.011268  0
C  C70  1  0.15696358  0.59760014  0.99476505  1  0  -0.069211  0  3.788404  0  0  -0.086748  0  4.044925  0  0  -0.088061  0  4.066409  0  0  -0.095994  -0.085672  0  4.030212  0
C  C71  1  0.65777198  0.39621100  0.99471711  1  0  -0.069333  0  3.787814  0  0  -0.086952  0  4.044298  0  0  -0.088279  0  4.065787  0  0  -0.096165  -0.085837  0  4.029556  0
C  C72  1  0.08370193  0.66615590  0.08720442  1  0  -0.113658  0  3.753135  0  0  -0.131529  0  4.003538  0  0  -0.134146  0  4.02425  0  0  -0.095065  -0.129542  0  3.989074  0
C  C73  1  0.58438827  0.42019897  0.08714522  1  0  -0.113393  0  3.751861  0  0  -0.131229  0  4.002047  0  0  -0.133835  0  4.022776  0  0  -0.094253  -0.129277  0  3.987569  0
C  C74  1  0.91675354  0.72812612  0.09287712  1  0  0.021496  0  3.774912  0  0  0.029847  0  4.007605  0  0  0.029789  0  4.030629  0  0  -0.00726  0.02999  0  3.991614  0
C  C75  1  0.41718510  0.36435497  0.09281273  1  0  0.02177  0  3.77312  0  0  0.030532  0  4.00583  0  0  0.030497  0  4.028817  0  0  -0.007529  0.030698  0  3.989839  0
C  C76  1  0.57363553  0.77912050  0.90392841  1  0  0.117739  0  3.759548  0  0  0.131732  0  3.988915  0  0  0.136712  0  4.009904  0  0  0.020139  0.128449  0  3.974388  0
C  C77  1  0.07394927  0.12470567  0.90388677  1  0  0.118061  0  3.758413  0  0  0.132116  0  3.98805  0  0  0.137221  0  4.00878  0  0  0.020088  0.128805  0  3.973581  0
C  C78  1  0.49575141  0.64990028  0.83525131  1  0  -0.140142  0  3.661105  0  0  -0.156215  0  3.897581  0  0  -0.163714  0  3.918786  0  0  -0.073757  -0.151107  0  3.883648  0
C  C79  1  0.99616348  0.18524156  0.83512563  1  0  -0.139902  0  3.661682  0  0  -0.155882  0  3.898305  0  0  -0.163437  0  3.919481  0  0  -0.073505  -0.15075  0  3.884306  0
C  C80  1  0.40893471  0.65399611  0.74710875  1  0  0.136618  0  3.677276  0  0  0.108622  0  3.918797  0  0  0.115676  0  3.938156  0  0  0.0503  0.104045  0  3.905997  0
C  C81  1  0.90907332  0.09309465  0.74710614  1  0  0.135974  0  3.677679  0  0  0.108144  0  3.919091  0  0  0.115247  0  3.938487  0  0  0.050779  0.10357  0  3.906193  0
C  C82  1  0.47737833  0.90303496  0.78785501  1  0  0.099406  0  3.732413  0  0  0.068822  0  3.980435  0  0  0.076005  0  3.999045  0  0  0.033121  0.063631  0  3.968901  0
C  C83  1  0.97728829  0.88481070  0.78794493  1  0  0.099039  0  3.730634  0  0  0.06793  0  3.979277  0  0  0.075238  0  3.997628  0  0  0.032688  0.062779  0  3.967608  0
C  C84  1  0.56347811  0.90756418  0.87796813  1  0  -0.152917  0  3.701064  0  0  -0.172711  0  3.949196  0  0  -0.18043  0  3.970809  0  0  -0.08149  -0.167602  0  3.935506  0
C  C85  1  0.06362408  0.97031494  0.87798390  1  0  -0.153584  0  3.701466  0  0  -0.173383  0  3.949738  0  0  -0.181147  0  3.971299  0  0  -0.081358  -0.168192  0  3.935971  0
N  N86  1  0.09970281  0.80670176  0.46712281  1  0  -0.319135  0  3.402635  0  0  -0.223359  0  3.677314  0  0  -0.243638  0  3.694781  0  0  -0.356865  -0.209977  0  3.665099  0
N  N87  1  0.59965384  0.66080764  0.46703722  1  0  -0.318595  0  3.403609  0  0  -0.221986  0  3.677086  0  0  -0.242296  0  3.694584  0  0  -0.356236  -0.208526  0  3.664784  0
N  N88  1  0.39820137  0.77881218  0.72374661  1  0  -0.313453  0  3.387792  0  0  -0.218335  0  3.662726  0  0  -0.238705  0  3.680144  0  0  -0.354728  -0.204928  0  3.650788  0
N  N89  1  0.89819316  0.94494167  0.72380332  1  0  -0.313657  0  3.386404  0  0  -0.218532  0  3.66144  0  0  -0.238897  0  3.678826  0  0  -0.355144  -0.205042  0  3.649415  0
N  N90  1  0.18287742  0.35175728  0.55900271  1  0  0.698668  0  4.136954  0  0  0.727162  0  4.435776  0  0  0.755039  0  4.441526  0  0  0.098538  0.708963  0  4.431188  0
N  N91  1  0.68282642  0.20697233  0.55884419  1  0  0.695736  0  4.137266  0  0  0.727393  0  4.432446  0  0  0.755099  0  4.438399  0  0  0.098699  0.708859  0  4.427899  0
O  O92  1  0.15357155  0.32835561  0.64190997  1  0  -0.486299  0  1.735764  0  0  -0.468536  0  1.939998  0  0  -0.483966  0  1.93267  0  0  -0.199662  -0.457413  0  1.944256  0
O  O93  1  0.65373282  0.31323332  0.64180588  1  0  -0.484569  0  1.735179  0  0  -0.467832  0  1.938447  0  0  -0.483207  0  1.931149  0  0  -0.199222  -0.456562  0  1.942761  0
O  O94  1  0.26439335  0.26035823  0.48933197  1  0  -0.446385  0  1.744935  0  0  -0.438501  0  1.954658  0  0  -0.45202  0  1.950257  0  0  -0.184304  -0.428563  0  1.957467  0
O  O95  1  0.76398635  0.22873739  0.48906415  1  0  -0.446121  0  1.744784  0  0  -0.439458  0  1.953672  0  0  -0.452976  0  1.949449  0  0  -0.184845  -0.429256  0  1.956375  0
O  O96  1  0.12903162  0.47186700  0.54842055  1  0  -0.512917  0  1.785058  0  0  -0.494815  0  2.019474  0  0  -0.510017  0  2.007899  0  0  -0.20388  -0.483537  0  2.026304  0
O  O97  1  0.62914839  0.07625931  0.54830521  1  0  -0.511848  0  1.785394  0  0  -0.494455  0  2.018837  0  0  -0.50959  0  2.007314  0  0  -0.203707  -0.483021  0  2.025695  0
O  O98  1  0.33714884  0.08788811  0.65508135  1  0  -0.84538  0  1.869828  0  0  -0.788102  0  2.056211  0  0  -0.80731  0  2.022647  0  0  -0.608002  -0.774551  0  2.079022  0
O  O99  1  0.83700719  0.56703301  0.65512674  1  0  -0.845474  0  1.869123  0  0  -0.78852  0  2.054074  0  0  -0.8077  0  2.020576  0  0  -0.60827  -0.774973  0  2.076987  0
