# generated using pymatgen
data_Co3H50C64N4O19
_symmetry_space_group_name_H-M   'P 1'
_cell_length_a   16.08333184
_cell_length_b   18.00779199
_cell_length_c   18.00779282
_cell_angle_alpha   64.77151672
_cell_angle_beta   73.83792730
_cell_angle_gamma   73.83798544
_symmetry_Int_Tables_number   1
_chemical_formula_structural   Co3H50C64N4O19
_chemical_formula_sum   'Co6 H100 C128 N8 O38'
_cell_volume   4454.35160317
_cell_formula_units_Z   2
loop_
 _symmetry_equiv_pos_site_id
 _symmetry_equiv_pos_as_xyz
  1  'x, y, z'
loop_
 _atom_site_type_symbol
 _atom_site_label
 _atom_site_symmetry_multiplicity
 _atom_site_fract_x
 _atom_site_fract_y
 _atom_site_fract_z
 _atom_site_occupancy
 _atom_site_pbe_bader_charge
 _atom_site_pbe_bader_spin_density
 _atom_site_pbe_cm5_charge
 _atom_site_pbe_ddec_charge
 _atom_site_pbe_ddec_spin_density
 _atom_site_pbe_ddec_sum_bond_order
 _atom_site_pbe_magmom
Co  Co0  1  0.44774003  0.86231815  0.67141522  1  1.239204  2.584887  0.657349  0.874002  2.780438  2.439076  2.542
Co  Co1  1  0.05226385  0.32857842  0.13768177  1  1.239162  2.584878  0.657338  0.873942  2.780428  2.439159  2.542
Co  Co2  1  0.55226034  0.13768523  0.32857942  1  1.239126  2.584872  0.657386  0.873971  2.780424  2.439256  2.542
Co  Co3  1  0.94774047  0.67141121  0.86231873  1  1.239239  2.58488  0.657319  0.873972  2.780432  2.439227  2.542
Co  Co4  1  0.49999491  0.99999684  0.50000197  1  1.342596  2.58725  0.658105  1.053865  2.809069  2.368658  2.576
Co  Co5  1  0.99999767  0.49999913  0.99999933  1  1.342733  2.58725  0.658059  1.053812  2.809073  2.368752  2.576
H  H6  1  0.68604589  0.43761677  0.65769465  1  0.049717  3e-06  0.100961  0.070123  1e-06  0.977442  0.0
H  H7  1  0.81395401  0.34230231  0.56238031  1  0.049679  3e-06  0.100951  0.070128  1e-06  0.977434  0.0
H  H8  1  0.31395455  0.56238284  0.34230432  1  0.049693  3e-06  0.100936  0.070084  1e-06  0.977473  0.0
H  H9  1  0.18604514  0.65769731  0.43761785  1  0.049752  3e-06  0.100942  0.070084  1e-06  0.977503  0.0
H  H10  1  0.65512503  0.38054584  0.61171135  1  0.063575  1e-06  0.099743  0.067033  0.0  0.983165  0.0
H  H11  1  0.84487007  0.38828838  0.61945004  1  0.063647  1e-06  0.099786  0.067063  0.0  0.983167  0.0
H  H12  1  0.34487282  0.61945376  0.38828825  1  0.063605  1e-06  0.099749  0.067034  0.0  0.983141  0.0
H  H13  1  0.15512807  0.61171313  0.38054592  1  0.063629  1e-06  0.099763  0.067059  0.0  0.983126  0.0
H  H14  1  0.53342958  0.24462144  0.81756270  1  0.075564  2.4e-05  0.106072  0.075826  1.2e-05  0.984825  0.0
H  H15  1  0.96657005  0.18244353  0.75537829  1  0.075474  2.4e-05  0.106058  0.075803  1.2e-05  0.984823  0.0
H  H16  1  0.46657522  0.75537563  0.18243903  1  0.07524  2.4e-05  0.106063  0.075813  1.2e-05  0.984804  0.0
H  H17  1  0.03342945  0.81756415  0.24462144  1  0.075652  2.4e-05  0.106073  0.075828  1.2e-05  0.984829  0.0
H  H18  1  0.64873438  0.21769145  0.77806616  1  0.04466  2.1e-05  0.101992  0.069671  8e-06  0.993115  0.0
H  H19  1  0.85126541  0.22194406  0.78230479  1  0.044603  2.1e-05  0.102027  0.069745  8e-06  0.99308  0.0
H  H20  1  0.35127134  0.78230747  0.22193680  1  0.044845  2.1e-05  0.102019  0.069766  8e-06  0.993138  0.0
H  H21  1  0.14873491  0.77806614  0.21769146  1  0.044677  2.1e-05  0.102001  0.069681  8e-06  0.993099  0.0
H  H22  1  0.49908847  0.41438731  0.66607309  1  0.039921  1.1e-05  0.10461  0.073639  5e-06  0.979835  0.0
H  H23  1  0.00091235  0.33392796  0.58560612  1  0.03992  1.1e-05  0.104586  0.073587  5e-06  0.979919  0.0
H  H24  1  0.50091606  0.58560794  0.33392502  1  0.040009  1.1e-05  0.104615  0.073634  5e-06  0.979892  0.0
H  H25  1  0.99908633  0.66607421  0.41438666  1  0.039894  1.1e-05  0.104583  0.073624  5e-06  0.979868  0.0
H  H26  1  0.52431777  0.47675091  0.70987018  1  0.074527  8e-06  0.106324  0.075323  3e-06  0.998543  0.0
H  H27  1  0.97568314  0.29012462  0.52324726  1  0.074447  8e-06  0.106335  0.07536  3e-06  0.998485  0.0
H  H28  1  0.47568474  0.52324811  0.29012464  1  0.074492  8e-06  0.106343  0.07538  3e-06  0.998543  0.0
H  H29  1  0.02431750  0.70987064  0.47675068  1  0.074547  8e-06  0.106333  0.075364  3e-06  0.998517  0.0
H  H30  1  0.68909112  0.31579175  0.82836826  1  0.05632  2.3e-05  0.105305  0.074506  1.1e-05  1.005156  0.0
H  H31  1  0.81091085  0.17162826  0.68421142  1  0.056327  2.3e-05  0.105324  0.074553  1.1e-05  1.00517  0.0
H  H32  1  0.31090867  0.68420782  0.17163365  1  0.056334  2.3e-05  0.105295  0.074477  1.1e-05  1.005202  0.0
H  H33  1  0.18908995  0.82836941  0.31579270  1  0.056379  2.3e-05  0.105292  0.074425  1.1e-05  1.005238  0.0
H  H34  1  0.57486234  0.32663086  0.87735308  1  0.075313  9e-06  0.103401  0.075519  3e-06  0.975997  0.0
H  H35  1  0.92514207  0.12264600  0.67337149  1  0.075237  9e-06  0.103368  0.07554  3e-06  0.97592  0.0
H  H36  1  0.42513656  0.67336998  0.12264686  1  0.075313  9e-06  0.103412  0.075561  3e-06  0.975987  0.0
H  H37  1  0.07486018  0.87735416  0.32663292  1  0.075285  9e-06  0.103383  0.075501  3e-06  0.975956  0.0
H  H38  1  0.50611242  0.26868124  0.57368492  1  0.072606  5e-05  0.10769  0.12105  1.7e-05  0.985156  0.0
H  H39  1  0.99388705  0.42632541  0.73130883  1  0.072278  4.9e-05  0.107658  0.120967  1.7e-05  0.985225  0.0
H  H40  1  0.49388489  0.73131765  0.42632178  1  0.072482  4.9e-05  0.107668  0.120988  1.7e-05  0.985149  0.0
H  H41  1  0.00611238  0.57368608  0.26868378  1  0.072559  5e-05  0.107669  0.120982  1.7e-05  0.985183  0.0
H  H42  1  0.46255567  0.14938102  0.56589494  1  0.122826  0.000227  0.110141  0.119072  -3.9e-05  1.004  0.0
H  H43  1  0.03744124  0.43411879  0.85060929  1  0.123343  0.000226  0.110132  0.118973  -3.9e-05  1.00391  0.0
H  H44  1  0.53743621  0.85061911  0.43411368  1  0.123562  0.000226  0.110141  0.119041  -3.9e-05  1.003956  0.0
H  H45  1  0.96255896  0.56589207  0.14938338  1  0.123152  0.000227  0.110187  0.119078  -3.9e-05  1.003949  0.0
H  H46  1  0.53366717  0.98968136  0.80505112  1  0.094039  0.000588  0.106621  0.110797  0.000258  0.988362  0.0
H  H47  1  0.96634152  0.19495639  0.01030576  1  0.094409  0.000588  0.106648  0.110901  0.000258  0.988455  0.0
H  H48  1  0.46633642  0.01031197  0.19495135  1  0.094221  0.000588  0.106595  0.110807  0.000258  0.988442  0.0
H  H49  1  0.03366370  0.80505201  0.98968449  1  0.094124  0.000588  0.106631  0.11082  0.000258  0.988378  0.0
H  H50  1  0.57736447  0.10763490  0.81366950  1  0.056304  9.3e-05  0.100529  0.110287  3.2e-05  1.021037  0.0
H  H51  1  0.92264193  0.18633964  0.89235281  1  0.055356  9.3e-05  0.100471  0.110195  3.2e-05  1.020987  0.0
H  H52  1  0.42264531  0.89235656  0.18633335  1  0.05569  9.3e-05  0.10048  0.110228  3.2e-05  1.021052  0.0
H  H53  1  0.07735763  0.81367125  0.10763835  1  0.055537  9.3e-05  0.100542  0.110309  3.2e-05  1.021014  0.0
H  H54  1  0.31527558  0.35183899  0.90898453  1  0.089091  3.1e-05  0.107584  0.124286  4e-06  0.98197  0.0
H  H55  1  0.18472569  0.09101169  0.64816175  1  0.08904  3.1e-05  0.107591  0.124266  4e-06  0.982046  0.0
H  H56  1  0.68472839  0.64816252  0.09101000  1  0.088479  3.1e-05  0.107599  0.124228  4e-06  0.982105  0.0
H  H57  1  0.81527684  0.90899037  0.35183902  1  0.089084  3.1e-05  0.107584  0.124237  4e-06  0.982022  0.0
H  H58  1  0.16818702  0.44167685  0.92286986  1  0.139137  -0.00013  0.106214  0.119605  -0.000537  1.060505  0.0
H  H59  1  0.33181152  0.07712733  0.55832444  1  0.139066  -0.000131  0.106297  0.119746  -0.000537  1.060569  0.0
H  H60  1  0.83181448  0.55832403  0.07712609  1  0.139011  -0.000131  0.106289  0.119713  -0.000538  1.060558  0.0
H  H61  1  0.66818777  0.92287473  0.44167711  1  0.139077  -0.000131  0.106259  0.119676  -0.000537  1.060489  0.0
H  H62  1  0.25512330  0.63675812  0.69353783  1  0.072978  0.000149  0.101699  0.102814  5.5e-05  1.016016  0.0
H  H63  1  0.24487927  0.30645871  0.36324479  1  0.073088  0.000149  0.10169  0.102766  5.5e-05  1.016046  0.0
H  H64  1  0.74488082  0.36324588  0.30645618  1  0.072983  0.000149  0.101684  0.102777  5.5e-05  1.016013  0.0
H  H65  1  0.75512194  0.69354026  0.63675537  1  0.07303  0.000149  0.101693  0.102778  5.5e-05  1.01606  0.0
H  H66  1  0.39998365  0.54570227  0.67570462  1  0.066863  7.8e-05  0.101039  0.11277  3.3e-05  1.018522  0.0
H  H67  1  0.10001992  0.32429341  0.45429912  1  0.066976  7.8e-05  0.101031  0.112752  3.3e-05  1.018435  0.0
H  H68  1  0.60001980  0.45429862  0.32428975  1  0.067001  7.8e-05  0.101042  0.112818  3.3e-05  1.018419  0.0
H  H69  1  0.89998193  0.67570555  0.54570087  1  0.066918  7.8e-05  0.101016  0.11272  3.3e-05  1.018453  0.0
H  H70  1  0.63955301  0.58686035  0.75599679  1  0.092678  9.5e-05  0.105727  0.120747  7e-06  1.003957  0.0
H  H71  1  0.86044197  0.24400252  0.41314270  1  0.092799  9.5e-05  0.105737  0.120713  7e-06  1.003972  0.0
H  H72  1  0.36044213  0.41313986  0.24400434  1  0.092713  9.5e-05  0.105727  0.120746  7e-06  1.003888  0.0
H  H73  1  0.13955146  0.75599640  0.58686271  1  0.092638  9.5e-05  0.105743  0.120794  7e-06  1.00399  0.0
H  H74  1  0.73449162  0.63672062  0.80644790  1  0.076702  0.000218  0.103185  0.10492  1.2e-05  1.025206  0.0
H  H75  1  0.76549401  0.19356158  0.36328300  1  0.076833  0.000218  0.103164  0.104952  1.2e-05  1.025239  0.0
H  H76  1  0.26549979  0.36328206  0.19355533  1  0.076845  0.000218  0.103191  0.104963  1.2e-05  1.025207  0.0
H  H77  1  0.23449071  0.80644543  0.63672284  1  0.076673  0.000218  0.103197  0.104981  1.2e-05  1.02513  0.0
H  H78  1  0.81332095  0.38586324  0.97424694  1  0.082135  0.000213  0.104488  0.107092  5.8e-05  1.009406  0.0
H  H79  1  0.68667014  0.02575544  0.61413868  1  0.081886  0.000213  0.104486  0.107119  5.7e-05  1.009258  0.0
H  H80  1  0.18667770  0.61413884  0.02575254  1  0.082093  0.000213  0.104474  0.107095  5.7e-05  1.009372  0.0
H  H81  1  0.31332443  0.97424101  0.38586582  1  0.082  0.000213  0.104517  0.107085  5.8e-05  1.009376  0.0
H  H82  1  0.71581756  0.33536449  0.92789579  1  0.061362  0.000162  0.100944  0.111972  6.6e-05  1.015516  0.0
H  H83  1  0.78417928  0.07210035  0.66463666  1  0.061293  0.000162  0.100943  0.111992  6.6e-05  1.015418  0.0
H  H84  1  0.28418352  0.66463512  0.07210246  1  0.061322  0.000162  0.100925  0.112006  6.6e-05  1.015496  0.0
H  H85  1  0.21582197  0.92789175  0.33536579  1  0.061385  0.000161  0.10097  0.111991  6.6e-05  1.015501  0.0
H  H86  1  0.28712389  0.75910136  0.74909595  1  0.161698  0.000696  0.123435  0.121597  9.8e-05  1.015987  0.001
H  H87  1  0.21288536  0.25089265  0.24089769  1  0.161531  0.000696  0.123409  0.121592  9.8e-05  1.015908  0.001
H  H88  1  0.71288044  0.24089826  0.25090095  1  0.161915  0.000696  0.123431  0.121544  9.8e-05  1.015883  0.001
H  H89  1  0.78712693  0.74909259  0.75910491  1  0.161611  0.000696  0.123439  0.121588  9.8e-05  1.015964  0.001
H  H90  1  0.29845327  0.61067004  0.88785188  1  0.169015  0.000743  0.128043  0.132687  0.000278  1.010687  0.0
H  H91  1  0.20154264  0.11214548  0.38933872  1  0.168935  0.000743  0.128024  0.132704  0.000278  1.010521  0.0
H  H92  1  0.70154270  0.38933576  0.11214949  1  0.168997  0.000743  0.128029  0.132688  0.000278  1.010585  0.0
H  H93  1  0.79845742  0.88784593  0.61066985  1  0.165913  0.000744  0.128035  0.132665  0.000278  1.010702  0.0
H  H94  1  0.53809413  0.70216468  0.80975386  1  0.162737  0.000643  0.142905  0.120526  0.00013  1.009522  0.0
H  H95  1  0.96190811  0.19025205  0.29782871  1  0.162886  0.000643  0.142914  0.120568  0.00013  1.009489  0.0
H  H96  1  0.46190699  0.29782800  0.19025226  1  0.163042  0.000643  0.142916  0.120521  0.00013  1.009541  0.0
H  H97  1  0.03809484  0.80975129  0.70216865  1  0.163354  0.000642  0.142921  0.120551  0.00013  1.009532  0.0
H  H98  1  0.39873060  0.48046058  0.92987505  1  0.103529  3e-05  0.110533  0.117388  1e-05  1.011424  0.0
H  H99  1  0.10126368  0.07013249  0.51953933  1  0.104232  3e-05  0.110514  0.117387  1e-05  1.011462  0.0
H  H100  1  0.60126719  0.51953581  0.07013312  1  0.104211  3e-05  0.110501  0.117388  1e-05  1.011395  0.0
H  H101  1  0.89873355  0.92987019  0.48046304  1  0.103937  3e-05  0.110518  0.117334  1e-05  1.011473  0.0
H  H102  1  0.53684124  0.63975111  0.95558496  1  0.077215  2.6e-05  0.114621  0.119746  -8e-06  0.98415  0.0
H  H103  1  0.96315509  0.04441914  0.36024597  1  0.07733  2.6e-05  0.114627  0.119805  -8e-06  0.984091  0.0
H  H104  1  0.46315409  0.36024469  0.04442128  1  0.077323  2.6e-05  0.11462  0.119788  -8e-06  0.984091  0.0
H  H105  1  0.03684021  0.95558358  0.63975296  1  0.077216  2.6e-05  0.114627  0.119772  -8e-06  0.984144  0.0
C  C106  1  0.59933103  0.35105728  0.74380976  1  0.083831  7e-06  -0.01986  0.046656  1e-06  3.816352  0.0
C  C107  1  0.90066955  0.25619086  0.64893816  1  0.083963  7e-06  -0.019801  0.046927  1e-06  3.815967  0.0
C  C108  1  0.40067172  0.64894044  0.25619054  1  0.083916  7e-06  -0.019758  0.04692  1e-06  3.816072  0.0
C  C109  1  0.09932936  0.74381000  0.35105954  1  0.084235  7e-06  -0.019818  0.046785  1e-06  3.816089  0.0
C  C110  1  0.67371759  0.37612458  0.66829495  1  0.41574  4e-06  -0.066543  -0.02438  2e-06  3.897444  0.0
C  C111  1  0.82627935  0.33170364  0.62387341  1  0.415896  4e-06  -0.066553  -0.024464  2e-06  3.897492  0.0
C  C112  1  0.32628374  0.62387377  0.33170432  1  0.41571  4e-06  -0.066496  -0.02433  2e-06  3.897315  0.0
C  C113  1  0.17371891  0.66829721  0.37612557  1  0.415665  4e-06  -0.066508  -0.024369  2e-06  3.897342  0.0
C  C114  1  0.58730374  0.26253657  0.76385450  1  0.409029  -1e-06  -0.062062  -0.023402  -1e-06  3.86971  0.0
C  C115  1  0.91269635  0.23615195  0.73745794  1  0.408994  -1e-06  -0.062106  -0.023496  -1e-06  3.869525  0.0
C  C116  1  0.41270065  0.73745926  0.23614784  1  0.409168  -1e-06  -0.062154  -0.023613  -1e-06  3.869837  0.0
C  C117  1  0.08730380  0.76385578  0.26253772  1  0.408592  -1e-06  -0.062095  -0.023461  -1e-06  3.869578  0.0
C  C118  1  0.51507314  0.41410030  0.72184845  1  0.416875  6e-06  -0.064116  -0.024281  1e-06  3.874113  0.0
C  C119  1  0.98492787  0.27815139  0.58589559  1  0.416852  6e-06  -0.064095  -0.024304  1e-06  3.874254  0.0
C  C120  1  0.48492961  0.58589745  0.27814962  1  0.416758  6e-06  -0.064137  -0.024332  1e-06  3.874244  0.0
C  C121  1  0.01507116  0.72184887  0.41410067  1  0.416936  6e-06  -0.064139  -0.024365  1e-06  3.874228  0.0
C  C122  1  0.62269598  0.35250178  0.82036161  1  0.411123  1e-05  -0.060833  -0.021985  3e-06  3.853684  0.0
C  C123  1  0.87730593  0.17963568  0.64749886  1  0.411401  1e-05  -0.060835  -0.022173  3e-06  3.853661  0.0
C  C124  1  0.37730458  0.64749719  0.17963870  1  0.41109  1e-05  -0.060876  -0.022148  3e-06  3.853774  0.0
C  C125  1  0.12269422  0.82036202  0.35250375  1  0.411102  1e-05  -0.060789  -0.021878  3e-06  3.853594  0.0
C  C126  1  0.54367394  0.19553975  0.69374425  1  0.457379  0.000299  0.087831  0.270155  0.000118  4.066263  0.0
C  C127  1  0.95632899  0.30626672  0.80444818  1  0.456986  0.0003  0.087799  0.269979  0.000119  4.065947  0.0
C  C128  1  0.45632940  0.80445480  0.30626055  1  0.45713  0.0003  0.087795  0.270021  0.000118  4.066079  0.0
C  C129  1  0.04367458  0.69374353  0.19554282  1  0.457828  0.000299  0.087864  0.270129  0.000118  4.066223  0.0
C  C130  1  0.51143296  0.20720407  0.62390163  1  -0.026662  0.000344  -0.102345  -0.201942  0.000116  3.998404  0.0
C  C131  1  0.98856894  0.37610870  0.79278703  1  -0.026276  0.000343  -0.102321  -0.201766  0.000116  3.99833  0.0
C  C132  1  0.48856524  0.79279358  0.37610480  1  -0.026337  0.000344  -0.102294  -0.201783  0.000116  3.998118  0.0
C  C133  1  0.01143280  0.62390090  0.20720691  1  -0.02628  0.000344  -0.102283  -0.20177  0.000117  3.998317  0.0
C  C134  1  0.48712918  0.14131081  0.61997178  1  0.011984  0.001357  -0.073689  -0.050202  0.000647  3.956814  0.001
C  C135  1  0.01286841  0.38003888  0.85868193  1  0.011274  0.001358  -0.073728  -0.05027  0.000647  3.956729  0.001
C  C136  1  0.51286388  0.85868997  0.38003406  1  0.011106  0.001357  -0.07371  -0.050281  0.000647  3.95681  0.001
C  C137  1  0.98713215  0.61997010  0.14131255  1  0.011273  0.001357  -0.073829  -0.050332  0.000647  3.956933  0.001
C  C138  1  0.49462549  0.06246452  0.68566483  1  -0.001554  0.003711  -0.028349  -0.06181  0.001854  4.005537  0.002
C  C139  1  0.00537449  0.31434566  0.93752402  1  -0.001309  0.00371  -0.028341  -0.061676  0.001854  4.005368  0.002
C  C140  1  0.50537231  0.93753192  0.31433999  1  -0.001102  0.003709  -0.028305  -0.061624  0.001853  4.005502  0.002
C  C141  1  0.99462814  0.68566273  0.06246798  1  -0.00092  0.003711  -0.028357  -0.061821  0.001855  4.005614  0.002
C  C142  1  0.52722539  0.05122020  0.75492449  1  -0.043939  0.001683  -0.080269  -0.063284  0.000759  3.990006  0.001
C  C143  1  0.97278211  0.24508292  0.94876689  1  -0.044441  0.001683  -0.080389  -0.063637  0.00076  3.990365  0.001
C  C144  1  0.47277719  0.94877500  0.24507856  1  -0.044372  0.001683  -0.080306  -0.063493  0.00076  3.990137  0.001
C  C145  1  0.02722542  0.75492363  0.05122191  1  -0.04452  0.001683  -0.080268  -0.063348  0.000759  3.990045  0.001
C  C146  1  0.55184670  0.11729460  0.75958374  1  -0.050999  0.000599  -0.116791  -0.239254  0.000218  4.030091  0.0
C  C147  1  0.94815763  0.24042395  0.88269470  1  -0.049339  0.000599  -0.116573  -0.238805  0.000218  4.029933  0.0
C  C148  1  0.44815717  0.88270060  0.24041900  1  -0.04993  0.000599  -0.11663  -0.238946  0.000218  4.029997  0.0
C  C149  1  0.05184282  0.75958568  0.11729677  1  -0.050344  0.0006  -0.116776  -0.239201  0.000218  4.030011  0.0
C  C150  1  0.47016535  0.99298863  0.67905071  1  1.474143  0.004639  0.209031  0.581691  0.001899  4.144914  0.003
C  C151  1  0.02983546  0.32095522  0.00700131  1  1.473842  0.004643  0.20907  0.581893  0.001902  4.145051  0.003
C  C152  1  0.52983039  0.00700846  0.32095212  1  1.473628  0.004641  0.209072  0.581701  0.0019  4.144826  0.003
C  C153  1  0.97016790  0.67904942  0.99299151  1  1.473646  0.00464  0.209193  0.581979  0.001899  4.144813  0.003
C  C154  1  0.36706326  0.44313456  0.79268520  1  0.41735  -0.00044  0.083088  0.263052  -0.000555  4.076599  0.0
C  C155  1  0.13293606  0.20731346  0.55686501  1  0.417427  -0.00044  0.083059  0.26295  -0.000556  4.07675  0.0
C  C156  1  0.63293771  0.55686570  0.20731115  1  0.417433  -0.00044  0.083075  0.262983  -0.000556  4.076766  0.0
C  C157  1  0.86706349  0.79268738  0.44313421  1  0.417533  -0.00044  0.083057  0.262978  -0.000556  4.076836  0.0
C  C158  1  0.30110969  0.41440555  0.86197724  1  -0.047004  0.000201  -0.108552  -0.212564  5.1e-05  4.003519  0.0
C  C159  1  0.19889081  0.13801928  0.58559424  1  -0.04687  0.000201  -0.108525  -0.212486  5.1e-05  4.00346  0.0
C  C160  1  0.69889298  0.58559597  0.13801706  1  -0.046626  0.000201  -0.108521  -0.21242  5.1e-05  4.003394  0.0
C  C161  1  0.80111144  0.86198091  0.41440682  1  -0.047061  0.000201  -0.10851  -0.212458  5.1e-05  4.003544  0.0
C  C162  1  0.21919287  0.46506552  0.86962178  1  -0.043322  -6.4e-05  -0.083955  -0.064198  -0.000353  3.965775  0.0
C  C163  1  0.28080778  0.13037404  0.53493484  1  -0.043255  -6.5e-05  -0.084036  -0.06434  -0.000353  3.965868  0.0
C  C164  1  0.78080993  0.53493537  0.13037274  1  -0.04291  -6.5e-05  -0.084057  -0.064292  -0.000353  3.965656  0.0
C  C165  1  0.71919318  0.86962617  0.46506486  1  -0.043205  -6.5e-05  -0.083984  -0.064186  -0.000353  3.965659  0.0
C  C166  1  0.20218187  0.54616591  0.80946500  1  0.032786  0.0033  -0.033683  -0.07212  0.001674  4.002994  0.002
C  C167  1  0.29781885  0.19053231  0.45383736  1  0.032838  0.0033  -0.033659  -0.072058  0.001674  4.002754  0.002
C  C168  1  0.79782015  0.45383559  0.19053168  1  0.032842  0.0033  -0.033632  -0.07212  0.001674  4.00285  0.002
C  C169  1  0.70218198  0.80946851  0.54616434  1  0.032864  0.0033  -0.033684  -0.072171  0.001674  4.002878  0.002
C  C170  1  0.26838072  0.57387168  0.74020913  1  -0.056026  0.000383  -0.085365  -0.070104  -8.2e-05  4.018915  0.0
C  C171  1  0.23162042  0.25978925  0.42613014  1  -0.056391  0.000383  -0.085383  -0.070087  -8.2e-05  4.018846  0.0
C  C172  1  0.73162365  0.42613106  0.25978646  1  -0.05623  0.000383  -0.085395  -0.070057  -8.3e-05  4.018942  0.0
C  C173  1  0.76837860  0.74021096  0.57387059  1  -0.056302  0.000383  -0.085362  -0.070075  -8.2e-05  4.01891  0.0
C  C174  1  0.35015807  0.52279655  0.73054607  1  -0.03821  0.000812  -0.119213  -0.240003  0.000358  4.03544  0.001
C  C175  1  0.14984359  0.26944986  0.47720442  1  -0.038406  0.000812  -0.11923  -0.239989  0.000358  4.035542  0.001
C  C176  1  0.64984473  0.47720436  0.26944677  1  -0.038442  0.000812  -0.119259  -0.240147  0.000358  4.035665  0.001
C  C177  1  0.85015696  0.73054909  0.52279701  1  -0.038432  0.000812  -0.119236  -0.239979  0.000358  4.035537  0.001
C  C178  1  0.11737907  0.60454886  0.81798192  1  1.513314  0.00158  0.205253  0.584152  0.000309  4.169697  0.001
C  C179  1  0.38262196  0.18201392  0.39545282  1  1.51359  0.001578  0.205231  0.584127  0.000307  4.169844  0.001
C  C180  1  0.88262371  0.39545200  0.18201539  1  1.51339  0.001579  0.205295  0.584292  0.000308  4.169723  0.001
C  C181  1  0.61737924  0.81798503  0.60454901  1  1.513436  0.00158  0.205252  0.584178  0.000309  4.169691  0.001
C  C182  1  0.67255545  0.45832272  0.83784786  1  0.391736  -0.000567  0.085633  0.269191  -0.000733  4.060931  0.0
C  C183  1  0.82744027  0.16215131  0.54168052  1  0.391553  -0.000566  0.085553  0.269123  -0.000732  4.061205  0.0
C  C184  1  0.32744151  0.54167811  0.16215256  1  0.391659  -0.000566  0.085616  0.269121  -0.000732  4.061079  0.0
C  C185  1  0.17255741  0.83784576  0.45832352  1  0.391523  -0.000567  0.085655  0.26924  -0.000733  4.061101  0.0
C  C186  1  0.67706353  0.54349408  0.80463258  1  -0.020467  0.00049  -0.10958  -0.215788  0.000183  4.019888  0.0
C  C187  1  0.82292986  0.19536822  0.45651052  1  -0.020345  0.00049  -0.109585  -0.215777  0.000183  4.019869  0.0
C  C188  1  0.32293213  0.45650674  0.19536927  1  -0.020317  0.00049  -0.10956  -0.215744  0.000183  4.019808  0.0
C  C189  1  0.17706292  0.80463069  0.54349561  1  -0.02021  0.00049  -0.109594  -0.215881  0.000183  4.02003  0.0
C  C190  1  0.73015001  0.57086525  0.83278299  1  0.035614  3.3e-05  -0.086395  -0.072898  -0.000384  4.007633  0.0
C  C191  1  0.76984306  0.16722399  0.42913485  1  0.035131  3.4e-05  -0.086433  -0.073026  -0.000383  4.007631  0.0
C  C192  1  0.26984653  0.42913431  0.16722028  1  0.035304  3.4e-05  -0.086421  -0.072969  -0.000383  4.007611  0.0
C  C193  1  0.23015017  0.83277931  0.57086767  1  0.035309  3.3e-05  -0.086387  -0.07288  -0.000384  4.007597  0.0
C  C194  1  0.78009338  0.51437002  0.89396493  1  -0.037395  0.009804  -0.033807  -0.071363  0.00518  3.997991  0.008
C  C195  1  0.71989895  0.10604044  0.48563181  1  -0.037114  0.009803  -0.033816  -0.071269  0.005179  3.998  0.008
C  C196  1  0.21990605  0.48563144  0.10603518  1  -0.037363  0.009804  -0.033844  -0.071409  0.005179  3.997965  0.008
C  C197  1  0.28009258  0.89396160  0.51437333  1  -0.037081  0.009802  -0.033833  -0.071556  0.005179  3.998138  0.008
C  C198  1  0.77392547  0.42979855  0.92745199  1  -0.034147  0.000568  -0.083033  -0.064902  -5.8e-05  3.998125  0.0
C  C199  1  0.72606501  0.07255320  0.57020350  1  -0.033905  0.00057  -0.083012  -0.064986  -5.6e-05  3.997877  0.0
C  C200  1  0.22607265  0.57020290  0.07254900  1  -0.034076  0.000569  -0.083034  -0.064917  -5.7e-05  3.998204  0.0
C  C201  1  0.27392883  0.92744697  0.42980073  1  -0.0341  0.000568  -0.083057  -0.064795  -5.8e-05  3.998031  0.0
C  C202  1  0.71995814  0.40133315  0.90050818  1  -0.031479  0.000973  -0.114728  -0.230343  0.000452  4.017771  0.001
C  C203  1  0.78003627  0.09949271  0.59866782  1  -0.031249  0.000972  -0.114614  -0.230188  0.000452  4.017703  0.001
C  C204  1  0.28003935  0.59866833  0.09949073  1  -0.031328  0.000972  -0.114624  -0.230279  0.000452  4.01784  0.001
C  C205  1  0.21996205  0.90050437  0.40133494  1  -0.031105  0.000973  -0.114749  -0.230384  0.000452  4.017831  0.001
C  C206  1  0.84249893  0.54372754  0.91845828  1  1.551498  0.000863  0.213834  0.590722  0.000192  4.167888  0.0
C  C207  1  0.65749484  0.08154697  0.45627356  1  1.551376  0.00087  0.213838  0.590676  0.000198  4.168011  0.0
C  C208  1  0.15750009  0.45627265  0.08154357  1  1.551895  0.000866  0.21393  0.590828  0.000196  4.167816  0.0
C  C209  1  0.34249669  0.91845508  0.54373046  1  1.551472  0.000864  0.213944  0.590969  0.000192  4.167574  0.0
C  C210  1  0.34081624  0.72499227  0.78279737  1  0.382307  0.003298  0.004721  -0.016043  0.001804  3.977871  0.003
C  C211  1  0.15918829  0.21719626  0.27500386  1  0.382242  0.003301  0.004754  -0.01602  0.001804  3.977999  0.003
C  C212  1  0.65918428  0.27500361  0.21720146  1  0.381281  0.003303  0.004725  -0.015986  0.001805  3.977939  0.003
C  C213  1  0.84081928  0.78279338  0.72499528  1  0.38158  0.003301  0.004777  -0.015961  0.001803  3.977894  0.003
C  C214  1  0.34547948  0.65172244  0.85122048  1  0.258241  0.002416  0.003989  -0.098512  0.001206  3.901391  0.002
C  C215  1  0.15452288  0.14877832  0.34827610  1  0.25827  0.002417  0.00399  -0.098529  0.001207  3.901314  0.002
C  C216  1  0.65452132  0.34827524  0.14878252  1  0.258463  0.002417  0.003987  -0.098527  0.001207  3.901366  0.002
C  C217  1  0.84548160  0.85121380  0.65172499  1  0.261666  0.002415  0.003958  -0.098563  0.001206  3.901601  0.002
C  C218  1  0.47082711  0.69905641  0.81311230  1  0.9635  0.002952  0.147421  0.100413  0.001471  3.891036  0.002
C  C219  1  0.02917458  0.18689009  0.30093910  1  0.963572  0.002952  0.147295  0.100262  0.001472  3.891039  0.002
C  C220  1  0.52917340  0.30093941  0.18689156  1  0.963085  0.002956  0.147383  0.100446  0.001473  3.890837  0.002
C  C221  1  0.97083011  0.81310766  0.69905849  1  0.962703  0.002956  0.147355  0.100347  0.001471  3.891018  0.002
C  C222  1  0.46390160  0.56723465  0.93614481  1  0.315587  0.000758  0.097735  0.162384  0.000469  4.026506  0.001
C  C223  1  0.03609235  0.06385650  0.43276692  1  0.315293  0.000758  0.097791  0.162437  0.000469  4.02633  0.001
C  C224  1  0.53609318  0.43276743  0.06385618  1  0.315207  0.000758  0.097751  0.162369  0.000469  4.026355  0.001
C  C225  1  0.96390444  0.93614181  0.56723625  1  0.315207  0.000758  0.097652  0.162251  0.000469  4.026532  0.001
C  C226  1  0.44217180  0.48908350  0.96128913  1  -0.004317  0.000667  -0.08085  -0.133767  0.000363  3.965589  0.0
C  C227  1  0.05782272  0.03871341  0.51091996  1  -0.003517  0.000667  -0.080828  -0.133837  0.000363  3.965817  0.0
C  C228  1  0.55782414  0.51091918  0.03871299  1  -0.003597  0.000668  -0.080806  -0.133814  0.000363  3.965699  0.0
C  C229  1  0.94217423  0.96128740  0.48908269  1  -0.003296  0.000667  -0.08077  -0.133592  0.000363  3.965565  0.0
C  C230  1  0.52147342  0.57823525  0.97472575  1  0.00956  0.000491  -0.082554  -0.148512  0.000229  3.988279  0.0
C  C231  1  0.97852170  0.02527593  0.42176623  1  0.009855  0.000491  -0.082579  -0.148673  0.000229  3.988335  0.0
C  C232  1  0.47851989  0.42176431  0.02527831  1  0.011199  0.000491  -0.082528  -0.148583  0.000229  3.988175  0.0
C  C233  1  0.02147473  0.97472427  0.57823569  1  0.009935  0.000491  -0.082549  -0.148535  0.000229  3.988436  0.0
N  N234  1  0.41940711  0.75356984  0.75949144  1  -1.203799  0.058153  -0.359086  -0.301135  0.030949  3.646229  0.037
N  N235  1  0.08059906  0.24050606  0.24642384  1  -1.203729  0.058156  -0.359018  -0.301103  0.030948  3.646348  0.037
N  N236  1  0.58059649  0.24642352  0.24050991  1  -1.202953  0.058151  -0.359118  -0.301182  0.03095  3.646432  0.037
N  N237  1  0.91940895  0.75948795  0.75357338  1  -1.202849  0.058145  -0.359163  -0.301246  0.03095  3.646353  0.037
N  N238  1  0.42826808  0.63606658  0.87017650  1  -1.268472  0.005476  -0.223954  0.010432  0.002478  3.809031  0.004
N  N239  1  0.07173249  0.12982472  0.36393388  1  -1.26867  0.005477  -0.223906  0.010515  0.002479  3.808723  0.004
N  N240  1  0.57173183  0.36393236  0.12982565  1  -1.268561  0.005478  -0.223892  0.010481  0.002479  3.808595  0.004
N  N241  1  0.92826908  0.87017236  0.63606864  1  -1.268828  0.005477  -0.223813  0.010631  0.002478  3.808875  0.004
O  O242  1  0.74999975  0.31363398  0.68636260  1  -1.07934  1.1e-05  -0.227517  -0.222065  5e-06  2.569759  0.0
O  O243  1  0.25000146  0.68636500  0.31363644  1  -1.079185  1.1e-05  -0.22754  -0.222084  5e-06  2.569593  0.0
O  O244  1  0.56574372  0.26458028  0.69105591  1  -1.080876  0.000423  -0.175605  -0.195895  0.000208  2.582611  0.0
O  O245  1  0.93425858  0.30895347  0.73540901  1  -1.080932  0.000424  -0.175645  -0.19596  0.000209  2.582295  0.0
O  O246  1  0.43426193  0.73541240  0.30894854  1  -1.080921  0.000423  -0.175667  -0.195927  0.000208  2.582417  0.0
O  O247  1  0.06574251  0.69105616  0.26458285  1  -1.080911  0.000423  -0.17564  -0.195917  0.000208  2.582496  0.0
O  O248  1  0.47350610  0.92022051  0.73679229  1  -1.127868  0.099501  -0.314366  -0.528185  0.050834  2.207041  0.081
O  O249  1  0.02648975  0.26321113  0.07976950  1  -1.127747  0.099504  -0.314403  -0.528294  0.050834  2.207222  0.081
O  O250  1  0.52648759  0.07977723  0.26320855  1  -1.127743  0.099503  -0.314388  -0.52821  0.050834  2.206992  0.081
O  O251  1  0.97351070  0.73678852  0.92022556  1  -1.127724  0.099489  -0.314443  -0.528332  0.050828  2.207149  0.081
O  O252  1  0.44349493  0.00579160  0.61247086  1  -1.16794  0.10749  -0.316848  -0.596571  0.056039  2.51003  0.089
O  O253  1  0.05650549  0.38753230  0.99420499  1  -1.168043  0.107477  -0.316833  -0.59664  0.056031  2.510038  0.089
O  O254  1  0.55650332  0.99420924  0.38752924  1  -1.168035  0.107485  -0.316906  -0.596623  0.05603  2.509942  0.089
O  O255  1  0.94349859  0.61246855  0.00579256  1  -1.168053  0.107507  -0.316896  -0.596663  0.056042  2.509899  0.089
O  O256  1  0.44579196  0.38907591  0.79178503  1  -1.079598  -6.2e-05  -0.18092  -0.201434  -6.6e-05  2.565486  0.0
O  O257  1  0.05420739  0.20821416  0.61092218  1  -1.079583  -6.2e-05  -0.180883  -0.20139  -6.6e-05  2.565705  0.0
O  O258  1  0.55420873  0.61092248  0.20821161  1  -1.079596  -6.2e-05  -0.180861  -0.201409  -6.6e-05  2.56568  0.0
O  O259  1  0.94579320  0.79178792  0.38907738  1  -1.079691  -6.2e-05  -0.180828  -0.201365  -6.6e-05  2.56569  0.0
O  O260  1  0.11165473  0.68150777  0.77735323  1  -1.173606  0.038198  -0.312769  -0.542708  0.018526  2.119375  0.032
O  O261  1  0.38834912  0.22264507  0.31849343  1  -1.173666  0.038206  -0.312775  -0.542732  0.01853  2.119396  0.032
O  O262  1  0.88834893  0.31849180  0.22264774  1  -1.173596  0.038201  -0.312809  -0.54281  0.018527  2.119291  0.032
O  O263  1  0.61165458  0.77735759  0.68150903  1  -1.173586  0.038201  -0.312754  -0.542705  0.018527  2.119241  0.032
O  O264  1  0.04781004  0.57331305  0.86801142  1  -1.149859  0.120212  -0.324572  -0.608277  0.063333  2.475616  0.101
O  O265  1  0.45219192  0.13198745  0.42668568  1  -1.14989  0.120201  -0.324549  -0.608255  0.063328  2.475737  0.101
O  O266  1  0.95219424  0.42668344  0.13198679  1  -1.149825  0.120199  -0.324575  -0.608317  0.063329  2.475731  0.101
O  O267  1  0.54780904  0.86801275  0.57331513  1  -1.14985  0.120209  -0.324569  -0.60831  0.063331  2.475663  0.101
O  O268  1  0.62009563  0.43804747  0.80399737  1  -1.090889  2.4e-05  -0.178994  -0.202656  1.3e-05  2.594228  0.0
O  O269  1  0.87990504  0.19599727  0.56195462  1  -1.091084  2.4e-05  -0.179036  -0.202662  1.3e-05  2.594294  0.0
O  O270  1  0.37990327  0.56195339  0.19600033  1  -1.090989  2.4e-05  -0.179043  -0.202645  1.3e-05  2.59434  0.0
O  O271  1  0.12009548  0.80399856  0.43804812  1  -1.090915  2.4e-05  -0.179077  -0.202752  1.3e-05  2.5943  0.0
O  O272  1  0.89101176  0.48983693  0.96953397  1  -1.166321  0.059913  -0.305292  -0.565192  0.030722  2.392382  0.053
O  O273  1  0.60898450  0.03046906  0.51015845  1  -1.166062  0.059905  -0.305326  -0.565259  0.030721  2.392523  0.053
O  O274  1  0.10898888  0.51015832  0.03046564  1  -1.166559  0.059909  -0.305357  -0.565283  0.030722  2.392418  0.053
O  O275  1  0.39100857  0.96953179  0.48984180  1  -1.166536  0.059915  -0.305369  -0.565339  0.030723  2.39234  0.053
O  O276  1  0.84391041  0.62256290  0.88355114  1  -1.159695  0.086978  -0.32599  -0.563911  0.04409  2.372508  0.069
O  O277  1  0.65608355  0.11645535  0.37743922  1  -1.159776  0.086972  -0.32601  -0.563861  0.044088  2.372431  0.069
O  O278  1  0.15608860  0.37743727  0.11645239  1  -1.159804  0.086974  -0.32605  -0.563938  0.044089  2.372415  0.069
O  O279  1  0.34390878  0.88354916  0.62256635  1  -1.159779  0.086974  -0.32606  -0.564011  0.04409  2.372318  0.069
