# generated using pymatgen
data_Cu2H37C35(N5O4)2
_symmetry_space_group_name_H-M   'P 1'
_cell_length_a   10.60489726
_cell_length_b   10.97072675
_cell_length_c   22.41607948
_cell_angle_alpha   92.49269250
_cell_angle_beta   89.59034440
_cell_angle_gamma   116.69910583
_symmetry_Int_Tables_number   1
_chemical_formula_structural   Cu2H37C35(N5O4)2
_chemical_formula_sum   'Cu4 H74 C70 N20 O16'
_cell_volume   2327.46938115
_cell_formula_units_Z   2
loop_
 _symmetry_equiv_pos_site_id
 _symmetry_equiv_pos_as_xyz
  1  'x, y, z'
loop_
 _atom_site_type_symbol
 _atom_site_label
 _atom_site_symmetry_multiplicity
 _atom_site_fract_x
 _atom_site_fract_y
 _atom_site_fract_z
 _atom_site_occupancy
 _atom_site_pbe_bader_charge
 _atom_site_pbe_bader_spin_density
 _atom_site_pbe_cm5_charge
 _atom_site_pbe_ddec_charge
 _atom_site_pbe_ddec_spin_density
 _atom_site_pbe_ddec_sum_bond_order
 _atom_site_pbe_magmom
Cu  Cu0  1  0.19943967  0.51049980  0.72614179  1  1.021553  0.540009  0.756757  0.702231  0.692916  2.243483  0.541
Cu  Cu1  1  0.80056616  0.48948297  0.27385264  1  1.021384  0.539989  0.756697  0.702136  0.692906  2.243362  0.541
Cu  Cu2  1  0.50000674  0.50001468  0.49999353  1  1.039686  0.549447  0.749636  0.762043  0.706074  2.30381  0.55
Cu  Cu3  1  0.99999150  0.99999542  0.00000662  1  1.052627  0.49689  0.758449  0.772077  0.639398  2.275619  0.497
H  H4  1  0.66119911  0.32606800  0.52097930  1  0.148142  0.000317  0.138364  0.108374  4e-06  1.023597  0.0
H  H5  1  0.29685221  0.31425334  0.60366779  1  0.205346  0.000611  0.124276  0.142682  0.000236  1.01659  0.001
H  H6  1  0.34119084  0.09717811  0.64174262  1  0.084824  0.001189  0.128104  0.128588  0.000597  0.9927  0.001
H  H7  1  0.68502372  0.13382335  0.57118244  1  0.094344  3.5e-05  0.122592  0.106292  4e-06  0.947503  0.0
H  H8  1  0.55769485  0.03640628  0.62384138  1  0.066734  0.000202  0.117348  0.096563  0.000111  0.959685  0.0
H  H9  1  0.53532496  0.89719034  0.53201000  1  0.050163  7.8e-05  0.103058  0.10663  1.4e-05  0.978434  0.0
H  H10  1  0.38027029  0.91761252  0.54276063  1  0.030153  6e-06  0.099985  0.097576  5e-06  0.96942  0.0
H  H11  1  0.39364826  0.62201738  0.85303596  1  0.203773  0.000475  0.143157  0.131279  8.2e-05  0.99819  0.0
H  H12  1  0.13443900  0.22990926  0.77542093  1  0.080463  0.000897  0.114005  0.106077  0.000321  1.029438  0.001
H  H13  1  0.27704736  0.20279916  0.87382600  1  0.144147  0.000921  0.131656  0.13504  0.000437  0.996023  0.001
H  H14  1  0.39565220  0.42414478  0.96730500  1  0.122328  -3.5e-05  0.115667  0.110153  -2.7e-05  1.011718  0.0
H  H15  1  0.52452608  0.56909072  0.93079300  1  0.110753  -1e-06  0.124279  0.117913  2e-06  0.946783  0.0
H  H16  1  0.49648056  0.27688551  0.92597442  1  -0.019697  4.6e-05  0.099948  0.096821  2.1e-05  0.966957  0.0
H  H17  1  0.62729866  0.42069531  0.96428263  1  0.080452  0.000306  0.105416  0.113302  0.000153  0.993475  0.0
H  H18  1  0.58742721  0.39043528  0.82778772  1  0.015747  1.3e-05  0.080374  0.060981  4e-06  1.026078  0.0
H  H19  1  0.72108706  0.53243369  0.86837306  1  0.036741  1e-06  0.097643  0.100184  3e-06  0.984797  0.0
H  H20  1  0.82197076  0.38768326  0.90637337  1  0.110327  -1e-06  0.120443  0.108392  -1.6e-05  0.988012  0.0
H  H21  1  0.67915445  0.23746461  0.87627973  1  0.061528  0.000379  0.119518  0.101146  0.000203  0.948097  0.0
H  H22  1  0.01856558  0.53707552  0.83673787  1  0.25579  0.000299  0.134521  0.118732  -4.5e-05  1.079716  0.0
H  H23  1  0.89602040  0.27758379  0.68040550  1  0.139642  0.000844  0.115211  0.117906  0.000342  1.024698  0.001
H  H24  1  0.67026546  0.18802250  0.76025021  1  0.104974  0.001223  0.123987  0.122772  0.000615  1.000991  0.001
H  H25  1  0.47012211  0.45809089  0.74365000  1  0.10953  0.000305  0.131932  0.091692  1.6e-05  1.040366  0.0
H  H26  1  0.40046040  0.71764241  0.62968904  1  0.105557  0.000536  0.117327  0.115628  0.000166  1.008489  0.001
H  H27  1  0.65856889  0.71586325  0.60085811  1  0.201764  0.000839  0.121331  0.135996  0.000277  1.056231  0.001
H  H28  1  0.72429139  0.50096288  0.63250910  1  0.070365  0.000215  0.106064  0.082906  9.5e-05  1.012502  0.0
H  H29  1  0.69208904  0.46940090  0.70946934  1  0.042422  1.8e-05  0.106973  0.079409  3e-06  0.998634  0.0
H  H30  1  0.93979664  0.64010815  0.69352100  1  0.068385  7.6e-05  0.099421  0.110694  2.5e-05  0.985425  0.0
H  H31  1  0.88169667  0.74363859  0.65524622  1  0.063536  2e-06  0.096554  0.099973  8e-06  0.986151  0.0
H  H32  1  0.83245355  0.67570620  0.78814942  1  0.037969  -7e-06  0.096946  0.09629  -8e-06  0.98704  0.0
H  H33  1  0.75916387  0.76811566  0.75052796  1  0.027031  3.2e-05  0.09095  0.082762  2.1e-05  0.996673  0.0
H  H34  1  0.07382892  0.85283354  0.77058902  1  0.10614  9e-06  0.120435  0.107907  -2.8e-05  0.961683  0.0
H  H35  1  0.00749784  0.94362279  0.72642526  1  0.034701  0.000237  0.108626  0.08448  0.000128  0.962045  0.0
H  H36  1  0.06751137  0.86975807  0.88076659  1  0.255949  0.000241  0.13454  0.129375  -0.0  1.071255  0.0
H  H37  1  0.85627957  0.05296690  0.78618578  1  0.094981  0.001078  0.112587  0.10523  0.000557  1.040253  0.0
H  H38  1  0.86312950  0.12247672  0.90815303  1  0.139006  0.000496  0.123286  0.125978  0.000154  1.003353  0.001
H  H39  1  0.05508602  0.40984565  0.40560588  1  0.108589  0.000503  0.103167  0.108181  0.000339  1.049021  0.0
H  H40  1  0.19677831  0.47951266  0.94946637  1  0.080359  3.7e-05  0.096332  0.097833  -8e-06  1.050855  0.0
H  H41  1  0.33880614  0.67394746  0.47900193  1  0.148247  0.000317  0.138262  0.108185  4e-06  1.023805  0.0
H  H42  1  0.70314416  0.68575306  0.39631135  1  0.205437  0.000611  0.124335  0.142632  0.000236  1.016799  0.001
H  H43  1  0.65879519  0.90281169  0.35822568  1  0.084313  0.001189  0.128074  0.128645  0.000597  0.99289  0.001
H  H44  1  0.31496993  0.86617914  0.42879433  1  0.094412  3.5e-05  0.122601  0.10623  3e-06  0.94747  0.0
H  H45  1  0.44228178  0.96358151  0.37612640  1  0.065808  0.000202  0.117364  0.096611  0.000111  0.959893  0.0
H  H46  1  0.46467987  0.10283156  0.46795314  1  0.050792  7.8e-05  0.10312  0.10657  1.4e-05  0.97822  0.0
H  H47  1  0.61972604  0.08239308  0.45720151  1  0.030291  6e-06  0.099917  0.097601  5e-06  0.969512  0.0
H  H48  1  0.60636927  0.37799072  0.14696200  1  0.203885  0.000475  0.143089  0.131179  8.2e-05  0.998245  0.0
H  H49  1  0.86556449  0.77009734  0.22458366  1  0.080365  0.000897  0.11399  0.106059  0.000321  1.029494  0.001
H  H50  1  0.72293636  0.79720989  0.12618713  1  0.165791  0.000911  0.131628  0.134908  0.000437  0.996093  0.001
H  H51  1  0.60434601  0.57585049  0.03270055  1  0.122384  -3.6e-05  0.11569  0.110159  -2.8e-05  1.011721  0.0
H  H52  1  0.47546666  0.43091536  0.06921870  1  0.111087  -2e-06  0.124251  0.117923  1e-06  0.946774  0.0
H  H53  1  0.50353974  0.72312900  0.07403402  1  -0.019722  4.6e-05  0.099981  0.096946  2.1e-05  0.966866  0.0
H  H54  1  0.37270885  0.57932625  0.03572737  1  0.072278  0.000308  0.105411  0.113335  0.000154  0.993589  0.0
H  H55  1  0.41259209  0.60958525  0.17222225  1  0.015531  1.3e-05  0.08039  0.061165  4e-06  1.025944  0.0
H  H56  1  0.27892936  0.46758677  0.13163781  1  0.036988  1e-06  0.09774  0.100304  3e-06  0.984929  0.0
H  H57  1  0.17806017  0.61234177  0.09363097  1  0.110188  -1e-06  0.120531  0.108451  -1.6e-05  0.988263  0.0
H  H58  1  0.32087301  0.76255918  0.12372768  1  0.061442  0.000379  0.119547  0.101166  0.000204  0.948092  0.0
H  H59  1  0.98146582  0.46292815  0.16326486  1  0.256037  0.000298  0.134568  0.118717  -4.5e-05  1.079655  0.0
H  H60  1  0.10397661  0.72241684  0.31959665  1  0.139579  0.000844  0.115207  0.117959  0.000341  1.024634  0.001
H  H61  1  0.32973756  0.81200139  0.23975584  1  0.10474  0.001222  0.123884  0.122659  0.000614  1.001035  0.001
H  H62  1  0.52990752  0.54191294  0.25635051  1  0.10949  0.000305  0.131981  0.091758  1.6e-05  1.040459  0.0
H  H63  1  0.59950702  0.28228539  0.37028746  1  0.106136  0.000536  0.117398  0.115664  0.000166  1.008785  0.001
H  H64  1  0.34141865  0.28409996  0.39912405  1  0.202733  0.000839  0.121358  0.136062  0.000277  1.056209  0.001
H  H65  1  0.27574705  0.49906135  0.36747825  1  0.070297  0.000215  0.106056  0.082949  9.5e-05  1.012449  0.0
H  H66  1  0.30794990  0.53060402  0.29051603  1  0.043215  1.8e-05  0.106961  0.07941  3e-06  0.998686  0.0
H  H67  1  0.06023023  0.35992998  0.30647216  1  0.068129  7.5e-05  0.099438  0.110822  2.5e-05  0.985532  0.0
H  H68  1  0.11831009  0.25639098  0.34475199  1  0.063714  2e-06  0.096583  0.100041  8e-06  0.986227  0.0
H  H69  1  0.16753064  0.32427868  0.21184416  1  0.037901  -7e-06  0.097004  0.096323  -8e-06  0.987137  0.0
H  H70  1  0.24082586  0.23187924  0.24946864  1  0.027098  3.2e-05  0.090968  0.082825  2.1e-05  0.996748  0.0
H  H71  1  0.92615688  0.14716559  0.22941977  1  0.106328  9e-06  0.120401  0.107888  -2.8e-05  0.96169  0.0
H  H72  1  0.99249812  0.05639030  0.27358847  1  0.034007  0.000237  0.108582  0.084415  0.000128  0.962039  0.0
H  H73  1  0.93245384  0.13021114  0.11924565  1  0.256678  0.000242  0.134468  0.129326  -0.0  1.071258  0.0
H  H74  1  0.14372154  0.94704310  0.21382829  1  0.094572  0.001078  0.112575  0.105214  0.000557  1.04035  0.0
H  H75  1  0.13687388  0.87752399  0.09186208  1  0.138995  0.000496  0.123287  0.125972  0.000154  1.003473  0.001
H  H76  1  0.94492057  0.59015075  0.59438409  1  0.108331  0.000503  0.103202  0.108238  0.000338  1.048936  0.0
H  H77  1  0.80319393  0.52048509  0.05057539  1  0.080262  3.7e-05  0.096355  0.097931  -8e-06  1.050758  0.0
C  C78  1  0.56931431  0.29524037  0.54904578  1  0.965458  -0.000763  0.138038  0.078369  -0.001222  3.940403  0.0
C  C79  1  0.37954285  0.28458814  0.59265517  1  0.366506  0.001379  0.007337  -0.005566  0.00085  3.939357  0.001
C  C80  1  0.40035482  0.17744704  0.61164784  1  0.338254  0.003167  -0.001801  -0.122004  0.002077  3.921037  0.002
C  C81  1  0.57126796  0.08196718  0.58014766  1  0.289561  0.001147  -0.04207  -0.060488  0.000848  3.892775  0.001
C  C82  1  0.49273729  0.97194332  0.53119332  1  -0.030315  1.6e-05  -0.158904  -0.174643  -1.9e-05  3.93767  0.0
C  C83  1  0.34788801  0.51271218  0.84224476  1  0.962149  -0.00028  0.148247  0.092746  -0.000469  3.869681  0.001
C  C84  1  0.21249154  0.30727288  0.80494488  1  0.382848  0.000324  -0.013427  -0.061234  -0.000164  4.054968  0.001
C  C85  1  0.28317350  0.29253706  0.85304268  1  0.313073  0.003296  0.003121  -0.099791  0.002193  3.918443  0.002
C  C86  1  0.46302148  0.45745119  0.92792624  1  0.224089  0.001122  -0.04861  -0.080914  0.000862  3.847628  0.001
C  C87  1  0.55978126  0.38829127  0.92397282  1  0.048416  0.000414  -0.156871  -0.164657  0.000302  3.924906  0.0
C  C88  1  0.65296414  0.42157088  0.86889167  1  -0.027837  -6.7e-05  -0.164199  -0.168438  -9.7e-05  3.95919  0.0
C  C89  1  0.74444723  0.34676307  0.86951984  1  0.288977  0.001135  -0.044766  -0.061021  0.000838  3.859765  0.001
C  C90  1  0.95756757  0.45082317  0.80541764  1  0.943425  -0.000379  0.147969  0.104818  -0.000977  3.83467  0.0
C  C91  1  0.88656607  0.31710008  0.72452018  1  0.393384  0.001642  -0.010797  -0.049815  0.001213  4.026304  0.002
C  C92  1  0.77556976  0.27229976  0.76349052  1  0.276711  0.003865  -0.010012  -0.137361  0.002535  3.97861  0.003
C  C93  1  0.48505426  0.53059194  0.70977403  1  1.005905  -0.001137  0.137468  0.080748  -0.001506  3.944828  0.0
C  C94  1  0.45587617  0.66770675  0.65017694  1  0.421143  0.001548  -0.004781  -0.019816  0.001014  4.001081  0.002
C  C95  1  0.58210574  0.66799549  0.63555124  1  0.253464  0.003331  -0.004984  -0.126078  0.001962  3.913471  0.003
C  C96  1  0.71729670  0.54712832  0.67606759  1  0.291962  0.000896  -0.050248  -0.051219  0.00066  3.875317  0.001
C  C97  1  0.85575754  0.67282426  0.69188570  1  -0.041976  0.000114  -0.162945  -0.177738  6.7e-05  3.928615  0.0
C  C98  1  0.84914852  0.74364396  0.75103248  1  -0.017028  8e-06  -0.163371  -0.162188  -1.9e-05  3.944149  0.0
C  C99  1  0.98404439  0.87536847  0.76388425  1  0.304838  0.000967  -0.045434  -0.05777  0.000713  3.891048  0.001
C  C100  1  0.01487110  0.93384202  0.87299423  1  0.951278  -0.001268  0.14396  0.094476  -0.001668  3.847522  0.0
C  C101  1  0.90006497  0.02640469  0.82416695  1  0.290069  0.003181  -0.014049  -0.134975  0.002081  3.97452  0.002
C  C102  1  0.90420436  0.06063721  0.88400546  1  0.396553  0.001  0.000413  -0.020938  0.000607  3.9941  0.001
C  C103  1  0.20687492  0.39620855  0.49576641  1  1.577283  0.000382  0.198739  0.566656  7.1e-05  4.234698  -0.002
C  C104  1  0.09049680  0.43825044  0.50049157  1  0.003591  0.011856  -0.013538  -0.036216  0.00811  3.957125  0.009
C  C105  1  0.03020615  0.44908295  0.44707452  1  -0.03743  0.003683  -0.090072  -0.141695  0.002461  3.976544  0.002
C  C106  1  0.05903353  0.48857578  0.55434563  1  -0.071375  0.011895  -0.014772  -0.035726  0.008268  3.953793  0.009
C  C107  1  0.11136383  0.47026295  0.61368807  1  1.567357  -0.001578  0.192522  0.567744  -0.002346  4.211693  -0.004
C  C108  1  0.06019590  0.26946584  0.01414706  1  1.561578  -0.001111  0.19566  0.566547  -0.001744  4.224138  -0.003
C  C109  1  0.02631946  0.38800690  0.01046449  1  -0.012634  0.009135  -0.020591  -0.051268  0.00644  3.963029  0.007
C  C110  1  0.91277894  0.39791729  0.03967618  1  -0.002228  0.000525  -0.018995  -0.0444  0.000308  3.932995  0.0
C  C111  1  0.11022109  0.48937655  0.97189923  1  -0.117208  0.002077  -0.098112  -0.150371  0.001225  4.003282  0.001
C  C112  1  0.81966497  0.30308602  0.08668999  1  1.592094  0.000285  0.173872  0.572004  0.000276  4.29384  0.0
C  C113  1  0.43068722  0.70477516  0.45093456  1  0.96599  -0.000764  0.138256  0.078785  -0.001221  3.940563  0.0
C  C114  1  0.62045407  0.71541938  0.40732266  1  0.367503  0.001378  0.007206  -0.005419  0.00085  3.939871  0.001
C  C115  1  0.59963427  0.82254955  0.38832561  1  0.335874  0.003169  -0.001923  -0.122397  0.002077  3.921517  0.002
C  C116  1  0.42872183  0.91803684  0.41982202  1  0.288437  0.001148  -0.042228  -0.060752  0.000849  3.893307  0.001
C  C117  1  0.50726270  0.02807229  0.46877184  1  -0.010233  1.6e-05  -0.158629  -0.174137  -1.9e-05  3.937466  0.0
C  C118  1  0.65212562  0.48729576  0.15775542  1  0.962013  -0.000282  0.148367  0.092876  -0.00047  3.869633  0.001
C  C119  1  0.78751439  0.69273483  0.19505841  1  0.382998  0.000325  -0.013353  -0.061187  -0.000163  4.055167  0.001
C  C120  1  0.71682233  0.70746733  0.14696406  1  0.291532  0.003308  0.003155  -0.099554  0.002194  3.918362  0.002
C  C121  1  0.53697718  0.54255320  0.07208050  1  0.222905  0.001124  -0.048625  -0.081056  0.000862  3.847757  0.001
C  C122  1  0.44023152  0.61172327  0.07603516  1  0.056839  0.000412  -0.156869  -0.164641  0.000302  3.924942  0.0
C  C123  1  0.34705660  0.57845070  0.13111790  1  -0.027841  -6.7e-05  -0.164376  -0.168885  -9.6e-05  3.959502  0.0
C  C124  1  0.25557652  0.65325877  0.13048617  1  0.289273  0.001134  -0.044841  -0.061176  0.000838  3.8601  0.001
C  C125  1  0.04245684  0.54918366  0.19458386  1  0.943939  -0.00038  0.147871  0.104713  -0.000975  3.834768  0.0
C  C126  1  0.11343936  0.68290658  0.27548352  1  0.393224  0.001643  -0.010778  -0.049978  0.001213  4.026285  0.002
C  C127  1  0.22444089  0.72772017  0.23651363  1  0.276797  0.003866  -0.009838  -0.137143  0.002536  3.978433  0.003
C  C128  1  0.51495876  0.46939202  0.29021821  1  1.005061  -0.001139  0.137378  0.080506  -0.001505  3.944895  0.0
C  C129  1  0.54410340  0.33223515  0.34980272  1  0.421129  0.001548  -0.004806  -0.019972  0.001015  4.001541  0.002
C  C130  1  0.41788040  0.33196264  0.36443030  1  0.25201  0.003334  -0.005042  -0.126139  0.001962  3.913683  0.003
C  C131  1  0.28273023  0.45288139  0.32392240  1  0.290953  0.000896  -0.050261  -0.051347  0.00066  3.875613  0.001
C  C132  1  0.14425739  0.32719840  0.30810916  1  -0.041967  0.000115  -0.162978  -0.17793  6.8e-05  3.929165  0.0
C  C133  1  0.15084395  0.25635490  0.24896604  1  -0.016894  8e-06  -0.163475  -0.162356  -1.9e-05  3.944508  0.0
C  C134  1  0.01594327  0.12463267  0.23612505  1  0.305676  0.000967  -0.04534  -0.057562  0.000713  3.890853  0.001
C  C135  1  0.98510596  0.06613643  0.12701743  1  0.9085  -0.001185  0.144004  0.094348  -0.001668  3.847251  0.0
C  C136  1  0.09992716  0.97359408  0.17584674  1  0.290539  0.003181  -0.014116  -0.135215  0.002081  3.975081  0.002
C  C137  1  0.09578917  0.93935645  0.11600806  1  0.396335  0.001002  0.000492  -0.020752  0.000608  3.994285  0.001
C  C138  1  0.79314941  0.60381203  0.50422885  1  1.57624  0.000384  0.198555  0.566365  7.4e-05  4.235153  -0.002
C  C139  1  0.90951257  0.56174590  0.49949930  1  0.003861  0.011855  -0.013656  -0.036338  0.008111  3.957147  0.009
C  C140  1  0.96980129  0.55091332  0.55291723  1  -0.037406  0.003685  -0.090111  -0.141683  0.002462  3.97665  0.002
C  C141  1  0.94096536  0.51141226  0.44564674  1  -0.072617  0.011897  -0.014714  -0.035838  0.008266  3.95356  0.009
C  C142  1  0.88861798  0.52970461  0.38630449  1  1.569552  -0.001584  0.192519  0.568093  -0.002348  4.211021  -0.004
C  C143  1  0.93978410  0.73052978  0.98588169  1  1.560079  -0.001107  0.195708  0.566236  -0.001745  4.224159  -0.003
C  C144  1  0.97365977  0.61198973  0.98957857  1  -0.013076  0.009137  -0.020694  -0.051451  0.006443  3.962871  0.007
C  C145  1  0.08719368  0.60207931  0.96036733  1  -0.001233  0.000521  -0.018755  -0.043673  0.000306  3.93291  0.0
C  C146  1  0.88975861  0.51062515  0.02814445  1  -0.11684  0.002073  -0.098062  -0.150219  0.001224  4.003045  0.001
C  C147  1  0.18030377  0.69688769  0.91334472  1  1.592973  0.000285  0.173464  0.571535  0.000277  4.294508  0.0
N  N148  1  0.52116505  0.18603347  0.58386587  1  -1.237705  0.002587  -0.249668  0.031398  0.001364  3.799983  0.002
N  N149  1  0.48595131  0.35666984  0.55352252  1  -1.191429  0.075723  -0.380369  -0.292876  0.050547  3.657563  0.066
N  N150  1  0.39646325  0.58199511  0.69658992  1  -1.185564  0.076828  -0.378397  -0.293862  0.051105  3.651845  0.067
N  N151  1  0.59806224  0.57982171  0.67367655  1  -1.239627  0.00205  -0.244042  0.049491  0.001002  3.77649  0.001
N  N152  1  0.97177091  0.94769623  0.81800645  1  -1.226834  0.002078  -0.247531  0.039722  0.001089  3.778545  0.002
N  N153  1  0.97555280  0.00209246  0.91359427  1  -1.213167  0.06936  -0.378377  -0.28668  0.0463  3.666863  0.061
N  N154  1  0.25353458  0.44458133  0.79875302  1  -1.192785  0.084249  -0.382897  -0.305459  0.055701  3.682031  0.073
N  N155  1  0.36855085  0.42305737  0.87572426  1  -1.243643  0.00297  -0.238431  0.056592  0.001541  3.755983  0.002
N  N156  1  0.82269668  0.35741552  0.81431829  1  -1.242312  0.002795  -0.240895  0.049871  0.001494  3.767615  0.002
N  N157  1  0.99898854  0.42819186  0.75145389  1  -1.223747  0.081428  -0.379076  -0.28235  0.054033  3.638498  0.071
N  N158  1  0.47882873  0.81397326  0.41610881  1  -1.235092  0.002586  -0.249705  0.031545  0.001364  3.80017  0.002
N  N159  1  0.51405149  0.64334651  0.44646052  1  -1.190888  0.075717  -0.380245  -0.293062  0.050539  3.657788  0.066
N  N160  1  0.60353016  0.41796266  0.30339653  1  -1.185167  0.076834  -0.378469  -0.293701  0.051109  3.651567  0.067
N  N161  1  0.40194807  0.42016241  0.32631347  1  -1.238779  0.00205  -0.243921  0.049802  0.001003  3.776628  0.001
N  N162  1  0.02820995  0.05229243  0.18200556  1  -1.227456  0.002078  -0.247529  0.039736  0.001089  3.778329  0.002
N  N163  1  0.02443081  0.99789202  0.08641894  1  -1.170761  0.069272  -0.378374  -0.286491  0.046296  3.666677  0.061
N  N164  1  0.74648201  0.55542677  0.20124494  1  -1.192413  0.084254  -0.383031  -0.305597  0.055703  3.682179  0.073
N  N165  1  0.63145168  0.57695124  0.12428084  1  -1.243409  0.002969  -0.23842  0.056567  0.001541  3.755766  0.002
N  N166  1  0.17731964  0.64260241  0.18568535  1  -1.242466  0.002794  -0.240905  0.050114  0.001493  3.767316  0.002
N  N167  1  0.00102639  0.57180676  0.24854777  1  -1.224194  0.081421  -0.379152  -0.282385  0.054028  3.638526  0.071
O  O168  1  0.19840449  0.30028163  0.46159537  1  -1.173366  0.004002  -0.331892  -0.55395  0.001844  2.121669  0.004
O  O169  1  0.31788140  0.48212177  0.52616514  1  -1.114657  0.112867  -0.335206  -0.555487  0.071285  2.408118  0.102
O  O170  1  0.11254822  0.35960517  0.62468102  1  -1.167764  0.0026  -0.334402  -0.567447  0.000829  2.113228  0.003
O  O171  1  0.14650613  0.57287890  0.65188282  1  -1.102261  0.122802  -0.334526  -0.534749  0.077885  2.262826  0.111
O  O172  1  0.94974550  0.15115856  0.01088395  1  -1.097854  0.10956  -0.323813  -0.523656  0.069367  2.312037  0.099
O  O173  1  0.18556598  0.28795692  0.01596472  1  -1.17985  0.001433  -0.340629  -0.579197  -0.000132  2.103471  0.002
O  O174  1  0.88630088  0.28064103  0.12909082  1  -1.208903  -0.000203  -0.371718  -0.626721  -0.000596  2.160123  0.0
O  O175  1  0.68920289  0.26544339  0.08272352  1  -1.161447  0.000588  -0.378872  -0.603592  0.000243  2.056921  0.0
O  O176  1  0.80164530  0.69974709  0.53840063  1  -1.172779  0.004002  -0.33175  -0.553808  0.001844  2.121795  0.004
O  O177  1  0.68213587  0.51791206  0.47383099  1  -1.114449  0.112858  -0.335176  -0.555351  0.071277  2.408299  0.102
O  O178  1  0.88742257  0.64035260  0.37530540  1  -1.168214  0.0026  -0.334293  -0.567479  0.000829  2.113113  0.003
O  O179  1  0.85347924  0.42707820  0.34811297  1  -1.103091  0.122804  -0.334613  -0.534911  0.077887  2.262383  0.111
O  O180  1  0.05023547  0.84883432  0.98912641  1  -1.097521  0.109561  -0.323826  -0.523564  0.06937  2.312057  0.099
O  O181  1  0.81440878  0.71203558  0.98406482  1  -1.179252  0.001436  -0.340768  -0.579184  -0.00013  2.103518  0.002
O  O182  1  0.11366284  0.71930948  0.87093910  1  -1.21014  -0.000206  -0.371752  -0.626669  -0.000598  2.160129  0.0
O  O183  1  0.31076362  0.73452336  0.91730828  1  -1.16104  0.000588  -0.378598  -0.603512  0.000242  2.057225  0.0
