# generated using pymatgen
data_ZnH6C7NO7
_symmetry_space_group_name_H-M   'P 1'
_cell_length_a   10.23395745
_cell_length_b   11.40976739
_cell_length_c   11.41025897
_cell_angle_alpha   78.96971656
_cell_angle_beta   81.85315205
_cell_angle_gamma   81.84049779
_symmetry_Int_Tables_number   1
_chemical_formula_structural   ZnH6C7NO7
_chemical_formula_sum   'Zn2 H12 C14 N2 O14'
_cell_volume   1285.46142589
_cell_formula_units_Z   2
loop_
 _symmetry_equiv_pos_site_id
 _symmetry_equiv_pos_as_xyz
  1  'x, y, z'
loop_
 _atom_site_type_symbol
 _atom_site_label
 _atom_site_symmetry_multiplicity
 _atom_site_fract_x
 _atom_site_fract_y
 _atom_site_fract_z
 _atom_site_occupancy
 _atom_site_pbe_bader_charge
 _atom_site_pbe_bader_spin_density
 _atom_site_pbe_cm5_charge
 _atom_site_pbe_ddec_charge
 _atom_site_pbe_ddec_spin_density
 _atom_site_pbe_ddec_sum_bond_order
 _atom_site_pbe_magmom
Zn  Zn0  1  0.63064143  0.51060543  0.51056106  1  1.275201  0  0.662334  0.7883  0  2.46481  0
Zn  Zn1  1  0.35877537  0.51503683  0.51497415  1  1.281002  0  0.662732  0.788364  0  2.47226  0
H  H2  1  0.66409534  0.10990813  0.51655296  1  0.04827  0  0.107012  0.134552  0  1.015824  0
H  H3  1  0.05661922  0.58825371  0.58813505  1  0.167038  0  0.145812  0.129043  0  0.960679  0
H  H4  1  0.93204424  0.43653159  0.43637603  1  0.155995  0  0.146577  0.129849  0  0.959699  0
H  H5  1  0.71918897  0.64251923  0.64310854  1  0.636464  0  0.342884  0.370189  0  0.892186  0
H  H6  1  0.27143693  0.38283483  0.38337960  1  0.644217  0  0.349489  0.379192  0  0.866001  0
H  H7  1  0.28753233  0.03714502  0.59463555  1  0.608575  0  0.331157  0.349766  0  0.898206  0
H  H8  1  0.65492057  0.95247789  0.62844316  1  0.588413  0  0.330676  0.350085  0  0.899223  0
H  H9  1  0.65491528  0.62845053  0.95252419  1  0.587739  0  0.330645  0.349834  0  0.8993  0
H  H10  1  0.33330077  0.92216706  0.47925284  1  0.075938  0  0.108209  0.135146  0  1.015455  0
H  H11  1  0.28750681  0.59462631  0.03706637  1  0.608415  0  0.331289  0.349845  0  0.89786  0
H  H12  1  0.33339202  0.47921819  0.92210455  1  0.076667  0  0.107998  0.134821  0  1.015771  0
H  H13  1  0.66409391  0.51659724  0.10988505  1  0.048216  0  0.107057  0.134417  0  1.016053  0
C  C14  1  0.44882256  0.50608114  0.74615751  1  1.560621  0  0.202786  0.666613  0  4.16552  0
C  C15  1  0.93291418  0.49821628  0.49815515  1  0.587692  0  0.068072  0.018332  0  3.905757  0
C  C16  1  0.05623683  0.52646137  0.52639840  1  0.577347  0  0.067907  0.016935  0  3.911366  0
C  C17  1  0.42456333  0.87536323  0.51295294  1  0.052411  0  -0.127997  -0.389863  0  3.911068  0
C  C18  1  0.56069576  0.14699315  0.53523554  1  0.042868  0  -0.130585  -0.395459  0  3.9107  0
C  C19  1  0.56070149  0.53532254  0.14696763  1  0.042901  0  -0.13055  -0.395031  0  3.910681  0
C  C20  1  0.42463274  0.51294150  0.87532521  1  0.052369  0  -0.127817  -0.389338  0  3.911591  0
C  C21  1  0.53884985  0.53001715  0.27826719  1  1.586063  0  0.203052  0.668122  0  4.161542  0
C  C22  1  0.50451032  0.94035236  0.55352370  1  0.422221  0  0.082333  0.236271  0  4.110677  0
C  C23  1  0.46619848  0.07063901  0.55377028  1  0.473133  0  0.083613  0.238284  0  4.114198  0
C  C24  1  0.46620174  0.55383545  0.07059898  1  0.472652  0  0.083505  0.237814  0  4.114322  0
C  C25  1  0.50453688  0.55354161  0.94033368  1  0.422229  0  0.082489  0.236448  0  4.11052  0
C  C26  1  0.53881708  0.27830978  0.52990958  1  1.585275  0  0.203065  0.667924  0  4.161105  0
C  C27  1  0.44875373  0.74618366  0.50607997  1  1.561058  0  0.202936  0.667009  0  4.163534  0
N  N28  1  0.17295858  0.48296197  0.48299844  1  -0.56572  0  -0.206389  0.007654  0  3.451064  0
N  N29  1  0.81653063  0.54213358  0.54221894  1  -0.584549  0  -0.207554  0.00723  0  3.451562  0
O  O30  1  0.56723672  0.50645237  0.69365562  1  -1.166151  0  -0.3199  -0.557152  0  2.318102  0
O  O31  1  0.64327784  0.52939783  0.32866444  1  -1.150235  0  -0.332484  -0.551761  0  2.24658  0
O  O32  1  0.64318114  0.32868489  0.52953319  1  -1.149937  0  -0.332248  -0.551433  0  2.246538  0
O  O33  1  0.34561551  0.69718767  0.49916581  1  -1.156992  0  -0.331907  -0.551575  0  2.244727  0
O  O34  1  0.34577718  0.49887221  0.69718266  1  -1.157089  0  -0.331956  -0.551389  0  2.245296  0
O  O35  1  0.81487532  0.61988412  0.62013681  1  -0.697755  0  -0.235052  -0.311752  0  2.196377  0
O  O36  1  0.17557924  0.40486402  0.40497544  1  -0.714251  0  -0.234504  -0.314585  0  2.171336  0
O  O37  1  0.42120706  0.52495702  0.33207130  1  -1.16543  0  -0.321356  -0.561387  0  2.325898  0
O  O38  1  0.33420494  0.10854652  0.56939208  1  -1.113824  0  -0.331504  -0.383831  0  2.301472  0
O  O39  1  0.62295986  0.89183650  0.59308178  1  -1.087847  0  -0.334455  -0.392889  0  2.302154  0
O  O40  1  0.62298970  0.59308150  0.89186819  1  -1.087479  0  -0.334525  -0.392783  0  2.301993  0
O  O41  1  0.33420673  0.56947433  0.10846581  1  -1.113294  0  -0.331488  -0.383583  0  2.300912  0
O  O42  1  0.42119506  0.33215764  0.52459575  1  -1.166526  0  -0.321383  -0.561413  0  2.325963  0
O  O43  1  0.56720278  0.69372253  0.50616438  1  -1.163913  0  -0.319973  -0.556819  0  2.317392  0
