# generated using pymatgen
data_AgPH26C29N4O3
_symmetry_space_group_name_H-M   'P 1'
_cell_length_a   9.35684894
_cell_length_b   9.42058120
_cell_length_c   16.60990000
_cell_angle_alpha   74.94104899
_cell_angle_beta   74.83602312
_cell_angle_gamma   68.54986130
_symmetry_Int_Tables_number   1
_chemical_formula_structural   AgPH26C29N4O3
_chemical_formula_sum   'Ag2 P2 H52 C58 N8 O6'
_cell_volume   1293.10888144
_cell_formula_units_Z   2
loop_
 _symmetry_equiv_pos_site_id
 _symmetry_equiv_pos_as_xyz
  1  'x, y, z'
loop_
 _atom_site_type_symbol
 _atom_site_label
 _atom_site_symmetry_multiplicity
 _atom_site_fract_x
 _atom_site_fract_y
 _atom_site_fract_z
 _atom_site_occupancy
 _atom_site_pbe_bader_charge
 _atom_site_pbe_bader_spin_density
 _atom_site_pbe_cm5_charge
 _atom_site_pbe_ddec_charge
 _atom_site_pbe_ddec_spin_density
 _atom_site_pbe_ddec_sum_bond_order
 _atom_site_pbe_magmom
Ag  Ag0  1  0.17484714  0.80034974  0.80256478  1  0.445234  0  0.450695  0.167894  0  2.297691  0
Ag  Ag1  1  0.79972339  0.17542716  0.30279316  1  0.446145  0  0.449355  0.167987  0  2.293589  0
P  P2  1  0.32698209  0.87960784  0.67377384  1  1.460471  0  -0.021852  0.22667  0  4.241734  0
P  P3  1  0.87886620  0.32691124  0.17399652  1  1.45498  0  -0.021509  0.22656  0  4.240911  0
H  H4  1  0.50199974  0.31464041  0.77486211  1  0.505559  0  0.291532  0.248348  0  1.051032  0
H  H5  1  0.31424547  0.50477331  0.27441287  1  0.51613  0  0.29223  0.250348  0  1.048406  0
H  H6  1  0.91980308  0.07569216  0.73089596  1  0.069529  0  0.101743  0.072538  0  1.060846  0
H  H7  1  0.07616167  0.92064169  0.23065985  1  0.062897  0  0.101596  0.072524  0  1.060077  0
H  H8  1  0.45907635  0.09164145  0.87546525  1  0.098  0  0.104207  0.113759  0  1.0425  0
H  H9  1  0.08967015  0.46388563  0.37509462  1  0.079119  0  0.104233  0.113333  0  1.041569  0
H  H10  1  0.58587882  0.84141723  0.96641634  1  0.0527  0  0.098987  0.100553  0  1.0209  0
H  H11  1  0.83796403  0.59116098  0.46620282  1  0.057926  0  0.099066  0.100723  0  1.020343  0
H  H12  1  0.87862869  0.72073435  0.93399297  1  0.120383  0  0.106389  0.084598  0  1.03444  0
H  H13  1  0.71761709  0.88189078  0.43378680  1  0.10818  0  0.106208  0.083784  0  1.034516  0
H  H14  1  0.81443602  0.32103451  0.70226293  1  0.052894  0  0.101978  0.07653  0  1.006482  0
H  H15  1  0.32339747  0.81411933  0.20129433  1  0.053215  0  0.102592  0.076729  0  1.004462  0
H  H16  1  0.63522403  0.45875248  0.68139045  1  0.06328  0  0.113145  0.100524  0  0.98171  0
H  H17  1  0.46090425  0.63551716  0.18039562  1  0.062737  0  0.113172  0.099968  0  0.983754  0
H  H18  1  0.54780354  0.25009153  0.46079642  1  0.088901  0  0.108371  0.072284  0  1.057409  0
H  H19  1  0.25137159  0.54841376  0.96019216  1  0.09897  0  0.108741  0.073509  0  1.054735  0
H  H20  1  0.49516094  0.30391475  0.60660165  1  0.108073  0  0.108729  0.123355  0  1.006697  0
H  H21  1  0.30618693  0.49647560  0.10571428  1  0.118348  0  0.109172  0.12379  0  1.004739  0
H  H22  1  0.98035863  0.27015082  0.56687995  1  0.099154  0  0.099841  0.108931  0  1.065529  0
H  H23  1  0.26876166  0.97931384  0.06679249  1  0.099226  0  0.100107  0.109354  0  1.063373  0
H  H24  1  0.01568518  0.20790577  0.42486058  1  0.111116  0  0.116753  0.094602  0  0.995993  0
H  H25  1  0.20553712  0.01384847  0.92500043  1  0.103667  0  0.116729  0.094694  0  0.993218  0
H  H26  1  0.51453166  0.66500752  0.79513876  1  0.090678  0  0.09428  0.092931  0  1.047281  0
H  H27  1  0.66482869  0.51392481  0.29610884  1  0.080637  0  0.09454  0.093128  0  1.04617  0
H  H28  1  0.79714627  0.59108093  0.80368052  1  0.065339  0  0.099582  0.097789  0  1.030536  0
H  H29  1  0.59159099  0.79440805  0.30465245  1  0.107921  0  0.099599  0.097833  0  1.029501  0
H  H30  1  0.97040637  0.71675660  0.69289712  1  0.057067  0  0.099278  0.093728  0  1.019931  0
H  H31  1  0.71787400  0.96593518  0.19333895  1  0.0822  0  0.099308  0.093835  0  1.020501  0
H  H32  1  0.86498461  0.91214097  0.57057782  1  0.064262  0  0.096074  0.091743  0  1.039049  0
H  H33  1  0.91298657  0.86077818  0.07036505  1  0.046565  0  0.095979  0.091277  0  1.035319  0
H  H34  1  0.58718859  0.98421382  0.56220242  1  0.078241  0  0.09757  0.092352  0  1.046857  0
H  H35  1  0.98419763  0.58499656  0.06184268  1  0.056384  0  0.097912  0.092891  0  1.046906  0
H  H36  1  0.34293293  0.09690220  0.50509728  1  0.119585  0  0.100564  0.101647  0  1.043606  0
H  H37  1  0.09764645  0.34296030  0.00517623  1  0.109329  0  0.099802  0.100751  0  1.044951  0
H  H38  1  0.25942125  0.38358814  0.46852110  1  0.09792  0  0.099194  0.093384  0  1.042438  0
H  H39  1  0.38635946  0.25933467  0.96818930  1  0.092864  0  0.098984  0.093266  0  1.041931  0
H  H40  1  0.12233111  0.54281544  0.58063239  1  0.11714  0  0.096987  0.095413  0  1.032562  0
H  H41  1  0.54678451  0.12128494  0.07985610  1  0.079471  0  0.09664  0.09453  0  1.034961  0
H  H42  1  0.06813074  0.41216903  0.73187704  1  0.096749  0  0.102516  0.104458  0  1.025895  0
H  H43  1  0.41517200  0.06698959  0.23119691  1  0.083058  0  0.10203  0.103524  0  1.025383  0
H  H44  1  0.15908820  0.12640764  0.76964666  1  0.092631  0  0.096227  0.092952  0  1.03383  0
H  H45  1  0.12724927  0.15829695  0.26941829  1  0.08923  0  0.095719  0.09311  0  1.034567  0
H  H46  1  0.57691615  0.67246885  0.56304863  1  0.061204  0  0.096204  0.092238  0  1.03752  0
H  H47  1  0.67375929  0.57582766  0.06206944  1  0.054092  0  0.096543  0.092881  0  1.036662  0
H  H48  1  0.57200012  0.58083204  0.43732852  1  0.055331  0  0.099431  0.095505  0  1.02273  0
H  H49  1  0.58373687  0.57102628  0.93569237  1  0.057141  0  0.099526  0.095717  0  1.021128  0
H  H50  1  0.32699187  0.66845630  0.38018134  1  0.077381  0  0.099441  0.098503  0  1.029871  0
H  H51  1  0.67082461  0.32696112  0.87907830  1  0.071118  0  0.099313  0.098559  0  1.029544  0
H  H52  1  0.08484417  0.84884028  0.45057803  1  0.090902  0  0.096782  0.091871  0  1.040833  0
H  H53  1  0.84817997  0.08550720  0.95093284  1  0.052098  0  0.09665  0.091247  0  1.040224  0
H  H54  1  0.08881433  0.93890177  0.57768472  1  0.058305  0  0.096372  0.08999  0  1.035146  0
H  H55  1  0.93614011  0.08921930  0.07890376  1  0.059111  0  0.096301  0.089514  0  1.034857  0
C  C56  1  0.84091706  0.02973281  0.78302089  1  0.478705  0  0.014143  -0.059951  0  3.947846  0
C  C57  1  0.02931500  0.84269327  0.28274486  1  0.516842  0  0.014505  -0.060373  0  3.946702  0
C  C58  1  0.67885192  0.10872526  0.79723998  1  0.458683  0  0.105175  0.211988  0  4.077696  0
C  C59  1  0.10812224  0.68159947  0.29688062  1  0.428206  0  0.105295  0.211431  0  4.078113  0
C  C60  1  0.58542166  0.03618259  0.86424780  1  0.055814  0  -0.086481  -0.154569  0  3.930323  0
C  C61  1  0.03452129  0.58946617  0.36399114  1  0.001495  0  -0.086541  -0.153387  0  3.926528  0
C  C62  1  0.65632772  0.89782616  0.91406650  1  -0.083142  0  -0.092822  -0.11213  0  4.044727  0
C  C63  1  0.89525055  0.66060868  0.41383989  1  -0.095448  0  -0.092127  -0.112468  0  4.043468  0
C  C64  1  0.81864419  0.83033427  0.89710123  1  0.403852  0  0.0151  0.027749  0  3.992431  0
C  C65  1  0.82792919  0.82181615  0.39687143  1  0.502835  0  0.015271  0.029029  0  3.992125  0
C  C66  1  0.70317724  0.33470782  0.68531635  1  0.375217  0  -0.052416  -0.060826  0  3.942264  0
C  C67  1  0.33616701  0.70372478  0.18453720  1  0.359793  0  -0.052424  -0.058827  0  3.94168  0
C  C68  1  0.64108432  0.25356931  0.48716834  1  0.446258  0  0.036852  0.080205  0  3.970476  0
C  C69  1  0.25426819  0.64130921  0.98666858  1  0.432558  0  0.037026  0.079794  0  3.969428  0
C  C70  1  0.61198301  0.28534726  0.56805677  1  0.017026  0  -0.081986  -0.16844  0  3.942423  0
C  C71  1  0.28658169  0.61262507  0.06740518  1  0.019557  0  -0.081994  -0.168256  0  3.943513  0
C  C72  1  0.73375154  0.29340717  0.59879046  1  -0.037625  0  0.00898  0.131078  0  3.936714  0
C  C73  1  0.29403740  0.73394017  0.09820200  1  -0.041846  0  0.009672  0.131006  0  3.936162  0
C  C74  1  0.88093784  0.26577518  0.54623569  1  -0.093475  0  -0.091546  -0.192224  0  3.956599  0
C  C75  1  0.26503740  0.88030154  0.04599084  1  -0.090807  0  -0.090547  -0.191966  0  3.957925  0
C  C76  1  0.90103423  0.23186161  0.46627246  1  0.478748  0  0.041519  0.086602  0  3.94513  0
C  C77  1  0.23057874  0.89994322  0.96619240  1  0.488353  0  0.042397  0.085699  0  3.946863  0
C  C78  1  0.53292169  0.82947585  0.67839502  1  -0.565646  0  -0.028697  -0.045776  0  3.978896  0
C  C79  1  0.82931986  0.53151671  0.17867622  1  -0.52291  0  -0.028808  -0.046962  0  3.976889  0
C  C80  1  0.59287672  0.71811268  0.74617544  1  -0.091436  0  -0.089237  -0.104892  0  3.985391  0
C  C81  1  0.71823161  0.59136746  0.24687159  1  -0.137612  0  -0.088522  -0.103198  0  3.983001  0
C  C82  1  0.75050934  0.67648489  0.75067083  1  -0.000148  0  -0.090013  -0.077081  0  3.982801  0
C  C83  1  0.67707341  0.74782576  0.25142748  1  -0.02105  0  -0.090428  -0.077566  0  3.981852  0
C  C84  1  0.84849258  0.74672257  0.68789771  1  -0.03067  0  -0.085249  -0.063843  0  3.978858  0
C  C85  1  0.74749682  0.84487877  0.18831012  1  -0.083755  0  -0.08471  -0.064257  0  3.976158  0
C  C86  1  0.78946035  0.85694195  0.61998670  1  -0.048533  0  -0.093758  -0.089532  0  4.005957  0
C  C87  1  0.85763107  0.78592125  0.12003039  1  0.024442  0  -0.093711  -0.087603  0  4.000464  0
C  C88  1  0.63263511  0.89790504  0.61513133  1  -0.027386  0  -0.087524  -0.089872  0  3.9781  0
C  C89  1  0.89812506  0.63023669  0.11512903  1  -0.036645  0  -0.08744  -0.090753  0  3.980357  0
C  C90  1  0.26081514  0.09116236  0.64050623  1  -0.57281  0  -0.028797  -0.053613  0  3.969029  0
C  C91  1  0.09192611  0.26036826  0.14045592  1  -0.539299  0  -0.029311  -0.053891  0  3.96824  0
C  C92  1  0.28705679  0.16516203  0.55541063  1  -0.01977  0  -0.090309  -0.104899  0  3.968483  0
C  C93  1  0.16644981  0.28681818  0.05532166  1  -0.134868  0  -0.089894  -0.103482  0  3.966769  0
C  C94  1  0.23830128  0.32700984  0.53457527  1  -0.072639  0  -0.092723  -0.083128  0  3.993505  0
C  C95  1  0.32945474  0.23787522  0.03426996  1  -0.021949  0  -0.093682  -0.085137  0  3.997562  0
C  C96  1  0.16064567  0.41666416  0.59767933  1  -0.173315  0  -0.089264  -0.078627  0  3.98152  0
C  C97  1  0.41970877  0.15970523  0.09716397  1  -0.061428  0  -0.089386  -0.077423  0  3.984479  0
C  C98  1  0.13081350  0.34398461  0.68207878  1  -0.06953  0  -0.093609  -0.082343  0  3.989921  0
C  C99  1  0.34646206  0.12978914  0.18160036  1  -0.072601  0  -0.093903  -0.082151  0  3.988876  0
C  C100  1  0.18149541  0.18221336  0.70337035  1  0.001624  0  -0.087651  -0.093806  0  3.982203  0
C  C101  1  0.18348098  0.18072271  0.20312463  1  -0.007589  0  -0.087378  -0.093815  0  3.98171  0
C  C102  1  0.33304960  0.81128073  0.57918061  1  -0.532343  0  -0.024763  -0.041688  0  3.974703  0
C  C103  1  0.81058132  0.33279725  0.07934133  1  -0.49048  0  -0.025085  -0.041657  0  3.974067  0
C  C104  1  0.46844374  0.71003652  0.53918910  1  -0.063948  0  -0.088799  -0.096679  0  3.971203  0
C  C105  1  0.71086701  0.46770794  0.03854721  1  -0.016454  0  -0.088545  -0.096934  0  3.970971  0
C  C106  1  0.46564080  0.65913891  0.46798137  1  -0.006581  0  -0.089569  -0.074597  0  4.003993  0
C  C107  1  0.66085310  0.46498882  0.96693743  1  -0.022353  0  -0.089709  -0.074558  0  3.998906  0
C  C108  1  0.32839959  0.70868973  0.43579153  1  -0.06817  0  -0.089557  -0.074915  0  3.973663  0
C  C109  1  0.71009049  0.32832648  0.93503538  1  -0.049983  0  -0.089256  -0.074567  0  3.970045  0
C  C110  1  0.19250004  0.80955692  0.47552534  1  -0.0366  0  -0.090514  -0.078744  0  3.995979  0
C  C111  1  0.80929612  0.19281838  0.97558189  1  -0.003269  0  -0.090586  -0.078665  0  3.995828  0
C  C112  1  0.19462380  0.85954043  0.54700036  1  -0.044228  0  -0.088688  -0.102493  0  3.984597  0
C  C113  1  0.85813587  0.19483684  0.04754199  1  -0.119902  0  -0.088286  -0.102052  0  3.981601  0
N  N114  1  0.90771720  0.89601883  0.83219340  1  -1.230704  0  -0.349899  -0.178504  0  3.644329  0
N  N115  1  0.89474756  0.90975594  0.33200505  1  -1.242856  0  -0.349403  -0.179112  0  3.640089  0
N  N116  1  0.61305990  0.24997669  0.75059470  1  -1.261858  0  -0.441733  -0.331242  0  3.595657  0
N  N117  1  0.25022941  0.61537783  0.25016412  1  -1.252769  0  -0.442434  -0.332619  0  3.596845  0
N  N118  1  0.78285836  0.22629809  0.43640550  1  -1.218291  0  -0.339258  -0.208866  0  3.525708  0
N  N119  1  0.22584663  0.78221146  0.93623081  1  -1.224945  0  -0.33948  -0.208322  0  3.525373  0
N  N120  1  0.21959074  0.43710278  0.83917817  1  0.814989  0  0.087813  0.692925  0  4.452386  0
N  N121  1  0.43352861  0.22145147  0.33931025  1  0.82661  0  0.088119  0.703924  0  4.432955  0
O  O122  1  0.34315330  0.47783966  0.81149666  1  -0.602286  0  -0.210152  -0.465164  0  1.993232  0
O  O123  1  0.47494024  0.34396489  0.31250751  1  -0.591623  0  -0.210966  -0.469762  0  1.988725  0
O  O124  1  0.08870389  0.54104987  0.85386865  1  -0.545456  0  -0.199367  -0.436711  0  2.00135  0
O  O125  1  0.53804141  0.09109508  0.35317995  1  -0.550999  0  -0.199146  -0.439836  0  1.99338  0
O  O126  1  0.22957875  0.29653925  0.85174988  1  -0.532493  0  -0.187814  -0.441614  0  1.978407  0
O  O127  1  0.29183285  0.23188249  0.35191489  1  -0.549865  0  -0.187531  -0.445515  0  1.975322  0
