# generated using pymatgen
data_CdH3C2N3Cl2
_symmetry_space_group_name_H-M   'P 1'
_cell_length_a   7.20040097
_cell_length_b   7.15917508
_cell_length_c   7.84140231
_cell_angle_alpha   117.16487528
_cell_angle_beta   117.32897468
_cell_angle_gamma   89.99319614
_symmetry_Int_Tables_number   1
_chemical_formula_structural   CdH3C2N3Cl2
_chemical_formula_sum   'Cd2 H6 C4 N6 Cl4'
_cell_volume   308.06389945
_cell_formula_units_Z   2
loop_
 _symmetry_equiv_pos_site_id
 _symmetry_equiv_pos_as_xyz
  1  'x, y, z'
loop_
 _atom_site_type_symbol
 _atom_site_label
 _atom_site_symmetry_multiplicity
 _atom_site_fract_x
 _atom_site_fract_y
 _atom_site_fract_z
 _atom_site_occupancy
 _atom_site_pbe_bader_spin_density
 _atom_site_pbe_cm5_charge
 _atom_site_pbe_ddec_charge
 _atom_site_pbe_ddec_spin_density
 _atom_site_pbe_ddec_sum_bond_order
 _atom_site_pbe_magmom
Cd  Cd0  1  0.00000003  0.99999697  0.49999991  1  0  0.602744  0.747472  0  2.490455  0
Cd  Cd1  1  0.50000151  0.00000075  0.49999843  1  0  0.602463  0.747828  0  2.489245  0
H  H2  1  0.18145485  0.43133925  0.36230860  1  0  0.298209  0.292159  0  0.962179  0
H  H3  1  0.81853985  0.56865282  0.63768800  1  0  0.298195  0.292217  0  0.962167  0
H  H4  1  0.35076065  0.30702025  0.11335381  1  0  0.129032  0.122546  0  1.013206  0
H  H5  1  0.76320212  0.30689743  0.11402059  1  0  0.129048  0.122161  0  1.013034  0
H  H6  1  0.23679642  0.69310933  0.88597742  1  0  0.129051  0.122133  0  1.013024  0
H  H7  1  0.64924033  0.69297179  0.88664920  1  0  0.129034  0.122528  0  1.013238  0
C  C8  1  0.17884204  0.27748026  0.05465261  1  0  0.165495  0.166237  0  3.869537  0
C  C9  1  0.87621197  0.27743789  0.05506412  1  0  0.165434  0.167516  0  3.869879  0
C  C10  1  0.12378687  0.72256396  0.94493576  1  0  0.16543  0.167601  0  3.869902  0
C  C11  1  0.82115619  0.72251345  0.94534359  1  0  0.16548  0.166283  0  3.869487  0
N  N12  1  0.01746089  0.17220695  0.84422523  1  0  -0.248948  -0.19499  0  3.454831  0
N  N13  1  0.82679838  0.17222442  0.84452392  1  0  -0.249595  -0.197121  0  3.45483  0
N  N14  1  0.17319976  0.82778070  0.15547705  1  0  -0.249578  -0.197137  0  3.454839  0
N  N15  1  0.98253820  0.82779001  0.15577270  1  0  -0.248933  -0.194979  0  3.454741  0
N  N16  1  0.09520277  0.34509129  0.19002487  1  0  -0.359418  -0.208516  0  3.636522  0
N  N17  1  0.90480122  0.65491216  0.80998293  1  0  -0.359431  -0.208684  0  3.636705  0
Cl  Cl18  1  0.67745201  0.17464093  0.35494337  1  0  -0.315928  -0.508796  0  1.270254  0
Cl  Cl19  1  0.67757848  0.68032978  0.35509790  1  0  -0.315919  -0.508822  0  1.27071  0
Cl  Cl20  1  0.32255636  0.82536743  0.64506194  1  0  -0.315938  -0.508805  0  1.27028  0
Cl  Cl21  1  0.32241833  0.31967047  0.64489664  1  0  -0.315925  -0.508831  0  1.270707  0
