# generated using pymatgen
data_CuH10C7O10
_symmetry_space_group_name_H-M   'P 1'
_cell_length_a   4.88716525
_cell_length_b   9.90064191
_cell_length_c   10.60019978
_cell_angle_alpha   93.96116962
_cell_angle_beta   94.09493043
_cell_angle_gamma   97.81932829
_symmetry_Int_Tables_number   1
_chemical_formula_structural   CuH10C7O10
_chemical_formula_sum   'Cu2 H20 C14 O20'
_cell_volume   505.22200316
_cell_formula_units_Z   2
loop_
 _symmetry_equiv_pos_site_id
 _symmetry_equiv_pos_as_xyz
  1  'x, y, z'
loop_
 _atom_site_type_symbol
 _atom_site_label
 _atom_site_symmetry_multiplicity
 _atom_site_fract_x
 _atom_site_fract_y
 _atom_site_fract_z
 _atom_site_occupancy
 _atom_site_pbe_cm5_charge
 _atom_site_pbe_ddec_charge
 _atom_site_pbe_ddec_spin_density
 _atom_site_pbe_ddec_sum_bond_order
 _atom_site_pbe_magmom
Cu  Cu0  1  0.99999763  0.99999706  0.49999465  1  0.714454  1.004799  0.768264  1.984415  0.633
Cu  Cu1  1  0.50000368  0.99999681  0.99999580  1  0.731402  1.080761  0.801296  2.038126  0.658
H  H2  1  0.44814960  0.92087602  0.59793516  1  0.297752  0.393043  0.000568  0.943959  0.001
H  H3  1  0.55185464  0.07911582  0.40206497  1  0.297632  0.392768  0.000568  0.944303  0.001
H  H4  1  0.22582825  0.91606158  0.69947305  1  0.294885  0.386325  0.00032  0.959049  0.0
H  H5  1  0.77418829  0.08393743  0.30052709  1  0.294873  0.38631  0.00032  0.959087  0.0
H  H6  1  0.94272678  0.79213012  0.30074621  1  0.301508  0.381242  -9.7e-05  0.946276  0.0
H  H7  1  0.05725420  0.20786583  0.69924483  1  0.301486  0.381201  -9.7e-05  0.946334  0.0
H  H8  1  0.26840579  0.78869619  0.31525569  1  0.296263  0.387285  -2.2e-05  0.944809  0.0
H  H9  1  0.73158658  0.21129670  0.68473746  1  0.296259  0.387332  -2.3e-05  0.944768  0.0
H  H10  1  0.25445802  0.22703611  0.99974811  1  0.290305  0.386439  0.000973  0.956181  0.002
H  H11  1  0.74555648  0.77297101  0.00026289  1  0.29032  0.386517  0.000973  0.956051  0.002
H  H12  1  0.43026757  0.21868893  0.87780518  1  0.296898  0.390811  0.000811  0.942392  0.002
H  H13  1  0.56971714  0.78131410  0.12220063  1  0.29688  0.390797  0.000812  0.942408  0.002
H  H14  1  0.09393517  0.05569895  0.12368189  1  0.293207  0.388949  0.000557  0.958917  0.001
H  H15  1  0.90606525  0.94430918  0.87632864  1  0.293222  0.389036  0.000556  0.958787  0.001
H  H16  1  0.19001075  0.92345508  0.18490662  1  0.292942  0.40881  0.001053  0.922126  0.002
H  H17  1  0.80997468  0.07654286  0.81509416  1  0.293026  0.408962  0.001053  0.921934  0.002
H  H18  1  0.23235015  0.54525822  0.40477347  1  0.119693  0.166677  4.5e-05  1.01675  0.0
H  H19  1  0.76762047  0.45473770  0.59522095  1  0.119636  0.166633  4.5e-05  1.016799  0.0
H  H20  1  0.84354230  0.54928950  0.12100487  1  0.12409  0.170354  7.9e-05  0.994821  0.0
H  H21  1  0.15645248  0.45071875  0.87898470  1  0.124108  0.17043  7.9e-05  0.994824  0.0
C  C22  1  0.38334405  0.36121617  0.35141156  1  0.110858  0.173602  0.006189  3.890199  0.007
C  C23  1  0.61666352  0.63878791  0.64859519  1  0.110887  0.173614  0.006189  3.890277  0.007
C  C24  1  0.20748174  0.27182302  0.43391333  1  0.208551  0.523766  -0.000197  4.256857  -0.001
C  C25  1  0.79248751  0.72817496  0.56607741  1  0.208393  0.523804  -0.000197  4.256591  -0.001
C  C26  1  0.37116067  0.49716105  0.34553131  1  -0.090014  -0.288294  0.000378  3.888656  0.001
C  C27  1  0.62880918  0.50283899  0.65445865  1  -0.089924  -0.288146  0.000378  3.88855  0.001
C  C28  1  0.54075163  0.57525950  0.26334167  1  0.132344  0.442583  0.000503  4.067334  0.001
C  C29  1  0.45923953  0.42473644  0.73665258  1  0.132251  0.442354  0.000503  4.06762  0.001
C  C30  1  0.71100618  0.49994856  0.18800168  1  -0.085966  -0.271239  0.00024  3.843529  0.0
C  C31  1  0.28899172  0.50004943  0.81199297  1  -0.085929  -0.271295  0.00024  3.843601  0.0
C  C32  1  0.71231007  0.36436236  0.20140639  1  0.113359  0.174356  -0.000206  3.901614  0.0
C  C33  1  0.28769695  0.63563968  0.79859926  1  0.113386  0.174492  -0.000206  3.901282  0.0
C  C34  1  0.89746994  0.27601211  0.13663427  1  0.211448  0.526165  -0.000323  4.280664  0.0
C  C35  1  0.10258913  0.72400114  0.86338921  1  0.211369  0.526114  -0.000323  4.280579  0.0
O  O36  1  0.29624883  0.96942232  0.62858396  1  -0.582488  -0.746716  0.049275  2.192698  0.071
O  O37  1  0.70375463  0.03057363  0.37141170  1  -0.582369  -0.746489  0.049277  2.192952  0.071
O  O38  1  0.12390841  0.85001171  0.30802510  1  -0.566527  -0.75411  0.001744  2.138427  0.004
O  O39  1  0.87608140  0.14997914  0.69196499  1  -0.566505  -0.754156  0.001745  2.138409  0.004
O  O40  1  0.41282832  0.18470956  0.96379319  1  -0.586181  -0.777284  0.047576  2.215287  0.07
O  O41  1  0.58717232  0.81529146  0.03620931  1  -0.586161  -0.777325  0.047573  2.215342  0.07
O  O42  1  0.20133431  0.97715654  0.10683193  1  -0.606905  -0.799675  0.045168  2.253308  0.066
O  O43  1  0.79865288  0.02284755  0.89316839  1  -0.606988  -0.799874  0.04517  2.25326  0.066
O  O44  1  0.55090313  0.29503164  0.28093109  1  -0.085281  -0.086253  0.00026  2.737867  0.0
O  O45  1  0.44910521  0.70497452  0.71906828  1  -0.08531  -0.08634  0.00026  2.737677  0.0
O  O46  1  0.26336927  0.14775682  0.43799942  1  -0.31783  -0.549543  0.053314  2.408972  0.08
O  O47  1  0.73664179  0.85224425  0.56199688  1  -0.31777  -0.549606  0.053304  2.409021  0.08
O  O48  1  0.02625140  0.32406528  0.48792751  1  -0.301411  -0.507897  0.000905  2.193692  0.002
O  O49  1  0.97376476  0.67593269  0.51207632  1  -0.301378  -0.508006  0.000906  2.19342  0.002
O  O50  1  0.54178479  0.70417514  0.25981773  1  -0.282707  -0.484857  0.002856  2.200111  0.004
O  O51  1  0.45821063  0.29582180  0.74018241  1  -0.28266  -0.484713  0.002855  2.200125  0.004
O  O52  1  0.89159850  0.15550632  0.17338948  1  -0.303307  -0.572697  0.000996  2.375183  0.003
O  O53  1  0.10839667  0.84449772  0.82662057  1  -0.303268  -0.572665  0.000995  2.375135  0.003
O  O54  1  0.04730516  0.32795155  0.05614427  1  -0.298389  -0.504535  0.00226  2.194373  0.003
O  O55  1  0.95273537  0.67205355  0.94387040  1  -0.29842  -0.504616  0.00226  2.194203  0.003
