# generated using pymatgen
data_CdH13C19N3O5
_symmetry_space_group_name_H-M   'P 1'
_cell_length_a   7.97727026
_cell_length_b   8.73885025
_cell_length_c   13.38849651
_cell_angle_alpha   100.34576492
_cell_angle_beta   106.22377586
_cell_angle_gamma   104.40314196
_symmetry_Int_Tables_number   1
_chemical_formula_structural   CdH13C19N3O5
_chemical_formula_sum   'Cd2 H26 C38 N6 O10'
_cell_volume   836.29405895
_cell_formula_units_Z   2
loop_
 _symmetry_equiv_pos_site_id
 _symmetry_equiv_pos_as_xyz
  1  'x, y, z'
loop_
 _atom_site_type_symbol
 _atom_site_label
 _atom_site_symmetry_multiplicity
 _atom_site_fract_x
 _atom_site_fract_y
 _atom_site_fract_z
 _atom_site_occupancy
 _atom_site_pbe_bader_charge
 _atom_site_pbe_bader_spin_density
 _atom_site_pbe_cm5_charge
 _atom_site_pbe_ddec_charge
 _atom_site_pbe_ddec_spin_density
 _atom_site_pbe_ddec_sum_bond_order
 _atom_site_pbe_magmom
Cd  Cd0  1  0.55159872  0.85088469  0.81286285  1  1.264397  0  0.77214  0.862377  0  2.173085  0
Cd  Cd1  1  0.44839886  0.14912165  0.18714825  1  1.264361  0  0.772145  0.862333  0  2.173158  0
H  H2  1  0.49108391  0.82886298  0.01351328  1  0.653665  0  0.279168  0.376061  0  0.97132  0
H  H3  1  0.50891702  0.17113464  0.98648992  1  0.653684  0  0.279174  0.376063  0  0.971316  0
H  H4  1  0.30050972  0.77373976  0.91743283  1  0.639484  0  0.28598  0.38253  0  0.963583  0
H  H5  1  0.69949166  0.22625908  0.08256983  1  0.639455  0  0.285966  0.382499  0  0.963634  0
H  H6  1  0.29482902  0.34191056  0.87421763  1  0.114387  0  0.115225  0.117906  0  0.980745  0
H  H7  1  0.70516369  0.65808958  0.12578000  1  0.114403  0  0.115252  0.117915  0  0.980745  0
H  H8  1  0.05401572  0.45856745  0.91292853  1  0.086611  0  0.113413  0.122968  0  1.003836  0
H  H9  1  0.94597610  0.54143022  0.08706717  1  0.086594  0  0.113426  0.122982  0  1.003837  0
H  H10  1  0.75462329  0.26019868  0.90121567  1  0.108892  0  0.11938  0.093701  0  0.993133  0
H  H11  1  0.24536978  0.73979529  0.09878057  1  0.108879  0  0.119383  0.093695  0  0.993121  0
H  H12  1  0.79084479  0.06069803  0.67273010  1  0.049879  0  0.109153  0.069693  0  1.035278  0
H  H13  1  0.20914762  0.93931193  0.32726636  1  0.049942  0  0.109177  0.069767  0  1.035389  0
H  H14  1  0.79590705  0.03604426  0.48313538  1  0.105221  0  0.108734  0.120422  0  1.017779  0
H  H15  1  0.20408391  0.96395464  0.51685883  1  0.105225  0  0.108726  0.120402  0  1.017766  0
H  H16  1  0.56680526  0.80123564  0.33520361  1  0.108644  0  0.112774  0.118604  0  0.983021  0
H  H17  1  0.43319006  0.19876447  0.66479520  1  0.108686  0  0.112786  0.118652  0  0.982939  0
H  H18  1  0.98903165  0.22488748  0.46266824  1  0.146566  0  0.111202  0.125637  0  1.024704  0
H  H19  1  0.01097883  0.77511126  0.53733444  1  0.14652  0  0.111216  0.125643  0  1.024719  0
H  H20  1  0.00324001  0.27074455  0.65858218  1  0.067607  0  0.102521  0.103464  0  1.032679  0
H  H21  1  0.99676922  0.72925788  0.34141996  1  0.06787  0  0.102517  0.103487  0  1.032601  0
H  H22  1  0.22381442  0.53068712  0.79230129  1  0.106265  0  0.119473  0.091916  0  1.032975  0
H  H23  1  0.77619006  0.46931658  0.20769871  1  0.106296  0  0.119488  0.091936  0  1.032919  0
H  H24  1  0.30634998  0.53367057  0.27721340  1  0.100884  0  0.10699  0.123074  0  1.004977  0
H  H25  1  0.69365445  0.46632946  0.72278842  1  0.100993  0  0.106981  0.123049  0  1.004925  0
H  H26  1  0.09644786  0.32596458  0.32736480  1  0.136121  0  0.107586  0.120533  0  1.02821  0
H  H27  1  0.90356302  0.67403169  0.67263767  1  0.13618  0  0.107584  0.120509  0  1.028275  0
C  C28  1  0.97350110  0.99407234  0.86068971  1  0.46236  0  0.11256  0.07028  0  3.931542  0
C  C29  1  0.02650117  0.00592894  0.13931114  1  0.462466  0  0.112563  0.070307  0  3.931654  0
C  C30  1  0.13322509  0.09224863  0.85025957  1  0.060284  0  -0.000528  -0.064642  0  3.909775  0
C  C31  1  0.86677368  0.90775022  0.14973968  1  0.060366  0  -0.000534  -0.064625  0  3.909852  0
C  C32  1  0.16630750  0.26200072  0.87473919  1  -0.094521  0  -0.0632  -0.055858  0  3.925379  0
C  C33  1  0.83368737  0.73799816  0.12525941  1  -0.094625  0  -0.063255  -0.055954  0  3.925523  0
C  C34  1  0.03372538  0.32717420  0.89655930  1  0.020105  0  -0.074661  -0.106372  0  3.942527  0
C  C35  1  0.96626859  0.67282224  0.10343886  1  0.020094  0  -0.074655  -0.106353  0  3.942678  0
C  C36  1  0.86893645  0.21880801  0.89194297  1  0.470874  0  0.045958  0.090628  0  3.957744  0
C  C37  1  0.13105753  0.78118844  0.10805744  1  0.470941  0  0.045953  0.090704  0  3.957712  0
C  C38  1  0.94095890  0.81334606  0.85840058  1  1.610054  0  0.200019  0.53979  0  4.252086  0
C  C39  1  0.05904292  0.18665398  0.14159931  1  1.609965  0  0.20006  0.539859  0  4.252196  0
C  C40  1  0.25419872  0.02084097  0.80018651  1  1.625469  0  0.200924  0.578106  0  4.266104  0
C  C41  1  0.74579790  0.97915913  0.19981251  1  1.625592  0  0.200921  0.578029  0  4.266082  0
C  C42  1  0.69245776  0.95805097  0.60593275  1  0.577464  0  0.05274  0.104108  0  3.972491  0
C  C43  1  0.30753415  0.04195407  0.39406231  1  0.557814  0  0.052705  0.104011  0  3.972508  0
C  C44  1  0.69578196  0.94472767  0.50040397  1  0.023583  0  -0.082808  -0.120948  0  3.966018  0
C  C45  1  0.30421471  0.05527610  0.49959250  1  0.023733  0  -0.082769  -0.120873  0  3.966112  0
C  C46  1  0.56801183  0.81383153  0.41798524  1  -0.107393  0  -0.062815  -0.068623  0  3.92553  0
C  C47  1  0.43198434  0.18616732  0.58201058  1  -0.107433  0  -0.062819  -0.068679  0  3.925484  0
C  C48  1  0.44030394  0.69456790  0.44158345  1  -0.033386  0  -0.002956  0.035115  0  4.011531  0
C  C49  1  0.55969878  0.30543459  0.55841687  1  -0.033283  0  -0.002991  0.035073  0  4.011398  0
C  C50  1  0.44836336  0.71839084  0.55129580  1  0.480943  0  0.117818  0.122617  0  3.973788  0
C  C51  1  0.55163802  0.28160796  0.44870238  1  0.480982  0  0.117789  0.122641  0  3.973668  0
C  C52  1  0.32380846  0.59606161  0.57900258  1  0.465304  0  0.118061  0.122465  0  3.967038  0
C  C53  1  0.67619466  0.40393841  0.42099677  1  0.465242  0  0.11807  0.122466  0  3.967034  0
C  C54  1  0.20038044  0.45405444  0.49680551  1  0.042098  0  -0.001712  0.043287  0  4.008277  0
C  C55  1  0.79962959  0.54594305  0.50319546  1  0.042222  0  -0.001714  0.043288  0  4.008049  0
C  C56  1  0.08335369  0.33388522  0.52605846  1  -0.095962  0  -0.064463  -0.079363  0  3.918209  0
C  C57  1  0.91666160  0.66611593  0.47394455  1  -0.096328  0  -0.06443  -0.079307  0  3.918114  0
C  C58  1  0.09141513  0.35911819  0.63221433  1  -0.03821  0  -0.085467  -0.127136  0  3.99488  0
C  C59  1  0.90859755  0.64088298  0.36778899  1  -0.038195  0  -0.085507  -0.127243  0  3.99494  0
C  C60  1  0.21581511  0.50418183  0.70825117  1  0.56277  0  0.058656  0.108129  0  3.926912  0
C  C61  1  0.78419021  0.49582064  0.29174958  1  0.562785  0  0.058679  0.10822  0  3.926834  0
C  C62  1  0.31057539  0.55179201  0.36079705  1  0.051113  0  -0.085378  -0.121143  0  3.964197  0
C  C63  1  0.68943119  0.44820676  0.63920498  1  0.050979  0  -0.085325  -0.121051  0  3.964067  0
C  C64  1  0.19585055  0.43522378  0.38792423  1  -0.101506  0  -0.08391  -0.10694  0  3.959257  0
C  C65  1  0.80415773  0.56477252  0.61207855  1  -0.101603  0  -0.083895  -0.106923  0  3.959162  0
N  N66  1  0.84285102  0.05754957  0.87702699  1  -1.229848  0  -0.328557  -0.268785  0  3.535701  0
N  N67  1  0.15714821  0.94245053  0.12297620  1  -1.229817  0  -0.328556  -0.268882  0  3.535684  0
N  N68  1  0.57224793  0.84970979  0.63089003  1  -1.229563  0  -0.316526  -0.284951  0  3.482605  0
N  N69  1  0.42774923  0.15029889  0.36910708  1  -1.210216  0  -0.316553  -0.284956  0  3.482517  0
N  N70  1  0.32929071  0.61800807  0.68290424  1  -1.23201  0  -0.318664  -0.2504  0  3.479225  0
N  N71  1  0.67070721  0.38199199  0.31709276  1  -1.231971  0  -0.318698  -0.250491  0  3.479273  0
O  O72  1  0.78070448  0.72846401  0.85058775  1  -1.15982  0  -0.331544  -0.543348  0  2.247489  0
O  O73  1  0.21930120  0.27153234  0.14941609  1  -1.159817  0  -0.331546  -0.543379  0  2.247549  0
O  O74  1  0.42377051  0.75779781  0.93768432  1  -1.269927  0  -0.597386  -0.756117  0  2.051074  0
O  O75  1  0.57623221  0.24220468  0.06231600  1  -1.269898  0  -0.597403  -0.756091  0  2.050962  0
O  O76  1  0.07607397  0.76017900  0.86644569  1  -1.185934  0  -0.318538  -0.559962  0  2.229409  0
O  O77  1  0.92393005  0.23982349  0.13355484  1  -1.185937  0  -0.318576  -0.559981  0  2.229442  0
O  O78  1  0.42523039  0.05724500  0.85876280  1  -1.186161  0  -0.33097  -0.580654  0  2.308023  0
O  O79  1  0.57476359  0.94275148  0.14124135  1  -1.186235  0  -0.330942  -0.580586  0  2.307884  0
O  O80  1  0.18321695  0.94115279  0.70322204  1  -1.176804  0  -0.320389  -0.548177  0  2.136599  0
O  O81  1  0.81677712  0.05885103  0.29677698  1  -1.176913  0  -0.320394  -0.54815  0  2.136608  0
