# generated using pymatgen
data_CoH12C16(NO)4
_symmetry_space_group_name_H-M   'P 1'
_cell_length_a   8.70487934
_cell_length_b   9.84264896
_cell_length_c   9.84237276
_cell_angle_alpha   111.65953743
_cell_angle_beta   92.94333779
_cell_angle_gamma   92.94911684
_symmetry_Int_Tables_number   1
_chemical_formula_structural   CoH12C16(NO)4
_chemical_formula_sum   'Co2 H24 C32 N8 O8'
_cell_volume   780.45519942
_cell_formula_units_Z   2
loop_
 _symmetry_equiv_pos_site_id
 _symmetry_equiv_pos_as_xyz
  1  'x, y, z'
loop_
 _atom_site_type_symbol
 _atom_site_label
 _atom_site_symmetry_multiplicity
 _atom_site_fract_x
 _atom_site_fract_y
 _atom_site_fract_z
 _atom_site_occupancy
 _atom_site_pbe_cm5_charge
 _atom_site_pbe_ddec_charge
 _atom_site_pbe_ddec_spin_density
 _atom_site_pbe_ddec_sum_bond_order
 _atom_site_pbe_magmom
Co  Co0  1  0.24999144  0.89969029  0.10030481  1  0.65864  0.854442  2.827204  2.51274  2.579
Co  Co1  1  0.75000693  0.10031159  0.89972625  1  0.658662  0.854257  -2.827348  2.512218  -2.579
H  H2  1  0.11492701  0.56352112  0.89966449  1  0.117059  0.113572  0.000178  1.02757  0.0
H  H3  1  0.38509688  0.10034513  0.43647760  1  0.116981  0.113491  0.000177  1.027549  0.0
H  H4  1  0.88510115  0.43650126  0.10034233  1  0.117015  0.113499  -0.000177  1.027212  0.0
H  H5  1  0.61488913  0.89963465  0.56352468  1  0.116934  0.113452  -0.000177  1.027281  0.0
H  H6  1  0.48275496  0.71622365  0.22673534  1  0.14029  0.112218  -3.5e-05  0.987135  0.0
H  H7  1  0.01724187  0.77329380  0.28379807  1  0.140314  0.112217  -3.4e-05  0.98699  0.0
H  H8  1  0.51727426  0.28379596  0.77328793  1  0.140424  0.11226  3.4e-05  0.987523  0.0
H  H9  1  0.98272188  0.22671198  0.71619784  1  0.140384  0.112167  3.4e-05  0.987364  0.0
H  H10  1  0.19857220  0.33122754  0.97966968  1  0.122916  0.136632  0.000319  1.023493  0.0
H  H11  1  0.30145029  0.02034405  0.66879693  1  0.122892  0.136702  0.000318  1.023404  0.0
H  H12  1  0.80139319  0.66880277  0.02034578  1  0.122851  0.136574  -0.000319  1.023204  0.0
H  H13  1  0.69857162  0.97963844  0.33121229  1  0.122928  0.136643  -0.000318  1.023405  0.0
H  H14  1  0.45649525  0.30632185  0.12505043  1  0.119108  0.110695  0.000144  1.019477  0.0
H  H15  1  0.04351771  0.87491390  0.69368484  1  0.119095  0.110721  0.000143  1.019666  0.0
H  H16  1  0.54352397  0.69371609  0.87495170  1  0.119058  0.110691  -0.000143  1.019174  0.0
H  H17  1  0.95645384  0.12504531  0.30626662  1  0.119071  0.110628  -0.000143  1.019487  0.0
H  H18  1  0.57462473  0.26073483  0.32432909  1  0.103211  0.112877  -0.000118  1.035777  0.0
H  H19  1  0.92545508  0.67565633  0.73929952  1  0.103259  0.112925  -0.000118  1.035698  0.0
H  H20  1  0.42537220  0.73931109  0.67568098  1  0.103258  0.113106  0.000119  1.0358  0.0
H  H21  1  0.07453654  0.32431025  0.26064284  1  0.10325  0.113006  0.000119  1.035814  0.0
H  H22  1  0.62219174  0.31894829  0.58562211  1  0.09536  0.085295  8.8e-05  1.063201  0.0
H  H23  1  0.87782658  0.41436365  0.68106279  1  0.095387  0.085407  8.8e-05  1.06303  0.0
H  H24  1  0.37777609  0.68103838  0.41439522  1  0.095423  0.085515  -8.9e-05  1.063373  0.0
H  H25  1  0.12219743  0.58559631  0.31892787  1  0.095436  0.085461  -8.9e-05  1.063536  0.0
C  C26  1  0.54238543  0.02409023  0.07725514  1  0.200094  0.453987  0.001167  4.227489  0.001
C  C27  1  0.95761393  0.92275735  0.97591465  1  0.200262  0.454332  0.001166  4.228148  0.001
C  C28  1  0.45760700  0.97591333  0.92278413  1  0.200116  0.4539  -0.001167  4.227846  -0.001
C  C29  1  0.04239343  0.07719907  0.02407446  1  0.200204  0.453955  -0.001171  4.22697  -0.001
C  C30  1  0.46962433  0.46375320  0.34513673  1  -0.013039  0.081192  -0.000629  4.09214  -0.001
C  C31  1  0.03041176  0.65484969  0.53625317  1  -0.012944  0.081374  -0.000628  4.091775  -0.001
C  C32  1  0.53034209  0.53630213  0.65491161  1  -0.012907  0.081217  0.00063  4.089557  0.001
C  C33  1  0.96963282  0.34508583  0.46369030  1  -0.012887  0.081249  0.000629  4.090353  0.001
C  C34  1  0.20511039  0.55968985  0.97798303  1  -0.001053  -0.022255  0.000863  3.994976  0.001
C  C35  1  0.29489978  0.02203712  0.44032597  1  -0.001006  -0.02229  0.000863  3.99517  0.001
C  C36  1  0.79488291  0.44034026  0.02200517  1  -0.000992  -0.022266  -0.000862  3.99427  -0.001
C  C37  1  0.70511422  0.97798267  0.55967880  1  -0.00095  -0.02225  -0.000861  3.994529  -0.001
C  C38  1  0.39248803  0.64535533  0.14959341  1  0.13718  0.080402  -0.003579  3.91435  -0.004
C  C39  1  0.10751954  0.85043863  0.35466682  1  0.137279  0.080378  -0.003573  3.914854  -0.004
C  C40  1  0.60749418  0.35463933  0.85039217  1  0.137073  0.080403  0.003587  3.915728  0.004
C  C41  1  0.89248821  0.14956780  0.64535229  1  0.137238  0.080464  0.00358  3.915771  0.004
C  C42  1  0.24682667  0.44368695  0.01355235  1  -0.003647  -0.11684  0.002039  3.891308  0.003
C  C43  1  0.25318978  0.98645271  0.55633094  1  -0.003611  -0.116987  0.002037  3.891408  0.003
C  C44  1  0.75312532  0.55632643  0.98642479  1  -0.003472  -0.11663  -0.002036  3.891324  -0.003
C  C45  1  0.74683013  0.01356021  0.44367304  1  -0.003515  -0.116724  -0.002036  3.891303  -0.003
C  C46  1  0.43607407  0.41692339  0.19685064  1  0.021164  -0.070644  0.001578  3.837986  0.002
C  C47  1  0.06394939  0.80314424  0.58308217  1  0.021174  -0.070828  0.001576  3.838187  0.002
C  C48  1  0.56396024  0.58305270  0.80321444  1  0.021287  -0.070744  -0.001576  3.838962  -0.002
C  C49  1  0.93602537  0.19677609  0.41691657  1  0.021312  -0.070601  -0.001574  3.839057  -0.002
C  C50  1  0.54032480  0.36389267  0.40231906  1  -0.080831  -0.096509  0.000246  3.930798  0.0
C  C51  1  0.95972486  0.59765656  0.63612849  1  -0.081049  -0.096616  0.000246  3.930704  0.0
C  C52  1  0.45961667  0.63614104  0.59763044  1  -0.080695  -0.096817  -0.000247  3.929921  0.0
C  C53  1  0.04033624  0.40235618  0.36383712  1  -0.080812  -0.09668  -0.000246  3.929963  0.0
C  C54  1  0.56707728  0.39712604  0.54838497  1  -0.097878  -0.14016  -0.000464  4.002293  -0.001
C  C55  1  0.93293792  0.45159184  0.60286376  1  -0.097889  -0.140349  -0.000463  4.00286  -0.001
C  C56  1  0.43287788  0.60286518  0.45155347  1  -0.097982  -0.140208  0.000464  4.004039  0.001
C  C57  1  0.06714098  0.54843044  0.39712179  1  -0.097909  -0.140221  0.000463  4.003978  0.001
N  N58  1  0.29663989  0.68454364  0.06342279  1  -0.354944  -0.314102  0.031104  3.622619  0.043
N  N59  1  0.20335225  0.93660965  0.31547662  1  -0.354853  -0.313826  0.031103  3.622937  0.043
N  N60  1  0.70334628  0.31546483  0.93652603  1  -0.354725  -0.313933  -0.031093  3.622762  -0.043
N  N61  1  0.79665676  0.06344003  0.68453469  1  -0.354841  -0.313812  -0.031088  3.623087  -0.043
N  N62  1  0.36533727  0.49932499  0.12447144  1  -0.231061  0.057744  0.000326  3.847986  0.001
N  N63  1  0.13468745  0.87553759  0.50067724  1  -0.231214  0.057797  0.000327  3.84824  0.001
N  N64  1  0.63464574  0.50063327  0.87550202  1  -0.231279  0.057925  -0.000328  3.850101  -0.001
N  N65  1  0.86533230  0.12448274  0.49935261  1  -0.231327  0.05778  -0.000328  3.84966  -0.001
O  O66  1  0.47726791  0.98401992  0.17070863  1  -0.304621  -0.510568  0.035011  2.343146  0.056
O  O67  1  0.02271834  0.82932188  0.01599018  1  -0.30467  -0.510723  0.035009  2.343645  0.056
O  O68  1  0.52270244  0.01600636  0.82935677  1  -0.30454  -0.510414  -0.034981  2.344078  -0.056
O  O69  1  0.97730399  0.17066426  0.98399892  1  -0.304621  -0.510576  -0.035013  2.34349  -0.056
O  O70  1  0.66946832  0.10005948  0.10040350  1  -0.298856  -0.50086  -0.03043  2.33142  -0.049
O  O71  1  0.83053094  0.89960401  0.89996385  1  -0.298897  -0.500953  -0.030404  2.331398  -0.049
O  O72  1  0.33051009  0.89990719  0.89961818  1  -0.298997  -0.501035  0.030453  2.330966  0.049
O  O73  1  0.16952378  0.10040208  0.10008549  1  -0.299078  -0.50113  0.030449  2.330217  0.049
