# generated using pymatgen
data_CdH22C16(BrN)2
_symmetry_space_group_name_H-M   'P 1'
_cell_length_a   4.31372741
_cell_length_b   14.49140541
_cell_length_c   14.46054804
_cell_angle_alpha   111.52870101
_cell_angle_beta   90.00012898
_cell_angle_gamma   90.00027029
_symmetry_Int_Tables_number   1
_chemical_formula_structural   CdH22C16(BrN)2
_chemical_formula_sum   'Cd2 H44 C32 Br4 N4'
_cell_volume   840.89176855
_cell_formula_units_Z   2
loop_
 _symmetry_equiv_pos_site_id
 _symmetry_equiv_pos_as_xyz
  1  'x, y, z'
loop_
 _atom_site_type_symbol
 _atom_site_label
 _atom_site_symmetry_multiplicity
 _atom_site_fract_x
 _atom_site_fract_y
 _atom_site_fract_z
 _atom_site_occupancy
 _atom_site_hle17_bader_spin_density
 _atom_site_hle17_ddec_charge
 _atom_site_hle17_ddec_spin_density
 _atom_site_hle17_ddec_sum_bond_order
 _atom_site_hle17_magmom
 _atom_site_hse06_10hf_bader_spin_density
 _atom_site_hse06_10hf_ddec_charge
 _atom_site_hse06_10hf_ddec_spin_density
 _atom_site_hse06_10hf_ddec_sum_bond_order
 _atom_site_hse06_10hf_magmom
 _atom_site_hse06_bader_spin_density
 _atom_site_hse06_ddec_charge
 _atom_site_hse06_ddec_spin_density
 _atom_site_hse06_ddec_sum_bond_order
 _atom_site_hse06_magmom
 _atom_site_pbe_bader_spin_density
 _atom_site_pbe_cm5_charge
 _atom_site_pbe_ddec_charge
 _atom_site_pbe_ddec_spin_density
 _atom_site_pbe_ddec_sum_bond_order
 _atom_site_pbe_magmom
Cd  Cd0  1  0.49760585  0.99999951  0.74999904  1  0  0.894561  0  1.886783  0  0  0.729372  0  2.335486  0  0  0.777344  0  2.295262  0  0  0.559162  0.696024  0  2.362601  0
Cd  Cd1  1  0.50239475  0.00000112  0.25000170  1  0  0.894563  0  1.886735  0  0  0.729403  0  2.335432  0  0  0.777373  0  2.295209  0  0  0.559175  0.69605  0  2.36256  0
H  H2  1  0.83644804  0.83050753  0.66303551  1  0  0.292057  0  0.929178  0  0  0.276404  0  0.996542  0  0  0.282163  0  0.993517  0  0  0.282565  0.272294  0  0.99875  0
H  H3  1  0.83645043  0.16949277  0.83696275  1  0  0.292037  0  0.929204  0  0  0.276384  0  0.996576  0  0  0.282141  0  0.993554  0  0  0.28256  0.272272  0  0.998779  0
H  H4  1  0.16354792  0.16949384  0.33696481  1  0  0.292032  0  0.929234  0  0  0.276385  0  0.996585  0  0  0.282144  0  0.993562  0  0  0.282573  0.27227  0  0.998804  0
H  H5  1  0.16355248  0.83050787  0.16303869  1  0  0.292082  0  0.92911  0  0  0.276433  0  0.996479  0  0  0.28219  0  0.993457  0  0  0.282602  0.27232  0  0.998691  0
H  H6  1  0.80824984  0.88792090  0.58342175  1  0  0.304257  0  0.905582  0  0  0.29229  0  0.964332  0  0  0.298227  0  0.960925  0  0  0.284882  0.288025  0  0.966852  0
H  H7  1  0.80824729  0.11208009  0.91657743  1  0  0.304282  0  0.905572  0  0  0.29233  0  0.964285  0  0  0.298265  0  0.960878  0  0  0.284918  0.288061  0  0.966806  0
H  H8  1  0.19175075  0.11208121  0.41657953  1  0  0.304266  0  0.905553  0  0  0.292309  0  0.96429  0  0  0.298245  0  0.960883  0  0  0.28489  0.288045  0  0.966807  0
H  H9  1  0.19175794  0.88791832  0.08342320  1  0  0.304245  0  0.905707  0  0  0.292311  0  0.964415  0  0  0.298247  0  0.961007  0  0  0.284879  0.288047  0  0.966931  0
H  H10  1  0.40235426  0.85959230  0.46361153  1  0  0.106876  0  0.960862  0  0  0.113368  0  1.030415  0  0  0.116856  0  1.028425  0  0  0.089556  0.110796  0  1.03203  0
H  H11  1  0.40234933  0.14040759  0.03638456  1  0  0.106896  0  0.960856  0  0  0.113326  0  1.03047  0  0  0.116813  0  1.028484  0  0  0.089576  0.110756  0  1.032087  0
H  H12  1  0.59763010  0.14041131  0.53639098  1  0  0.106852  0  0.960873  0  0  0.113321  0  1.030434  0  0  0.11681  0  1.028447  0  0  0.089574  0.110751  0  1.032047  0
H  H13  1  0.59765822  0.85959082  0.96361607  1  0  0.10688  0  0.960876  0  0  0.11335  0  1.030437  0  0  0.116838  0  1.028449  0  0  0.089585  0.110782  0  1.032051  0
H  H14  1  0.02212722  0.73717526  0.36000798  1  0  0.088538  0  0.966396  0  0  0.101293  0  1.025783  0  0  0.103487  0  1.025305  0  0  0.092739  0.099689  0  1.02622  0
H  H15  1  0.02212499  0.26282464  0.13998716  1  0  0.088602  0  0.966374  0  0  0.101326  0  1.025804  0  0  0.103523  0  1.025317  0  0  0.092735  0.099681  0  1.026267  0
H  H16  1  0.97786410  0.26282908  0.63999411  1  0  0.088512  0  0.966295  0  0  0.101264  0  1.0257  0  0  0.103459  0  1.02522  0  0  0.092722  0.099664  0  1.026125  0
H  H17  1  0.97787792  0.73717304  0.86001389  1  0  0.088559  0  0.966429  0  0  0.101302  0  1.025837  0  0  0.103492  0  1.025362  0  0  0.092742  0.099696  0  1.026239  0
H  H18  1  0.88418578  0.58934075  0.40192694  1  0  0.082274  0  0.970752  0  0  0.094362  0  1.034867  0  0  0.096554  0  1.034818  0  0  0.096322  0.092787  0  1.034987  0
H  H19  1  0.88419020  0.41065857  0.09806720  1  0  0.082248  0  0.970732  0  0  0.094347  0  1.034847  0  0  0.096536  0  1.034809  0  0  0.096294  0.09277  0  1.034972  0
H  H20  1  0.11581945  0.41065912  0.59807076  1  0  0.082308  0  0.970751  0  0  0.094403  0  1.034857  0  0  0.096595  0  1.034807  0  0  0.096331  0.092825  0  1.034972  0
H  H21  1  0.11581039  0.58933911  0.90193386  1  0  0.082263  0  0.970697  0  0  0.094361  0  1.034823  0  0  0.096553  0  1.034777  0  0  0.096297  0.092783  0  1.034938  0
H  H22  1  0.11719288  0.56958957  0.55016628  1  0  0.084826  0  0.975333  0  0  0.099299  0  1.034861  0  0  0.101311  0  1.034507  0  0  0.098352  0.097844  0  1.035169  0
H  H23  1  0.11719559  0.43041006  0.94982778  1  0  0.084821  0  0.975387  0  0  0.099334  0  1.034858  0  0  0.101345  0  1.034504  0  0  0.098353  0.097886  0  1.035165  0
H  H24  1  0.88281930  0.43041103  0.44983031  1  0  0.084853  0  0.975398  0  0  0.099364  0  1.034862  0  0  0.101375  0  1.034509  0  0  0.098351  0.09791  0  1.035173  0
H  H25  1  0.88280037  0.56958761  0.05017327  1  0  0.084823  0  0.975527  0  0  0.099315  0  1.035  0  0  0.101327  0  1.034647  0  0  0.098353  0.097867  0  1.035304  0
H  H26  1  0.45435365  0.75905981  0.75074876  1  0  0.070431  0  0.955633  0  0  0.086217  0  1.025782  0  0  0.086987  0  1.025814  0  0  0.080789  0.085581  0  1.02588  0
H  H27  1  0.45435652  0.24094123  0.74924812  1  0  0.070465  0  0.955705  0  0  0.086271  0  1.025813  0  0  0.087028  0  1.025845  0  0  0.080825  0.085636  0  1.0259  0
H  H28  1  0.54565390  0.24094156  0.24925087  1  0  0.070423  0  0.95571  0  0  0.086235  0  1.02583  0  0  0.086997  0  1.025858  0  0  0.080788  0.085602  0  1.02593  0
H  H29  1  0.54564407  0.75905866  0.25075235  1  0  0.070462  0  0.955668  0  0  0.086268  0  1.025803  0  0  0.087026  0  1.025835  0  0  0.080827  0.085633  0  1.025899  0
H  H30  1  0.77953110  0.69946508  0.68223571  1  0  0.059926  0  0.960842  0  0  0.079929  0  1.025342  0  0  0.080123  0  1.026116  0  0  0.087826  0.079706  0  1.024931  0
H  H31  1  0.77953542  0.30053511  0.81776177  1  0  0.059972  0  0.960765  0  0  0.079942  0  1.025325  0  0  0.080125  0  1.026096  0  0  0.087818  0.079724  0  1.024903  0
H  H32  1  0.22046717  0.30053480  0.31776268  1  0  0.059983  0  0.960748  0  0  0.079952  0  1.025307  0  0  0.080139  0  1.026077  0  0  0.087824  0.079741  0  1.024892  0
H  H33  1  0.22046518  0.69946404  0.18223844  1  0  0.059953  0  0.96074  0  0  0.079937  0  1.025314  0  0  0.080121  0  1.026084  0  0  0.087828  0.079723  0  1.024893  0
H  H34  1  0.19228417  0.59184570  0.71105927  1  0  0.090229  0  0.956054  0  0  0.115695  0  1.013617  0  0  0.116528  0  1.014059  0  0  0.085492  0.11499  0  1.013422  0
H  H35  1  0.19229460  0.40815409  0.78893628  1  0  0.090102  0  0.956156  0  0  0.115621  0  1.013657  0  0  0.116453  0  1.0141  0  0  0.08547  0.114922  0  1.013456  0
H  H36  1  0.80771411  0.40815491  0.28893870  1  0  0.090236  0  0.956055  0  0  0.115701  0  1.013618  0  0  0.116537  0  1.014052  0  0  0.085484  0.115008  0  1.013411  0
H  H37  1  0.80770599  0.59184580  0.21106419  1  0  0.090183  0  0.956084  0  0  0.115671  0  1.013614  0  0  0.116503  0  1.014056  0  0  0.085483  0.114966  0  1.013425  0
H  H38  1  0.55394615  0.59943247  0.77106690  1  0  0.095517  0  0.977125  0  0  0.117168  0  1.04017  0  0  0.117883  0  1.041797  0  0  0.08467  0.116618  0  1.039042  0
H  H39  1  0.55395602  0.40056876  0.72893012  1  0  0.095438  0  0.977091  0  0  0.11709  0  1.040151  0  0  0.117805  0  1.041781  0  0  0.084639  0.116545  0  1.039023  0
H  H40  1  0.44604981  0.40056814  0.22893177  1  0  0.095488  0  0.977122  0  0  0.117148  0  1.040154  0  0  0.117863  0  1.041784  0  0  0.084649  0.116598  0  1.039036  0
H  H41  1  0.44604457  0.59943039  0.27107009  1  0  0.095422  0  0.977121  0  0  0.117073  0  1.040178  0  0  0.117788  0  1.041808  0  0  0.084613  0.116529  0  1.039046  0
H  H42  1  0.52320839  0.53285189  0.64103339  1  0  0.088238  0  0.968231  0  0  0.107422  0  1.036788  0  0  0.108341  0  1.037504  0  0  0.081401  0.106718  0  1.036325  0
H  H43  1  0.52321795  0.46714855  0.85896400  1  0  0.088285  0  0.968238  0  0  0.107458  0  1.036804  0  0  0.108377  0  1.037522  0  0  0.081433  0.106758  0  1.036339  0
H  H44  1  0.47679221  0.46714872  0.35896458  1  0  0.088261  0  0.968215  0  0  0.107429  0  1.036788  0  0  0.108347  0  1.037507  0  0  0.0814  0.106728  0  1.036322  0
H  H45  1  0.47678496  0.53285135  0.14103716  1  0  0.088246  0  0.968199  0  0  0.107423  0  1.036758  0  0  0.108342  0  1.037475  0  0  0.081425  0.106727  0  1.036289  0
C  C46  1  0.46880934  0.78417215  0.56600492  1  0  0.221838  0  3.778643  0  0  0.215855  0  4.019574  0  0  0.221625  0  4.043493  0  0  0.075247  0.21188  0  4.003368  0
C  C47  1  0.46880855  0.21582743  0.93399144  1  0  0.221823  0  3.778476  0  0  0.215822  0  4.019395  0  0  0.221591  0  4.043315  0  0  0.075251  0.211858  0  4.003176  0
C  C48  1  0.53118430  0.21583069  0.43399454  1  0  0.221908  0  3.77853  0  0  0.215841  0  4.019557  0  0  0.221613  0  4.043476  0  0  0.075279  0.211873  0  4.003347  0
C  C49  1  0.53119436  0.78417099  0.06601058  1  0  0.221772  0  3.778483  0  0  0.215653  0  4.019526  0  0  0.221421  0  4.043447  0  0  0.075207  0.211688  0  4.003323  0
C  C50  1  0.33793391  0.79576075  0.48244558  1  0  -0.171685  0  3.738392  0  0  -0.190025  0  3.991545  0  0  -0.194448  0  4.011623  0  0  -0.106122  -0.187065  0  3.978126  0
C  C51  1  0.33792752  0.20423827  0.01754946  1  0  -0.171666  0  3.738405  0  0  -0.189974  0  3.991624  0  0  -0.194396  0  4.011706  0  0  -0.106162  -0.187023  0  3.978183  0
C  C52  1  0.66206901  0.20424358  0.51755512  1  0  -0.171768  0  3.73853  0  0  -0.190063  0  3.991748  0  0  -0.19449  0  4.01183  0  0  -0.106209  -0.187111  0  3.97832  0
C  C53  1  0.66207771  0.79575866  0.98244994  1  0  -0.171588  0  3.738322  0  0  -0.18989  0  3.99157  0  0  -0.194311  0  4.011648  0  0  -0.106135  -0.186931  0  3.978112  0
C  C54  1  0.12717573  0.72597533  0.42360595  1  0  -0.056973  0  3.795996  0  0  -0.071251  0  4.045827  0  0  -0.071548  0  4.06681  0  0  -0.098325  -0.070933  0  4.031591  0
C  C55  1  0.12717552  0.27402254  0.07638853  1  0  -0.056973  0  3.795819  0  0  -0.071222  0  4.045604  0  0  -0.07152  0  4.066585  0  0  -0.098215  -0.070861  0  4.031387  0
C  C56  1  0.87281327  0.27402602  0.57639229  1  0  -0.056808  0  3.796008  0  0  -0.071071  0  4.04581  0  0  -0.071367  0  4.066794  0  0  -0.098235  -0.070751  0  4.031554  0
C  C57  1  0.87282507  0.72597514  0.92361322  1  0  -0.056944  0  3.795786  0  0  -0.07121  0  4.045593  0  0  -0.071505  0  4.066573  0  0  -0.098225  -0.070868  0  4.031358  0
C  C58  1  0.04950221  0.64402758  0.44752818  1  0  -0.093407  0  3.813313  0  0  -0.111897  0  4.07159  0  0  -0.114703  0  4.0935  0  0  -0.105317  -0.110001  0  4.056701  0
C  C59  1  0.04950311  0.35597310  0.05246518  1  0  -0.093439  0  3.813091  0  0  -0.111954  0  4.071392  0  0  -0.114761  0  4.093297  0  0  -0.105389  -0.110059  0  4.056503  0
C  C60  1  0.95050302  0.35597452  0.55247171  1  0  -0.093557  0  3.813123  0  0  -0.112064  0  4.071428  0  0  -0.11487  0  4.093336  0  0  -0.105385  -0.110165  0  4.056528  0
C  C61  1  0.95049748  0.64402532  0.94753614  1  0  -0.093481  0  3.812903  0  0  -0.112002  0  4.071213  0  0  -0.114808  0  4.093119  0  0  -0.105411  -0.110102  0  4.05631  0
C  C62  1  0.17971697  0.63353035  0.53150868  1  0  -0.118712  0  3.776553  0  0  -0.137408  0  4.022622  0  0  -0.138828  0  4.044072  0  0  -0.099516  -0.136281  0  4.008033  0
C  C63  1  0.17971881  0.36646867  0.96848658  1  0  -0.118618  0  3.776615  0  0  -0.137353  0  4.022626  0  0  -0.138773  0  4.044077  0  0  -0.099474  -0.13625  0  4.008059  0
C  C64  1  0.82028130  0.36646876  0.46848667  1  0  -0.118728  0  3.776601  0  0  -0.137437  0  4.022619  0  0  -0.138858  0  4.044071  0  0  -0.09949  -0.136318  0  4.00804  0
C  C65  1  0.82027947  0.63352900  0.03151447  1  0  -0.118615  0  3.776559  0  0  -0.137336  0  4.022524  0  0  -0.138758  0  4.043973  0  0  -0.09947  -0.136224  0  4.007952  0
C  C66  1  0.38750557  0.70338251  0.59330256  1  0  -0.011921  0  3.711066  0  0  0.011121  0  3.943327  0  0  0.008459  0  3.967671  0  0  -0.021116  0.012818  0  3.926933  0
C  C67  1  0.38750585  0.29661765  0.90669257  1  0  -0.012113  0  3.711127  0  0  0.011038  0  3.943245  0  0  0.008363  0  3.967574  0  0  -0.021177  0.012737  0  3.926848  0
C  C68  1  0.61249735  0.29662108  0.40669787  1  0  -0.011937  0  3.711155  0  0  0.011169  0  3.943391  0  0  0.008494  0  3.967727  0  0  -0.021133  0.012855  0  3.927023  0
C  C69  1  0.61249475  0.70338150  0.09330833  1  0  -0.012109  0  3.7111  0  0  0.011169  0  3.943145  0  0  0.008498  0  3.967469  0  0  -0.021138  0.012854  0  3.926774  0
C  C70  1  0.52461232  0.69397944  0.68550177  1  0  -0.10378  0  3.742135  0  0  -0.143373  0  3.991857  0  0  -0.143688  0  4.006382  0  0  -0.168099  -0.142999  0  3.98188  0
C  C71  1  0.52461902  0.30602099  0.81449424  1  0  -0.103825  0  3.742128  0  0  -0.143502  0  3.991953  0  0  -0.143766  0  4.006407  0  0  -0.168141  -0.143124  0  3.981958  0
C  C72  1  0.47538827  0.30602118  0.31449689  1  0  -0.103793  0  3.742055  0  0  -0.143414  0  3.99179  0  0  -0.143689  0  4.006265  0  0  -0.168105  -0.143053  0  3.98184  0
C  C73  1  0.47538158  0.69397816  0.18550597  1  0  -0.103725  0  3.741969  0  0  -0.143498  0  3.991894  0  0  -0.143764  0  4.006349  0  0  -0.168128  -0.143119  0  3.98191  0
C  C74  1  0.44350545  0.59920274  0.70268757  1  0  -0.282571  0  3.712248  0  0  -0.357255  0  3.955014  0  0  -0.359096  0  3.965154  0  0  -0.248907  -0.35567  0  3.947967  0
C  C75  1  0.44351583  0.40079755  0.79730972  1  0  -0.282393  0  3.712173  0  0  -0.357118  0  3.954988  0  0  -0.358973  0  3.965114  0  0  -0.248875  -0.355545  0  3.947942  0
C  C76  1  0.55649515  0.40079862  0.29731136  1  0  -0.282596  0  3.712167  0  0  -0.357274  0  3.954963  0  0  -0.359129  0  3.965092  0  0  -0.248861  -0.355687  0  3.947921  0
C  C77  1  0.55648709  0.59920161  0.20269118  1  0  -0.282466  0  3.712136  0  0  -0.357131  0  3.95494  0  0  -0.358986  0  3.965065  0  0  -0.248867  -0.355548  0  3.94789  0
Br  Br78  1  0.08567887  0.93315777  0.84842152  1  0  -0.543414  0  0.967024  0  0  -0.481036  0  1.265394  0  0  -0.499754  0  1.24301  0  0  -0.260848  -0.46745  0  1.280695  0
Br  Br79  1  0.08567827  0.06684109  0.65157639  1  0  -0.543412  0  0.967032  0  0  -0.481025  0  1.265395  0  0  -0.499738  0  1.243004  0  0  -0.260843  -0.467434  0  1.280704  0
Br  Br80  1  0.91432173  0.06684212  0.15157896  1  0  -0.54343  0  0.967026  0  0  -0.481043  0  1.265394  0  0  -0.499752  0  1.242997  0  0  -0.260845  -0.467441  0  1.280696  0
Br  Br81  1  0.91432001  0.93316030  0.34842670  1  0  -0.543426  0  0.967032  0  0  -0.481012  0  1.265357  0  0  -0.499736  0  1.242988  0  0  -0.260834  -0.467409  0  1.28067  0
N  N82  1  0.68233081  0.85703684  0.62487780  1  0  -0.649839  0  3.231143  0  0  -0.582867  0  3.449998  0  0  -0.605154  0  3.453107  0  0  -0.611177  -0.56738  0  3.447611  0
N  N83  1  0.68233307  0.14296242  0.87511929  1  0  -0.649792  0  3.23095  0  0  -0.582822  0  3.449806  0  0  -0.605106  0  3.452916  0  0  -0.611196  -0.567335  0  3.447413  0
N  N84  1  0.31766515  0.14296526  0.37512140  1  0  -0.649795  0  3.231001  0  0  -0.582858  0  3.449982  0  0  -0.605143  0  3.453092  0  0  -0.611195  -0.567366  0  3.447598  0
N  N85  1  0.31766984  0.85703673  0.12488161  1  0  -0.649816  0  3.23101  0  0  -0.582888  0  3.449963  0  0  -0.605171  0  3.453074  0  0  -0.611191  -0.567403  0  3.447578  0
