# generated using pymatgen
data_Zn3H4(C5O3)4
_symmetry_space_group_name_H-M   'P 1'
_cell_length_a   18.53755580
_cell_length_b   18.53746253
_cell_length_c   20.78130459
_cell_angle_alpha   116.50235147
_cell_angle_beta   116.50156306
_cell_angle_gamma   89.97709248
_symmetry_Int_Tables_number   1
_chemical_formula_structural   Zn3H4(C5O3)4
_chemical_formula_sum   'Zn6 H8 C40 O24'
_cell_volume   5540.44666468
_cell_formula_units_Z   2
loop_
 _symmetry_equiv_pos_site_id
 _symmetry_equiv_pos_as_xyz
  1  'x, y, z'
loop_
 _atom_site_type_symbol
 _atom_site_label
 _atom_site_symmetry_multiplicity
 _atom_site_fract_x
 _atom_site_fract_y
 _atom_site_fract_z
 _atom_site_occupancy
 _atom_site_pbe_bader_charge
 _atom_site_pbe_bader_spin_density
 _atom_site_pbe_cm5_charge
 _atom_site_pbe_ddec_charge
 _atom_site_pbe_ddec_spin_density
 _atom_site_pbe_ddec_sum_bond_order
 _atom_site_pbe_magmom
Zn  Zn0  1  0.99999154  0.42996293  0.99997707  1  1.305069  0  0.745062  0.98015  0  2.054265  0
Zn  Zn1  1  0.54036294  0.54036376  0.08071261  1  1.310342  0  0.750026  0.984157  0  2.048587  0
Zn  Zn2  1  0.45963975  0.45963998  0.91928846  1  1.291738  0  0.750053  0.984268  0  2.048517  0
Zn  Zn3  1  0.57003806  0.00000838  0.00001863  1  1.305118  0  0.745074  0.980154  0  2.054276  0
Zn  Zn4  1  0.00001051  0.57004459  0.00002032  1  1.306754  0  0.745244  0.980452  0  2.053932  0
Zn  Zn5  1  0.42995450  0.99999010  0.99997528  1  1.306732  0  0.745262  0.980483  0  2.053939  0
H  H6  1  0.86960006  0.37213316  0.57716943  1  0.092627  0  0.115042  0.119252  0  0.975698  0
H  H7  1  0.20605751  0.87071236  0.57716459  1  0.101326  0  0.114726  0.119358  0  0.975981  0
H  H8  1  0.70752994  0.20501379  0.57715580  1  0.075662  0  0.115095  0.119671  0  0.975567  0
H  H9  1  0.37108610  0.70642048  0.57716067  1  0.103089  0  0.114978  0.119441  0  0.976634  0
H  H10  1  0.29318102  0.62851205  0.42281901  1  0.066473  0  0.114869  0.11894  0  0.9765  0
H  H11  1  0.62963312  0.12863013  0.42283328  1  0.074053  0  0.114975  0.119409  0  0.976056  0
H  H12  1  0.12965887  0.79431329  0.42283065  1  0.097408  0  0.114855  0.119295  0  0.976156  0
H  H13  1  0.79323767  0.29424519  0.42284429  1  0.082432  0  0.11499  0.119229  0  0.976191  0
C  C14  1  0.13970128  0.50002025  0.99999501  1  1.675588  0  0.231522  0.664305  0  4.238276  0
C  C15  1  0.41997165  0.91992623  0.83981223  1  1.557179  0  0.226898  0.676085  0  4.219385  0
C  C16  1  0.08007496  0.58003011  0.16017982  1  1.556963  0  0.226842  0.675895  0  4.219324  0
C  C17  1  0.58001822  0.08006989  0.16018305  1  1.553344  0  0.22729  0.676603  0  4.219555  0
C  C18  1  0.91993355  0.41998286  0.83981743  1  1.552984  0  0.227169  0.676468  0  4.219801  0
C  C19  1  0.77470453  0.27521750  0.45700218  1  -0.06258  0  -0.073693  -0.114295  0  3.947668  0
C  C20  1  0.18236191  0.77527112  0.45700340  1  0.073696  0  -0.073226  -0.114731  0  3.949223  0
C  C21  1  0.68233057  0.18181980  0.45700737  1  -0.065157  0  -0.073989  -0.115301  0  3.948264  0
C  C22  1  0.50001602  0.13969621  0.99999257  1  1.676475  0  0.231263  0.664387  0  4.236725  0
C  C23  1  0.27463003  0.68170981  0.45698554  1  0.105979  0  -0.073283  -0.114077  0  3.948695  0
C  C24  1  0.31804246  0.72511844  0.54298310  1  -0.13863  0  -0.073828  -0.115336  0  3.949338  0
C  C25  1  0.72574020  0.22436388  0.54299936  1  0.070715  0  -0.073345  -0.114695  0  3.94744  0
C  C26  1  0.22490116  0.81781609  0.54299548  1  -0.131496  0  -0.07328  -0.114567  0  3.948763  0
C  C27  1  0.81723064  0.31862327  0.54299981  1  0.03644  0  -0.073598  -0.114872  0  3.947091  0
C  C28  1  0.86030612  0.49998998  0.00001445  1  1.676418  0  0.231249  0.664353  0  4.236786  0
C  C29  1  0.70636004  0.20635942  0.41269635  1  0.117233  0  0.007977  0.12631  0  4.10594  0
C  C30  1  0.20632280  0.70632329  0.41268180  1  0.149994  0  0.007497  0.126353  0  4.107769  0
C  C31  1  0.29364849  0.79364076  0.58730052  1  0.147671  0  0.007316  0.125864  0  4.107931  0
C  C32  1  0.79364559  0.29365202  0.58731066  1  0.11555  0  0.007251  0.125937  0  4.1055  0
C  C33  1  0.49998609  0.86030771  0.00001118  1  1.675273  0  0.231344  0.664021  0  4.238485  0
C  C34  1  0.66243042  0.16242433  0.32488651  1  -0.429639  0  -0.009776  -0.01582  0  4.066087  0
C  C35  1  0.16241210  0.66241961  0.32487733  1  -0.448858  0  -0.009949  -0.016227  0  4.066773  0
C  C36  1  0.33757841  0.83757720  0.67511047  1  -0.449016  0  -0.009721  -0.015612  0  4.066421  0
C  C37  1  0.83757460  0.33758249  0.67511835  1  -0.429821  0  -0.009928  -0.016108  0  4.066514  0
C  C38  1  0.87538154  0.37540440  0.75070531  1  0.181515  0  -0.043031  -0.18526  0  3.947663  0
C  C39  1  0.37538732  0.87539021  0.75069659  1  0.181747  0  -0.043182  -0.185516  0  3.947567  0
C  C40  1  0.12461086  0.62461349  0.24929251  1  0.181415  0  -0.04298  -0.185031  0  3.947675  0
C  C41  1  0.62460088  0.12462254  0.24930105  1  0.181863  0  -0.042955  -0.18516  0  3.947174  0
C  C42  1  0.21742923  0.49999917  0.00000057  1  -0.189495  0  -0.007295  -0.090445  0  3.896598  0
C  C43  1  0.50000012  0.21742602  0.99999906  1  -0.189984  0  -0.007162  -0.090315  0  3.896565  0
C  C44  1  0.78257605  0.50000404  0.00000404  1  -0.190218  0  -0.007154  -0.090311  0  3.896676  0
C  C45  1  0.50000364  0.78257845  0.00000462  1  -0.19035  0  -0.007034  -0.090039  0  3.89669  0
C  C46  1  0.28301506  0.50001176  0.00000278  1  0.02823  0  -0.010201  -0.097385  0  3.902221  0
C  C47  1  0.50001007  0.28301521  0.00000849  1  0.028558  0  -0.010264  -0.0978  0  3.902193  0
C  C48  1  0.71698655  0.49999274  0.99999470  1  0.028712  0  -0.010287  -0.097777  0  3.902256  0
C  C49  1  0.49999343  0.71699251  0.00000315  1  0.029214  0  -0.010337  -0.097622  0  3.902205  0
C  C50  1  0.49998569  0.63935231  0.99998159  1  1.659641  0  0.232678  0.664917  0  4.233623  0
C  C51  1  0.36065202  0.50001948  0.00002322  1  1.659722  0  0.232622  0.664839  0  4.233827  0
C  C52  1  0.50002548  0.36065464  0.00002770  1  1.662929  0  0.232958  0.665857  0  4.232366  0
C  C53  1  0.63934856  0.49997925  0.99997656  1  1.662636  0  0.232999  0.665784  0  4.23238  0
O  O54  1  0.10924233  0.43818752  0.99983748  1  -1.126692  0  -0.303556  -0.535368  0  2.220466  0
O  O55  1  0.56170200  0.10922268  0.99981936  1  -1.122395  0  -0.303122  -0.53507  0  2.220107  0
O  O56  1  0.89059345  0.56165591  0.99983932  1  -1.128416  0  -0.303298  -0.535368  0  2.220122  0
O  O57  1  0.43813243  0.89060834  0.99985433  1  -1.122661  0  -0.303141  -0.534992  0  2.22117  0
O  O58  1  0.10940574  0.56187488  0.00015453  1  -1.123131  0  -0.303125  -0.53498  0  2.221051  0
O  O59  1  0.56181672  0.89076725  0.00016839  1  -1.126729  0  -0.303418  -0.535205  0  2.220514  0
O  O60  1  0.89077884  0.43830252  0.00018860  1  -1.122281  0  -0.303105  -0.535043  0  2.219959  0
O  O61  1  0.43835084  0.10940916  0.00017062  1  -1.128396  0  -0.303272  -0.535372  0  2.220164  0
O  O62  1  0.93730324  0.37610749  0.87549221  1  -1.117744  0  -0.308875  -0.541983  0  2.221391  0
O  O63  1  0.49951842  0.93731627  0.87550089  1  -1.093163  0  -0.308223  -0.541089  0  2.223647  0
O  O64  1  0.93821382  0.49953494  0.87552232  1  -1.092489  0  -0.308685  -0.541303  0  2.224267  0
O  O65  1  0.37610408  0.93815239  0.87549109  1  -1.121162  0  -0.308814  -0.541542  0  2.221575  0
O  O66  1  0.06184691  0.62389851  0.12450222  1  -1.121337  0  -0.308882  -0.541573  0  2.221498  0
O  O67  1  0.62389345  0.06270177  0.12451322  1  -1.117805  0  -0.308747  -0.541818  0  2.221223  0
O  O68  1  0.06268234  0.50048047  0.12449192  1  -1.093112  0  -0.308272  -0.541113  0  2.223622  0
O  O69  1  0.50047017  0.06179510  0.12448472  1  -1.092327  0  -0.308592  -0.541233  0  2.224044  0
O  O70  1  0.46461058  0.57328797  0.92899355  1  -1.125954  0  -0.303378  -0.535105  0  2.222843  0
O  O71  1  0.35574934  0.46464530  0.92904982  1  -1.117869  0  -0.304027  -0.535719  0  2.224548  0
O  O72  1  0.46439825  0.35574598  0.92905260  1  -1.120369  0  -0.304006  -0.535946  0  2.223798  0
O  O73  1  0.57328032  0.46434571  0.92899186  1  -1.12636  0  -0.303807  -0.535671  0  2.222654  0
O  O74  1  0.53566008  0.42672325  0.07101073  1  -1.126452  0  -0.303801  -0.535655  0  2.222667  0
O  O75  1  0.42671759  0.53539447  0.07101130  1  -1.126129  0  -0.303378  -0.535107  0  2.222835  0
O  O76  1  0.53535954  0.64425654  0.07095467  1  -1.118123  0  -0.304048  -0.535765  0  2.224518  0
O  O77  1  0.64425788  0.53560583  0.07095162  1  -1.120172  0  -0.30406  -0.535912  0  2.223813  0
