# generated using pymatgen
data_Ag3H4C5N7
_symmetry_space_group_name_H-M   'P 1'
_cell_length_a   8.20029263
_cell_length_b   8.44194073
_cell_length_c   8.76795880
_cell_angle_alpha   64.64737331
_cell_angle_beta   63.86561451
_cell_angle_gamma   62.94361677
_symmetry_Int_Tables_number   1
_chemical_formula_structural   Ag3H4C5N7
_chemical_formula_sum   'Ag6 H8 C10 N14'
_cell_volume   465.16263326
_cell_formula_units_Z   2
loop_
 _symmetry_equiv_pos_site_id
 _symmetry_equiv_pos_as_xyz
  1  'x, y, z'
loop_
 _atom_site_type_symbol
 _atom_site_label
 _atom_site_symmetry_multiplicity
 _atom_site_fract_x
 _atom_site_fract_y
 _atom_site_fract_z
 _atom_site_occupancy
 _atom_site_hle17_bader_spin_density
 _atom_site_hle17_ddec_charge
 _atom_site_hle17_ddec_spin_density
 _atom_site_hle17_ddec_sum_bond_order
 _atom_site_hle17_magmom
 _atom_site_hse06_10hf_bader_spin_density
 _atom_site_hse06_10hf_ddec_charge
 _atom_site_hse06_10hf_ddec_spin_density
 _atom_site_hse06_10hf_ddec_sum_bond_order
 _atom_site_hse06_10hf_magmom
 _atom_site_hse06_bader_spin_density
 _atom_site_hse06_ddec_charge
 _atom_site_hse06_ddec_spin_density
 _atom_site_hse06_ddec_sum_bond_order
 _atom_site_hse06_magmom
 _atom_site_pbe_bader_spin_density
 _atom_site_pbe_cm5_charge
 _atom_site_pbe_ddec_charge
 _atom_site_pbe_ddec_spin_density
 _atom_site_pbe_ddec_sum_bond_order
 _atom_site_pbe_magmom
Ag  Ag0  1  0.65807807  0.39146168  0.74863506  1  0  0.338677  0  1.972566  0  0  0.202084  0  2.503992  0  0  0.223792  0  2.451962  0  0  0.397053  0.187757  0  2.539547  0
Ag  Ag1  1  0.34192752  0.60853789  0.25135809  1  0  0.338735  0  1.972528  0  0  0.202153  0  2.503965  0  0  0.223861  0  2.451933  0  0  0.397095  0.187827  0  2.539527  0
Ag  Ag2  1  0.17229670  0.74378814  0.96048072  1  0  0.478443  0  1.627878  0  0  0.350778  0  2.09655  0  0  0.373048  0  2.053521  0  0  0.465105  0.335993  0  2.125975  0
Ag  Ag3  1  0.82770327  0.25620898  0.03952401  1  0  0.478481  0  1.627854  0  0  0.350802  0  2.096553  0  0  0.373086  0  2.053494  0  0  0.465125  0.336021  0  2.125988  0
Ag  Ag4  1  0.71854824  0.20680270  0.48275266  1  0  0.498598  0  1.54632  0  0  0.364913  0  2.002624  0  0  0.388014  0  1.96185  0  0  0.458663  0.349453  0  2.030518  0
Ag  Ag5  1  0.28144697  0.79319981  0.51724607  1  0  0.498602  0  1.546261  0  0  0.364914  0  2.002568  0  0  0.388015  0  1.961794  0  0  0.458649  0.349455  0  2.030446  0
H  H6  1  0.74685920  0.78315505  0.93992120  1  0  0.095478  0  0.940326  0  0  0.10768  0  0.998889  0  0  0.108271  0  0.999525  0  0  0.130209  0.107213  0  0.998476  0
H  H7  1  0.25314428  0.21684331  0.06007800  1  0  0.095461  0  0.940317  0  0  0.107661  0  0.998886  0  0  0.108252  0  0.999523  0  0  0.130207  0.107194  0  0.998471  0
H  H8  1  0.82886729  0.76774336  0.48000447  1  0  0.083385  0  0.962353  0  0  0.098968  0  1.022046  0  0  0.099139  0  1.022044  0  0  0.125694  0.098755  0  1.022119  0
H  H9  1  0.17113216  0.23225926  0.51999690  1  0  0.083351  0  0.962365  0  0  0.098932  0  1.022066  0  0  0.099104  0  1.022063  0  0  0.125682  0.098722  0  1.022134  0
H  H10  1  0.00002499  0.46077865  0.34769246  1  0  0.067572  0  0.983301  0  0  0.074931  0  1.062128  0  0  0.076989  0  1.058541  0  0  0.119263  0.073358  0  1.064763  0
H  H11  1  0.99996956  0.53922270  0.65231393  1  0  0.067548  0  0.983321  0  0  0.074895  0  1.062161  0  0  0.07695  0  1.058577  0  0  0.119265  0.073324  0  1.064795  0
H  H12  1  0.36817871  0.05932598  0.83043446  1  0  0.081883  0  0.984039  0  0  0.09429  0  1.046454  0  0  0.095237  0  1.046016  0  0  0.127209  0.093505  0  1.046888  0
H  H13  1  0.63181560  0.94067516  0.16956529  1  0  0.081909  0  0.984044  0  0  0.094314  0  1.046462  0  0  0.095267  0  1.046006  0  0  0.127223  0.093533  0  1.046891  0
C  C14  1  0.86853371  0.13877668  0.74062251  1  0  -0.141092  0  3.583048  0  0  -0.10985  0  3.953299  0  0  -0.105748  0  3.951894  0  0  -0.062534  -0.113141  0  3.954656  0
C  C15  1  0.13147206  0.86122126  0.25936330  1  0  -0.14104  0  3.582837  0  0  -0.109809  0  3.953108  0  0  -0.105701  0  3.9517  0  0  -0.062558  -0.113102  0  3.95447  0
C  C16  1  0.77492077  0.68374058  0.06226085  1  0  0.183646  0  3.710785  0  0  0.135175  0  3.97221  0  0  0.146352  0  3.988846  0  0  0.127098  0.127866  0  3.960791  0
C  C17  1  0.22508085  0.31625914  0.93773742  1  0  0.18367  0  3.71077  0  0  0.135204  0  3.97218  0  0  0.146375  0  3.988819  0  0  0.127072  0.127895  0  3.960758  0
C  C18  1  0.70090537  0.80220824  0.58919936  1  0  0.180855  0  3.725476  0  0  0.131584  0  3.979513  0  0  0.142723  0  3.998363  0  0  0.129276  0.124303  0  3.966637  0
C  C19  1  0.29909450  0.19779295  0.41080131  1  0  0.180919  0  3.725536  0  0  0.131648  0  3.979577  0  0  0.142787  0  3.998426  0  0  0.12929  0.124359  0  3.966701  0
C  C20  1  0.90393474  0.52075345  0.26892236  1  0  0.174448  0  3.767373  0  0  0.124487  0  4.026066  0  0  0.135857  0  4.043708  0  0  0.124622  0.117073  0  4.013917  0
C  C21  1  0.09606101  0.47924775  0.73107900  1  0  0.174431  0  3.767375  0  0  0.124481  0  4.02609  0  0  0.135854  0  4.043719  0  0  0.124579  0.11706  0  4.013952  0
C  C22  1  0.46748259  0.95198606  0.76546536  1  0  0.182391  0  3.726305  0  0  0.132308  0  3.981309  0  0  0.144166  0  3.998366  0  0  0.129516  0.124522  0  3.969619  0
C  C23  1  0.53251452  0.04801513  0.23453540  1  0  0.182348  0  3.726366  0  0  0.132264  0  3.981355  0  0  0.144125  0  3.998417  0  0  0.129509  0.124476  0  3.969665  0
N  N24  1  0.66834020  0.57607662  0.18065657  1  0  -0.266899  0  3.176825  0  0  -0.204449  0  3.473684  0  0  -0.217356  0  3.485391  0  0  -0.27138  -0.195878  0  3.46586  0
N  N25  1  0.33165869  0.42392313  0.81934290  1  0  -0.266883  0  3.176884  0  0  -0.204431  0  3.473735  0  0  -0.217337  0  3.485443  0  0  -0.271348  -0.195856  0  3.465901  0
N  N26  1  0.98745640  0.99110340  0.74546691  1  0  -0.406878  0  3.033081  0  0  -0.357529  0  3.323594  0  0  -0.370612  0  3.333113  0  0  -0.389192  -0.348897  0  3.31759  0
N  N27  1  0.01254641  0.00890032  0.25452450  1  0  -0.406947  0  3.032872  0  0  -0.357591  0  3.323379  0  0  -0.370677  0  3.332899  0  0  -0.389186  -0.34896  0  3.317384  0
N  N28  1  0.59625428  0.69084369  0.70108425  1  0  -0.253414  0  3.249358  0  0  -0.183556  0  3.549112  0  0  -0.19829  0  3.56318  0  0  -0.278545  -0.173818  0  3.539678  0
N  N29  1  0.40374659  0.30915480  0.29891947  1  0  -0.253485  0  3.249345  0  0  -0.183647  0  3.549123  0  0  -0.19838  0  3.563189  0  0  -0.278571  -0.173904  0  3.539691  0
N  N30  1  0.44504567  0.78840566  0.81482236  1  0  -0.263316  0  3.288777  0  0  -0.186018  0  3.580398  0  0  -0.202438  0  3.595948  0  0  -0.285043  -0.175049  0  3.569822  0
N  N31  1  0.55495376  0.21159278  0.18517974  1  0  -0.263306  0  3.288799  0  0  -0.185993  0  3.580413  0  0  -0.202413  0  3.595961  0  0  -0.285042  -0.175028  0  3.569847  0
N  N32  1  0.62611722  0.96686232  0.62498282  1  0  -0.372656  0  3.293835  0  0  -0.282826  0  3.582157  0  0  -0.306187  0  3.598552  0  0  -0.37555  -0.267025  0  3.570561  0
N  N33  1  0.37387761  0.03314165  0.37501772  1  0  -0.372659  0  3.293823  0  0  -0.282828  0  3.582152  0  0  -0.306193  0  3.598552  0  0  -0.375559  -0.267019  0  3.570545  0
N  N34  1  0.75288347  0.47010250  0.31405053  1  0  -0.276416  0  3.313426  0  0  -0.196559  0  3.606816  0  0  -0.213231  0  3.621739  0  0  -0.290185  -0.185376  0  3.596706  0
N  N35  1  0.24711547  0.52989729  0.68595005  1  0  -0.2764  0  3.313394  0  0  -0.196542  0  3.60678  0  0  -0.213212  0  3.621699  0  0  -0.290166  -0.18536  0  3.596668  0
N  N36  1  0.92389459  0.65402915  0.11238587  1  0  -0.384713  0  3.306232  0  0  -0.29641  0  3.593136  0  0  -0.319739  0  3.609509  0  0  -0.381282  -0.280618  0  3.581529  0
N  N37  1  0.07610621  0.34596927  0.88761563  1  0  -0.384728  0  3.306242  0  0  -0.296427  0  3.593145  0  0  -0.31975  0  3.609514  0  0  -0.38126  -0.280635  0  3.581544  0
