# generated using pymatgen
data_Zr3H62(C9O2)8
_symmetry_space_group_name_H-M   'P 1'
_cell_length_a   23.36905463
_cell_length_b   23.36909760
_cell_length_c   23.36900270
_cell_angle_alpha   60.00005405
_cell_angle_beta   60.00025841
_cell_angle_gamma   59.99979056
_symmetry_Int_Tables_number   1
_chemical_formula_structural   Zr3H62(C9O2)8
_chemical_formula_sum   'Zr6 H124 C144 O32'
_cell_volume   9024.19778854
_cell_formula_units_Z   2
loop_
 _symmetry_equiv_pos_site_id
 _symmetry_equiv_pos_as_xyz
  1  'x, y, z'
loop_
 _atom_site_type_symbol
 _atom_site_label
 _atom_site_symmetry_multiplicity
 _atom_site_fract_x
 _atom_site_fract_y
 _atom_site_fract_z
 _atom_site_occupancy
 _atom_site_pbe_bader_charge
 _atom_site_pbe_bader_spin_density
 _atom_site_pbe_cm5_charge
 _atom_site_pbe_ddec_charge
 _atom_site_pbe_ddec_spin_density
 _atom_site_pbe_ddec_sum_bond_order
 _atom_site_pbe_magmom
Zr  Zr0  1  0.57565919  0.42434068  0.42433961  1  2.631147  0  1.624434  2.372357  0  2.759358  0
Zr  Zr1  1  0.42434080  0.57565933  0.57565895  1  2.62939  0  1.624488  2.372421  0  2.759306  0
Zr  Zr2  1  0.42434126  0.57565869  0.42434080  1  2.631186  0  1.624464  2.372532  0  2.759323  0
Zr  Zr3  1  0.57565841  0.42434100  0.57565892  1  2.629359  0  1.624446  2.372477  0  2.75938  0
Zr  Zr4  1  0.57566103  0.57566064  0.42433862  1  2.62889  0  1.624405  2.372326  0  2.759259  0
Zr  Zr5  1  0.42434016  0.42433886  0.57566029  1  2.631337  0  1.624422  2.372325  0  2.759219  0
H  H6  1  0.85419700  0.63283396  0.95557551  1  0.029781  0  0.08972  0.120902  0  0.999201  0
H  H7  1  0.14592297  0.44251033  0.04450915  1  0.026169  0  0.089404  0.120389  0  0.999031  0
H  H8  1  0.76178959  0.40880351  0.23687818  1  0.08866  0  0.107391  0.111255  0  0.995592  0
H  H9  1  0.86983072  0.40778416  0.13061135  1  0.076872  0  0.10245  0.104565  0  0.990512  0
H  H10  1  0.63283476  0.85419654  0.55739288  1  0.034807  0  0.089726  0.120927  0  0.99918  0
H  H11  1  0.44251046  0.14592271  0.36705823  1  0.033061  0  0.089399  0.120384  0  0.99903  0
H  H12  1  0.40880465  0.76178824  0.59252812  1  0.089831  0  0.107385  0.111251  0  0.995562  0
H  H13  1  0.40778455  0.86983037  0.59177320  1  0.040237  0  0.102452  0.104559  0  0.990528  0
H  H14  1  0.95557555  0.55739402  0.85419688  1  0.027583  0  0.08973  0.120902  0  0.999175  0
H  H15  1  0.04450901  0.36705802  0.14592279  1  0.028664  0  0.089411  0.120401  0  0.999043  0
H  H16  1  0.23687903  0.59252849  0.76178805  1  0.096302  0  0.107364  0.111216  0  0.995573  0
H  H17  1  0.13061221  0.59177386  0.86983016  1  0.074  0  0.102449  0.104551  0  0.99051  0
H  H18  1  0.55739479  0.95557506  0.63283346  1  0.055226  0  0.089723  0.120902  0  0.999186  0
H  H19  1  0.36705854  0.04450822  0.44251075  1  0.007306  0  0.089428  0.120418  0  0.999044  0
H  H20  1  0.59252828  0.23687878  0.40880379  1  0.094833  0  0.107401  0.111248  0  0.995591  0
H  H21  1  0.59177391  0.13061133  0.40778444  1  0.039253  0  0.102439  0.104545  0  0.99051  0
H  H22  1  0.63283359  0.55739345  0.95557518  1  0.05521  0  0.089727  0.120924  0  0.999163  0
H  H23  1  0.44250991  0.36705787  0.04450921  1  0.007281  0  0.089416  0.120408  0  0.99906  0
H  H24  1  0.40880355  0.59252875  0.23687849  1  0.094821  0  0.107386  0.111253  0  0.995598  0
H  H25  1  0.40778436  0.59177445  0.13061089  1  0.039237  0  0.102418  0.10449  0  0.990531  0
H  H26  1  0.85419739  0.95557570  0.55739398  1  0.027593  0  0.089727  0.120903  0  0.999171  0
H  H27  1  0.14592303  0.04450909  0.36705779  1  0.028947  0  0.089411  0.120402  0  0.999073  0
H  H28  1  0.76178758  0.23687863  0.59252963  1  0.096302  0  0.10736  0.111222  0  0.995558  0
H  H29  1  0.86982978  0.13061129  0.59177486  1  0.073991  0  0.10243  0.104513  0  0.990506  0
H  H30  1  0.55739394  0.63283357  0.85419674  1  0.034813  0  0.089735  0.120937  0  0.999159  0
H  H31  1  0.36705782  0.44251040  0.14592261  1  0.03303  0  0.089421  0.120424  0  0.999042  0
H  H32  1  0.59252854  0.40880420  0.76178883  1  0.089783  0  0.10739  0.111255  0  0.995585  0
H  H33  1  0.59177415  0.40778407  0.86983040  1  0.040212  0  0.102415  0.104472  0  0.990568  0
H  H34  1  0.95557564  0.85419788  0.63283332  1  0.029782  0  0.089702  0.120888  0  0.999257  0
H  H35  1  0.04450915  0.14592342  0.44250930  1  0.02606  0  0.089422  0.120423  0  0.999061  0
H  H36  1  0.23687850  0.76178918  0.40880334  1  0.088646  0  0.107397  0.111293  0  0.995566  0
H  H37  1  0.13061073  0.86983094  0.40778381  1  0.07686  0  0.102434  0.104536  0  0.990492  0
H  H38  1  0.55739421  0.85419720  0.95557524  1  0.02757  0  0.089723  0.120909  0  0.999142  0
H  H39  1  0.36705786  0.14592278  0.04450937  1  0.028954  0  0.089406  0.120405  0  0.999046  0
H  H40  1  0.59252864  0.76178874  0.23687767  1  0.096226  0  0.1074  0.111314  0  0.99566  0
H  H41  1  0.59177529  0.86983102  0.13061077  1  0.073992  0  0.102383  0.104399  0  0.99048  0
H  H42  1  0.95557497  0.63283460  0.55739366  1  0.055184  0  0.089723  0.120907  0  0.999169  0
H  H43  1  0.04450929  0.44251022  0.36705811  1  0.007284  0  0.089425  0.120422  0  0.999014  0
H  H44  1  0.23687754  0.40880430  0.59252858  1  0.095111  0  0.107415  0.111341  0  0.995645  0
H  H45  1  0.13060983  0.40778390  0.59177534  1  0.039243  0  0.102396  0.104433  0  0.990476  0
H  H46  1  0.63283403  0.95557574  0.85419688  1  0.029786  0  0.089726  0.12091  0  0.999182  0
H  H47  1  0.44251013  0.04450877  0.14592351  1  0.026071  0  0.089449  0.120464  0  0.999004  0
H  H48  1  0.40880534  0.23687677  0.76179023  1  0.088537  0  0.107403  0.111344  0  0.995682  0
H  H49  1  0.40778392  0.13061057  0.86983141  1  0.076893  0  0.102389  0.104433  0  0.990453  0
H  H50  1  0.85419649  0.55739478  0.63283313  1  0.03485  0  0.089725  0.120909  0  0.999207  0
H  H51  1  0.14592218  0.36705856  0.44251042  1  0.033046  0  0.089419  0.120413  0  0.999051  0
H  H52  1  0.76178939  0.59252857  0.40880399  1  0.089766  0  0.107401  0.111321  0  0.995681  0
H  H53  1  0.86983093  0.59177537  0.40778297  1  0.040221  0  0.102401  0.104417  0  0.990473  0
H  H54  1  0.63283344  0.85419705  0.95557554  1  0.029828  0  0.089725  0.120907  0  0.999231  0
H  H55  1  0.44251010  0.14592280  0.04450959  1  0.026137  0  0.089407  0.120393  0  0.99903  0
H  H56  1  0.40880368  0.76178869  0.23687928  1  0.088677  0  0.107394  0.111237  0  0.995554  0
H  H57  1  0.40778436  0.86983031  0.13061172  1  0.076883  0  0.10244  0.10454  0  0.99055  0
H  H58  1  0.85419635  0.63283491  0.55739334  1  0.034776  0  0.08972  0.120907  0  0.999189  0
H  H59  1  0.14592265  0.44251043  0.36705828  1  0.033072  0  0.089431  0.120424  0  0.999032  0
H  H60  1  0.76178854  0.40880360  0.59252850  1  0.089832  0  0.107386  0.111231  0  0.995526  0
H  H61  1  0.86983024  0.40778440  0.59177332  1  0.040242  0  0.10244  0.104549  0  0.990562  0
H  H62  1  0.55739370  0.95557565  0.85419739  1  0.0276  0  0.089738  0.120925  0  0.999172  0
H  H63  1  0.36705813  0.04450900  0.14592279  1  0.028665  0  0.089441  0.120439  0  0.999044  0
H  H64  1  0.59253004  0.23687827  0.76178847  1  0.096316  0  0.107362  0.111225  0  0.995511  0
H  H65  1  0.59177443  0.13061171  0.86983046  1  0.073973  0  0.102462  0.104594  0  0.99056  0
H  H66  1  0.95557528  0.55739464  0.63283362  1  0.055219  0  0.089723  0.120905  0  0.999165  0
H  H67  1  0.04450839  0.36705878  0.44251025  1  0.007301  0  0.089434  0.120433  0  0.999017  0
H  H68  1  0.23687889  0.59252891  0.40880339  1  0.094855  0  0.107381  0.111241  0  0.995502  0
H  H69  1  0.13061127  0.59177391  0.40778415  1  0.039253  0  0.102406  0.104476  0  0.990558  0
H  H70  1  0.55739409  0.63283331  0.95557519  1  0.055217  0  0.089711  0.120911  0  0.999213  0
H  H71  1  0.36705783  0.44250996  0.04450906  1  0.007281  0  0.089417  0.120412  0  0.99905  0
H  H72  1  0.59252818  0.40880424  0.23687821  1  0.095084  0  0.107395  0.111302  0  0.995646  0
H  H73  1  0.59177499  0.40778360  0.13061043  1  0.039232  0  0.102397  0.104456  0  0.990517  0
H  H74  1  0.95557527  0.85419696  0.55739452  1  0.027583  0  0.089719  0.120897  0  0.999172  0
H  H75  1  0.04450878  0.14592336  0.36705758  1  0.028956  0  0.089433  0.120418  0  0.999039  0
H  H76  1  0.23687835  0.76178915  0.59252839  1  0.096268  0  0.107381  0.111274  0  0.995657  0
H  H77  1  0.13061063  0.86983097  0.59177501  1  0.073989  0  0.102406  0.104456  0  0.990505  0
H  H78  1  0.63283337  0.55739364  0.85419740  1  0.034813  0  0.089735  0.120933  0  0.999194  0
H  H79  1  0.44251033  0.36705788  0.14592277  1  0.033024  0  0.089418  0.120421  0  0.999043  0
H  H80  1  0.40880391  0.59252872  0.76178911  1  0.089754  0  0.107416  0.111308  0  0.995687  0
H  H81  1  0.40778353  0.59177493  0.86983086  1  0.040226  0  0.102393  0.104416  0  0.99053  0
H  H82  1  0.85419751  0.95557638  0.63283328  1  0.029795  0  0.089708  0.120895  0  0.999239  0
H  H83  1  0.14592340  0.04450916  0.44250951  1  0.026019  0  0.089425  0.12043  0  0.99902  0
H  H84  1  0.76178986  0.23687737  0.40880426  1  0.088555  0  0.107389  0.111286  0  0.99568  0
H  H85  1  0.86983151  0.13061033  0.40778402  1  0.076879  0  0.102398  0.104437  0  0.990461  0
H  H86  1  0.85419701  0.55739400  0.95557568  1  0.027604  0  0.089729  0.120925  0  0.999172  0
H  H87  1  0.14592263  0.36705804  0.04450891  1  0.028603  0  0.089416  0.120412  0  0.999034  0
H  H88  1  0.76178899  0.59252885  0.23687753  1  0.096268  0  0.107374  0.111279  0  0.995633  0
H  H89  1  0.86983044  0.59177513  0.13061100  1  0.073995  0  0.10242  0.104462  0  0.99051  0
H  H90  1  0.63283457  0.95557490  0.55739365  1  0.055184  0  0.089724  0.120904  0  0.99918  0
H  H91  1  0.44251031  0.04450892  0.36705810  1  0.007291  0  0.089412  0.12041  0  0.999034  0
H  H92  1  0.40880424  0.23687806  0.59252845  1  0.09508  0  0.107386  0.111276  0  0.995675  0
H  H93  1  0.40778388  0.13060994  0.59177525  1  0.03924  0  0.102414  0.104464  0  0.990501  0
H  H94  1  0.95557529  0.63283373  0.85419721  1  0.029809  0  0.089724  0.120901  0  0.999188  0
H  H95  1  0.04450892  0.44250989  0.14592335  1  0.026177  0  0.08941  0.120402  0  0.999019  0
H  H96  1  0.23687785  0.40880393  0.76178969  1  0.088536  0  0.107376  0.111261  0  0.995698  0
H  H97  1  0.13061055  0.40778350  0.86983133  1  0.076873  0  0.102407  0.104438  0  0.990505  0
H  H98  1  0.55739480  0.85419652  0.63283251  1  0.034864  0  0.08973  0.120938  0  0.999185  0
H  H99  1  0.36705816  0.14592234  0.44251003  1  0.033046  0  0.089412  0.120398  0  0.999051  0
H  H100  1  0.59252904  0.76178930  0.40880381  1  0.089739  0  0.107392  0.111287  0  0.995693  0
H  H101  1  0.59177519  0.86983066  0.40778288  1  0.040244  0  0.102405  0.104442  0  0.990515  0
H  H102  1  0.81922597  0.57246647  0.03584120  1  0.052531  0  0.08915  0.125354  0  1.024975  0
H  H103  1  0.18083899  0.42746927  0.96422219  1  0.052481  0  0.08836  0.123834  0  1.025921  0
H  H104  1  0.57246733  0.81922526  0.57246545  1  0.045968  0  0.089146  0.12538  0  1.024908  0
H  H105  1  0.42746979  0.18083854  0.42746983  1  0.045282  0  0.08836  0.123842  0  1.025877  0
H  H106  1  0.03584198  0.57246639  0.81922608  1  0.052555  0  0.089133  0.12533  0  1.024965  0
H  H107  1  0.96422180  0.42746988  0.18083846  1  0.053003  0  0.088356  0.123824  0  1.025951  0
H  H108  1  0.57246680  0.03584141  0.57246593  1  0.048372  0  0.089152  0.125349  0  1.024953  0
H  H109  1  0.42746972  0.96422179  0.42746949  1  0.047432  0  0.088352  0.123826  0  1.025913  0
H  H110  1  0.57246665  0.57246611  0.03584117  1  0.048377  0  0.089154  0.125355  0  1.024968  0
H  H111  1  0.42746990  0.42746959  0.96422173  1  0.047435  0  0.08835  0.123826  0  1.025939  0
H  H112  1  0.81922605  0.03584170  0.57246662  1  0.052551  0  0.089133  0.125324  0  1.024989  0
H  H113  1  0.18083863  0.96422214  0.42746946  1  0.052502  0  0.088356  0.123838  0  1.025929  0
H  H114  1  0.57246614  0.57246589  0.81922602  1  0.045852  0  0.08914  0.125347  0  1.024946  0
H  H115  1  0.42746983  0.42746925  0.18083854  1  0.04509  0  0.088362  0.123852  0  1.025897  0
H  H116  1  0.03584206  0.81922637  0.57246601  1  0.05252  0  0.089142  0.125348  0  1.024964  0
H  H117  1  0.96422200  0.18083942  0.42746926  1  0.052939  0  0.088361  0.123819  0  1.025947  0
H  H118  1  0.57246655  0.81922578  0.03584135  1  0.052521  0  0.089146  0.125343  0  1.024987  0
H  H119  1  0.42746952  0.18083869  0.96422270  1  0.052956  0  0.088378  0.123863  0  1.025888  0
H  H120  1  0.03584155  0.57246696  0.57246565  1  0.048367  0  0.089146  0.125358  0  1.024931  0
H  H121  1  0.96422181  0.42746976  0.42746995  1  0.047437  0  0.08837  0.123834  0  1.025925  0
H  H122  1  0.57246594  0.03584214  0.81922636  1  0.05258  0  0.089141  0.125347  0  1.02496  0
H  H123  1  0.42746957  0.96422177  0.18083935  1  0.053018  0  0.08836  0.123828  0  1.025938  0
H  H124  1  0.81922538  0.57246716  0.57246597  1  0.045851  0  0.089145  0.125355  0  1.024931  0
H  H125  1  0.18083833  0.42746990  0.42746998  1  0.045461  0  0.088348  0.123814  0  1.025936  0
H  H126  1  0.44051573  0.44051567  0.67845324  1  0.636029  0  0.330676  0.421277  0  0.857342  0
H  H127  1  0.44051570  0.44051488  0.44051525  1  0.607386  0  0.330691  0.421296  0  0.856949  0
H  H128  1  0.67845401  0.44051533  0.44051474  1  0.594262  0  0.330707  0.421294  0  0.857336  0
H  H129  1  0.44051525  0.67845398  0.44051491  1  0.594267  0  0.330701  0.421312  0  0.857305  0
C  C130  1  0.78584612  0.44872035  0.21301264  1  0.003082  0  -0.081486  -0.082008  0  3.984547  0
C  C131  1  0.84592631  0.44833338  0.15395813  1  -0.02813  0  -0.091339  -0.144322  0  3.983283  0
C  C132  1  0.44872088  0.78584589  0.55242004  1  -0.039236  0  -0.081489  -0.08203  0  3.984559  0
C  C133  1  0.44833382  0.84592601  0.55178167  1  -0.045051  0  -0.091316  -0.14428  0  3.983246  0
C  C134  1  0.21301312  0.55242143  0.78584501  1  -0.028994  0  -0.081501  -0.082051  0  3.984487  0
C  C135  1  0.15395835  0.55178237  0.84592575  1  -0.02095  0  -0.091331  -0.144291  0  3.983309  0
C  C136  1  0.55242117  0.21301280  0.44872030  1  -0.053693  0  -0.08149  -0.082007  0  3.984473  0
C  C137  1  0.55178189  0.15395778  0.44833374  1  -0.041508  0  -0.091314  -0.14426  0  3.983284  0
C  C138  1  0.44871977  0.55242197  0.21301237  1  -0.053703  0  -0.0815  -0.082108  0  3.98457  0
C  C139  1  0.44833460  0.55178200  0.15395743  1  -0.04152  0  -0.091329  -0.144201  0  3.983329  0
C  C140  1  0.78584509  0.21301213  0.55242243  1  -0.028907  0  -0.081489  -0.082046  0  3.984533  0
C  C141  1  0.84592477  0.15395793  0.55178279  1  -0.020959  0  -0.091308  -0.144214  0  3.983357  0
C  C142  1  0.55242149  0.44872016  0.78584583  1  -0.039196  0  -0.081506  -0.082068  0  3.984506  0
C  C143  1  0.55178211  0.44833386  0.84592543  1  -0.045053  0  -0.091322  -0.144232  0  3.983391  0
C  C144  1  0.21301157  0.78584626  0.44872015  1  0.003665  0  -0.081503  -0.082129  0  3.984571  0
C  C145  1  0.15395822  0.84592593  0.44833415  1  -0.028144  0  -0.091357  -0.144255  0  3.983336  0
C  C146  1  0.55242711  0.78584497  0.21301300  1  -0.028736  0  -0.081563  -0.082255  0  3.984195  0
C  C147  1  0.55177927  0.84592643  0.15395752  1  -0.019396  0  -0.091304  -0.144096  0  3.983629  0
C  C148  1  0.21301260  0.44871543  0.55242656  1  -0.053845  0  -0.081561  -0.08227  0  3.98421  0
C  C149  1  0.15395699  0.44833680  0.55177930  1  -0.041567  0  -0.091337  -0.144147  0  3.983629  0
C  C150  1  0.44871568  0.21301191  0.78584547  1  0.003723  0  -0.081597  -0.082362  0  3.984199  0
C  C151  1  0.44833768  0.15395690  0.84592704  1  -0.028153  0  -0.09132  -0.144115  0  3.983644  0
C  C152  1  0.78584558  0.55242699  0.44871445  1  -0.039203  0  -0.081586  -0.082329  0  3.984177  0
C  C153  1  0.84592671  0.55177885  0.44833678  1  -0.045089  0  -0.091284  -0.144031  0  3.983649  0
C  C154  1  0.44872120  0.78584672  0.21301263  1  0.003056  0  -0.081488  -0.081918  0  3.984708  0
C  C155  1  0.44833268  0.84592560  0.15395879  1  -0.028131  0  -0.091342  -0.144359  0  3.983327  0
C  C156  1  0.78584621  0.44872164  0.55241908  1  -0.039219  0  -0.081469  -0.081885  0  3.984694  0
C  C157  1  0.84592544  0.44833263  0.55178314  1  -0.045053  0  -0.091352  -0.14439  0  3.98336  0
C  C158  1  0.55242023  0.21301222  0.78584619  1  -0.028973  0  -0.081482  -0.081959  0  3.984597  0
C  C159  1  0.55178342  0.15395858  0.84592577  1  -0.020946  0  -0.091364  -0.144402  0  3.983374  0
C  C160  1  0.21301205  0.55242000  0.44872157  1  -0.053661  0  -0.081461  -0.081932  0  3.98455  0
C  C161  1  0.15395861  0.55178252  0.44833361  1  -0.041906  0  -0.091339  -0.144282  0  3.983312  0
C  C162  1  0.55242509  0.44871664  0.21301258  1  -0.053782  0  -0.081563  -0.082292  0  3.984349  0
C  C163  1  0.55178043  0.44833581  0.15395747  1  -0.041565  0  -0.091337  -0.144165  0  3.98353  0
C  C164  1  0.21301210  0.78584638  0.55242479  1  -0.028967  0  -0.081562  -0.082199  0  3.984384  0
C  C165  1  0.15395807  0.84592623  0.55177986  1  -0.020931  0  -0.091328  -0.144175  0  3.983572  0
C  C166  1  0.44871635  0.55242567  0.78584579  1  -0.039179  0  -0.081578  -0.082258  0  3.984313  0
C  C167  1  0.44833578  0.55178041  0.84592605  1  -0.045086  0  -0.091268  -0.144053  0  3.983533  0
C  C168  1  0.78584565  0.21301225  0.44871698  1  0.003698  0  -0.081584  -0.082259  0  3.98437  0
C  C169  1  0.84592619  0.15395720  0.44833675  1  -0.028158  0  -0.091298  -0.144086  0  3.983455  0
C  C170  1  0.78584476  0.55242540  0.21301328  1  -0.028903  0  -0.081564  -0.082303  0  3.984319  0
C  C171  1  0.84592659  0.55177991  0.15395781  1  -0.019382  0  -0.091273  -0.144045  0  3.983488  0
C  C172  1  0.44871667  0.21301211  0.55242522  1  -0.053802  0  -0.081572  -0.082258  0  3.984252  0
C  C173  1  0.44833643  0.15395682  0.55178040  1  -0.041612  0  -0.091307  -0.144113  0  3.983448  0
C  C174  1  0.21301211  0.44871657  0.78584551  1  0.003739  0  -0.081568  -0.082286  0  3.984247  0
C  C175  1  0.15395697  0.44833646  0.84592657  1  -0.028173  0  -0.091246  -0.144005  0  3.983406  0
C  C176  1  0.55242642  0.78584505  0.44871562  1  -0.039191  0  -0.081537  -0.082209  0  3.984252  0
C  C177  1  0.55177963  0.84592647  0.44833568  1  -0.045112  0  -0.091301  -0.144126  0  3.983564  0
C  C178  1  0.69081307  0.50161202  0.30597185  1  1.536622  0  0.232963  0.63639  0  4.109829  0
C  C179  1  0.75520533  0.50101833  0.24275382  1  -0.034031  0  -0.02277  -0.054985  0  3.984185  0
C  C180  1  0.87652817  0.49997762  0.12352063  1  -0.145964  0  0.002466  0.105847  0  4.000201  0
C  C181  1  0.94032291  0.49993493  0.05980721  1  0.031775  0  -0.018819  -0.070153  0  3.996261  0
C  C182  1  0.93279867  0.53705579  0.99309058  1  -0.098328  0  -0.018228  0.056884  0  3.964129  0
C  C183  1  0.86138491  0.57676540  0.98508498  1  -0.084676  0  -0.240042  -0.394908  0  3.998536  0
C  C184  1  0.06731358  0.46282968  0.00702765  1  -0.035385  0  -0.018708  0.056614  0  3.966086  0
C  C185  1  0.13872501  0.42313230  0.01501078  1  -0.054353  0  -0.239393  -0.393453  0  3.999152  0
C  C186  1  0.50161284  0.69081313  0.50160176  1  1.557142  0  0.232935  0.636275  0  4.10991  0
C  C187  1  0.50101807  0.75520518  0.50102252  1  0.011956  0  -0.022792  -0.055036  0  3.984101  0
C  C188  1  0.49997878  0.87652777  0.49997278  1  -0.040714  0  0.002467  0.105902  0  4.000103  0
C  C189  1  0.49993578  0.94032305  0.49993433  1  -0.006021  0  -0.018865  -0.069822  0  3.996364  0
C  C190  1  0.53705699  0.93279774  0.53705446  1  -0.023526  0  -0.018166  0.05642  0  3.965205  0
C  C191  1  0.57676614  0.86138438  0.57676436  1  -0.073751  0  -0.240046  -0.394715  0  3.998686  0
C  C192  1  0.46282973  0.06731322  0.46282954  1  -0.028415  0  -0.01868  0.05632  0  3.966805  0
C  C193  1  0.42313179  0.13872496  0.42313258  1  -0.070627  0  -0.239428  -0.393334  0  3.999238  0
C  C194  1  0.30597206  0.50160132  0.69081295  1  1.536457  0  0.232958  0.636343  0  4.10978  0
C  C195  1  0.24275373  0.50102224  0.75520483  1  -0.034582  0  -0.022755  -0.05493  0  3.983962  0
C  C196  1  0.12352057  0.49997443  0.87652798  1  -0.14397  0  0.002484  0.10588  0  4.000147  0
C  C197  1  0.05980704  0.49993571  0.94032283  1  0.03142  0  -0.018851  -0.070231  0  3.996115  0
C  C198  1  0.99309058  0.53705599  0.93279832  1  -0.006494  0  -0.018194  0.056923  0  3.964041  0
C  C199  1  0.98508506  0.57676520  0.86138526  1  -0.084666  0  -0.240005  -0.394818  0  3.998479  0
C  C200  1  0.00702728  0.46282995  0.06731331  1  -0.002661  0  -0.018691  0.056557  0  3.966107  0
C  C201  1  0.01501085  0.42313218  0.13872483  1  -0.054929  0  -0.239411  -0.393451  0  3.999113  0
C  C202  1  0.50160145  0.30597214  0.50161254  1  1.552407  0  0.23295  0.636298  0  4.10988  0
C  C203  1  0.50102178  0.24275407  0.50101827  1  0.036392  0  -0.022736  -0.05496  0  3.984022  0
C  C204  1  0.49997455  0.12351972  0.49997727  1  -0.047926  0  0.002544  0.10594  0  4.000075  0
C  C205  1  0.49993567  0.05980602  0.49993478  1  -0.006883  0  -0.018906  -0.069903  0  3.996421  0
C  C206  1  0.53705671  0.99309004  0.53705504  1  -0.005707  0  -0.018157  0.056442  0  3.965206  0
C  C207  1  0.57676615  0.98508478  0.57676431  1  -0.117359  0  -0.240019  -0.39459  0  3.998696  0
C  C208  1  0.46283010  0.00702701  0.46282908  1  -0.008322  0  -0.018688  0.056317  0  3.966704  0
C  C209  1  0.42313236  0.01501059  0.42313188  1  -0.023201  0  -0.239416  -0.393331  0  3.999252  0
C  C210  1  0.50161112  0.50160292  0.30597125  1  1.552313  0  0.232914  0.636262  0  4.109914  0
C  C211  1  0.50101851  0.50102169  0.24275439  1  0.03645  0  -0.022719  -0.054873  0  3.984162  0
C  C212  1  0.49997726  0.49997493  0.12351982  1  -0.047995  0  0.002565  0.105952  0  4.000137  0
C  C213  1  0.49993467  0.49993516  0.05980736  1  -0.00685  0  -0.018877  -0.069856  0  3.996343  0
C  C214  1  0.53705538  0.53705541  0.99308982  1  -0.005701  0  -0.018145  0.056477  0  3.965161  0
C  C215  1  0.57676512  0.57676504  0.98508475  1  -0.117357  0  -0.240035  -0.394665  0  3.998705  0
C  C216  1  0.46282926  0.46282925  0.00702834  1  -0.00835  0  -0.018687  0.056374  0  3.966719  0
C  C217  1  0.42313183  0.42313193  0.01501089  1  -0.023182  0  -0.239417  -0.393338  0  3.999313  0
C  C218  1  0.69081338  0.30597154  0.50160290  1  1.536444  0  0.232916  0.636254  0  4.109941  0
C  C219  1  0.75520485  0.24275465  0.50102224  1  -0.034657  0  -0.02275  -0.054969  0  3.984161  0
C  C220  1  0.87652796  0.12352063  0.49997473  1  -0.144003  0  0.002503  0.105881  0  4.000249  0
C  C221  1  0.94032272  0.05980802  0.49993516  1  0.031362  0  -0.018863  -0.070282  0  3.996129  0
C  C222  1  0.93279905  0.99309032  0.53705528  1  -0.006472  0  -0.018194  0.056925  0  3.964015  0
C  C223  1  0.86138484  0.98508575  0.57676503  1  -0.084656  0  -0.239999  -0.394826  0  3.998532  0
C  C224  1  0.06731307  0.00702865  0.46282906  1  -0.099738  0  -0.018658  0.056678  0  3.966056  0
C  C225  1  0.13872537  0.01501079  0.42313160  1  -0.085673  0  -0.239446  -0.393531  0  3.999144  0
C  C226  1  0.50160377  0.50161199  0.69081331  1  1.5571  0  0.2329  0.636205  0  4.109962  0
C  C227  1  0.50102221  0.50101906  0.75520403  1  0.011778  0  -0.022755  -0.054969  0  3.984003  0
C  C228  1  0.49997397  0.49997717  0.87652824  1  -0.040716  0  0.002467  0.105923  0  4.000114  0
C  C229  1  0.49993513  0.49993466  0.94032265  1  -0.006413  0  -0.0189  -0.069976  0  3.996306  0
C  C230  1  0.53705551  0.53705579  0.93279855  1  -0.023186  0  -0.018152  0.0565  0  3.965128  0
C  C231  1  0.57676465  0.57676506  0.86138483  1  -0.073623  0  -0.240037  -0.394679  0  3.998701  0
C  C232  1  0.46282900  0.46282960  0.06731324  1  -0.028373  0  -0.018704  0.056249  0  3.966783  0
C  C233  1  0.42313233  0.42313193  0.13872491  1  -0.07043  0  -0.239443  -0.393384  0  3.999265  0
C  C234  1  0.30597139  0.69081410  0.50161050  1  1.536367  0  0.232994  0.636428  0  4.109699  0
C  C235  1  0.24275480  0.75520501  0.50101832  1  -0.034491  0  -0.022731  -0.054965  0  3.984113  0
C  C236  1  0.12352025  0.87652845  0.49997686  1  -0.144447  0  0.002547  0.10594  0  4.000144  0
C  C237  1  0.05980734  0.94032291  0.49993448  1  0.031329  0  -0.018928  -0.070417  0  3.996185  0
C  C238  1  0.99308985  0.93279916  0.53705523  1  -0.054995  0  -0.018151  0.057067  0  3.963946  0
C  C239  1  0.98508571  0.86138452  0.57676512  1  -0.061306  0  -0.239997  -0.394861  0  3.998515  0
C  C240  1  0.00702826  0.06731382  0.46282911  1  0.02657  0  -0.018695  0.056597  0  3.966041  0
C  C241  1  0.01501074  0.13872564  0.42313218  1  -0.055079  0  -0.239446  -0.39348  0  3.999174  0
C  C242  1  0.50161570  0.69081335  0.30597119  1  1.536587  0  0.233141  0.636718  0  4.109599  0
C  C243  1  0.50101601  0.75520501  0.24275492  1  -0.034138  0  -0.022752  -0.05509  0  3.984208  0
C  C244  1  0.49997906  0.87652784  0.12352037  1  -0.145966  0  0.00249  0.105942  0  4.000233  0
C  C245  1  0.49993472  0.94032291  0.05980763  1  0.031828  0  -0.01885  -0.070248  0  3.996136  0
C  C246  1  0.53705559  0.93279879  0.99309042  1  -0.006759  0  -0.018205  0.056934  0  3.964038  0
C  C247  1  0.57676485  0.86138487  0.98508555  1  -0.084493  0  -0.240012  -0.39486  0  3.998545  0
C  C248  1  0.46282962  0.06731323  0.00702830  1  -0.064632  0  -0.01868  0.056634  0  3.966058  0
C  C249  1  0.42313209  0.13872518  0.01501137  1  -0.055165  0  -0.239442  -0.393515  0  3.999094  0
C  C250  1  0.30597182  0.50159756  0.50161742  1  1.552401  0  0.233172  0.636684  0  4.109572  0
C  C251  1  0.24275470  0.50102337  0.50101660  1  0.036372  0  -0.022746  -0.055045  0  3.984131  0
C  C252  1  0.12352012  0.49997378  0.49997849  1  -0.047509  0  0.002529  0.105934  0  4.000204  0
C  C253  1  0.05980662  0.49993620  0.49993439  1  -0.006965  0  -0.018898  -0.069854  0  3.996327  0
C  C254  1  0.99308973  0.53705674  0.53705515  1  -0.005701  0  -0.018179  0.056399  0  3.965172  0
C  C255  1  0.98508487  0.57676614  0.57676449  1  -0.117341  0  -0.240026  -0.394611  0  3.998644  0
C  C256  1  0.00702790  0.46282984  0.46282914  1  -0.008228  0  -0.018699  0.056206  0  3.966727  0
C  C257  1  0.01501042  0.42313232  0.42313236  1  -0.023181  0  -0.239443  -0.393322  0  3.999169  0
C  C258  1  0.50159743  0.30597164  0.69081344  1  1.536417  0  0.233156  0.636635  0  4.109653  0
C  C259  1  0.50102473  0.24275428  0.75520543  1  -0.034591  0  -0.022756  -0.054973  0  3.984096  0
C  C260  1  0.49997375  0.12351999  0.87652891  1  -0.14401  0  0.002572  0.105979  0  4.000268  0
C  C261  1  0.49993577  0.05980691  0.94032375  1  0.031426  0  -0.018885  -0.070301  0  3.996119  0
C  C262  1  0.53705645  0.99308991  0.93279871  1  -0.097584  0  -0.018167  0.056998  0  3.963998  0
C  C263  1  0.57676524  0.98508529  0.86138525  1  -0.084666  0  -0.240026  -0.394886  0  3.998496  0
C  C264  1  0.46282941  0.00702789  0.06731359  1  0.02621  0  -0.018711  0.056557  0  3.966103  0
C  C265  1  0.42313205  0.01501057  0.13872551  1  -0.055136  0  -0.239462  -0.393528  0  3.999171  0
C  C266  1  0.69081323  0.50161652  0.50159887  1  1.557076  0  0.233044  0.636552  0  4.109658  0
C  C267  1  0.75520539  0.50101564  0.50102418  1  0.012001  0  -0.022743  -0.055046  0  3.984222  0
C  C268  1  0.87652788  0.49997924  0.49997240  1  -0.040711  0  0.002517  0.105917  0  4.000276  0
C  C269  1  0.94032237  0.49993520  0.49993540  1  -0.006423  0  -0.018852  -0.069728  0  3.996278  0
C  C270  1  0.93279829  0.53705638  0.53705529  1  -0.023187  0  -0.018199  0.056355  0  3.965255  0
C  C271  1  0.86138443  0.57676569  0.57676478  1  -0.073629  0  -0.240024  -0.394608  0  3.998727  0
C  C272  1  0.06731276  0.46283046  0.46282956  1  -0.028471  0  -0.018683  0.056322  0  3.966761  0
C  C273  1  0.13872507  0.42313243  0.42313234  1  -0.070826  0  -0.239417  -0.393315  0  3.999229  0
O  O274  1  0.66579404  0.45290266  0.33110638  1  -1.180934  0  -0.357167  -0.621049  0  2.284508  0
O  O275  1  0.45290333  0.66579305  0.55019676  1  -1.182094  0  -0.357151  -0.620998  0  2.284484  0
O  O276  1  0.33110641  0.55019577  0.66579277  1  -1.181709  0  -0.357164  -0.621035  0  2.284483  0
O  O277  1  0.55019582  0.33110729  0.45290336  1  -1.18326  0  -0.357187  -0.621038  0  2.284453  0
O  O278  1  0.45290320  0.55019558  0.33110750  1  -1.183238  0  -0.357173  -0.621006  0  2.284549  0
O  O279  1  0.66579257  0.33110672  0.55019580  1  -1.181492  0  -0.357148  -0.620968  0  2.284603  0
O  O280  1  0.55019684  0.45290448  0.66579197  1  -1.182018  0  -0.357128  -0.620961  0  2.284612  0
O  O281  1  0.33110704  0.66579377  0.45290268  1  -1.180487  0  -0.357221  -0.621087  0  2.284513  0
O  O282  1  0.55019150  0.66579492  0.33110385  1  -1.181594  0  -0.357239  -0.621081  0  2.285436  0
O  O283  1  0.33110325  0.45290969  0.55019143  1  -1.183568  0  -0.35722  -0.621038  0  2.285526  0
O  O284  1  0.45290958  0.33110310  0.66579616  1  -1.180724  0  -0.357217  -0.621015  0  2.285588  0
O  O285  1  0.66579461  0.55019298  0.45290920  1  -1.182123  0  -0.357147  -0.620962  0  2.285399  0
O  O286  1  0.45290163  0.66579223  0.33110672  1  -1.180685  0  -0.357215  -0.621192  0  2.284192  0
O  O287  1  0.66579143  0.45290259  0.55019900  1  -1.182043  0  -0.357205  -0.621184  0  2.284241  0
O  O288  1  0.55019891  0.33110781  0.66579180  1  -1.181611  0  -0.357238  -0.621202  0  2.284095  0
O  O289  1  0.33110797  0.55019904  0.45290113  1  -1.183263  0  -0.357228  -0.621203  0  2.284071  0
O  O290  1  0.55019389  0.45290630  0.33110471  1  -1.183451  0  -0.35707  -0.620833  0  2.285154  0
O  O291  1  0.33110459  0.66579435  0.55019342  1  -1.181504  0  -0.357106  -0.620887  0  2.285052  0
O  O292  1  0.45290707  0.55019468  0.66579346  1  -1.181898  0  -0.357081  -0.620806  0  2.285126  0
O  O293  1  0.66579521  0.33110461  0.45290588  1  -1.18066  0  -0.3571  -0.620851  0  2.285153  0
O  O294  1  0.66579479  0.55019280  0.33110394  1  -1.181671  0  -0.357069  -0.620861  0  2.285189  0
O  O295  1  0.45290660  0.33110400  0.55019349  1  -1.18354  0  -0.357069  -0.620843  0  2.28527  0
O  O296  1  0.33110431  0.45290600  0.66579619  1  -1.180926  0  -0.357094  -0.620871  0  2.285192  0
O  O297  1  0.55019273  0.66579482  0.45290745  1  -1.182085  0  -0.357052  -0.620803  0  2.285252  0
O  O298  1  0.62765321  0.45744870  0.45744940  1  -1.223886  0  -0.695793  -1.066657  0  2.365798  0
O  O299  1  0.40568629  0.53143877  0.53143652  1  -1.202256  0  -0.790501  -1.146102  0  2.124202  0
O  O300  1  0.45744834  0.62765290  0.45744870  1  -1.22387  0  -0.695793  -1.066692  0  2.365783  0
O  O301  1  0.53143930  0.40568596  0.53143762  1  -1.20199  0  -0.790484  -1.146055  0  2.124215  0
O  O302  1  0.45745009  0.45744931  0.62765232  1  -1.265711  0  -0.695761  -1.066662  0  2.365847  0
O  O303  1  0.53143709  0.53143779  0.40568588  1  -1.202218  0  -0.790511  -1.146152  0  2.124282  0
O  O304  1  0.45744897  0.45744974  0.45744806  1  -1.236158  0  -0.695796  -1.066709  0  2.365479  0
O  O305  1  0.53143758  0.53143692  0.53143844  1  -1.202316  0  -0.790492  -1.146116  0  2.124267  0
