# generated using pymatgen
data_ZnH8(C2N)6
_symmetry_space_group_name_H-M   'P 1'
_cell_length_a   10.08733814
_cell_length_b   10.22580061
_cell_length_c   12.15490000
_cell_angle_alpha   109.54243155
_cell_angle_beta   90.00000000
_cell_angle_gamma   90.00000000
_symmetry_Int_Tables_number   1
_chemical_formula_structural   ZnH8(C2N)6
_chemical_formula_sum   'Zn4 H32 C48 N24'
_cell_volume   1181.56553226
_cell_formula_units_Z   4
loop_
 _symmetry_equiv_pos_site_id
 _symmetry_equiv_pos_as_xyz
  1  'x, y, z'
loop_
 _atom_site_type_symbol
 _atom_site_label
 _atom_site_symmetry_multiplicity
 _atom_site_fract_x
 _atom_site_fract_y
 _atom_site_fract_z
 _atom_site_occupancy
 _atom_site_hle17_bader_spin_density
 _atom_site_hle17_ddec_charge
 _atom_site_hle17_ddec_spin_density
 _atom_site_hle17_ddec_sum_bond_order
 _atom_site_hle17_magmom
 _atom_site_hse06_10hf_bader_spin_density
 _atom_site_hse06_10hf_ddec_charge
 _atom_site_hse06_10hf_ddec_spin_density
 _atom_site_hse06_10hf_ddec_sum_bond_order
 _atom_site_hse06_10hf_magmom
 _atom_site_hse06_bader_spin_density
 _atom_site_hse06_ddec_charge
 _atom_site_hse06_ddec_spin_density
 _atom_site_hse06_ddec_sum_bond_order
 _atom_site_hse06_magmom
 _atom_site_pbe_bader_charge
 _atom_site_pbe_bader_spin_density
 _atom_site_pbe_cm5_charge
 _atom_site_pbe_ddec_charge
 _atom_site_pbe_ddec_spin_density
 _atom_site_pbe_ddec_sum_bond_order
 _atom_site_pbe_magmom
Zn  Zn0  1  0.06623254  0.00220822  0.86052320  1  0  0.843876  0  2.019103  0  0  0.632026  0  2.505004  0  0  0.669744  0  2.461765  0  1.209643  0  0.75895  0.605856  0  2.534766  0
Zn  Zn1  1  0.56623164  0.99779143  0.63947753  1  0  0.843904  0  2.019059  0  0  0.632057  0  2.504988  0  0  0.669772  0  2.461755  0  1.209645  0  0.758951  0.605887  0  2.534752  0
Zn  Zn2  1  0.93376864  0.99779143  0.13947506  1  0  0.843904  0  2.019142  0  0  0.632058  0  2.505068  0  0  0.669776  0  2.461836  0  1.209643  0  0.758954  0.60589  0  2.53483  0
Zn  Zn3  1  0.43376954  0.00220925  0.36052513  1  0  0.843909  0  2.019103  0  0  0.63207  0  2.505035  0  0  0.669787  0  2.4618  0  1.20965  0  0.758957  0.605901  0  2.534796  0
H  H4  1  0.11186697  0.56638902  0.29238488  1  0  0.102593  0  0.972615  0  0  0.112707  0  1.033653  0  0  0.114928  0  1.033655  0  0.077638  0  0.101929  0.111131  0  1.033645  0
H  H5  1  0.61186707  0.43361063  0.20761585  1  0  0.102606  0  0.972604  0  0  0.112714  0  1.033651  0  0  0.114936  0  1.033651  0  0.07774  0  0.10194  0.111139  0  1.033643  0
H  H6  1  0.88813420  0.43361063  0.70761502  1  0  0.102611  0  0.9726  0  0  0.112725  0  1.03364  0  0  0.114948  0  1.033641  0  0.077643  0  0.10194  0.111149  0  1.033633  0
H  H7  1  0.38813510  0.56639006  0.79238599  1  0  0.102601  0  0.97262  0  0  0.112716  0  1.03365  0  0  0.114937  0  1.03365  0  0.07797  0  0.101949  0.11114  0  1.033642  0
H  H8  1  0.20809058  0.68254975  0.16016142  1  0  0.087545  0  0.96625  0  0  0.096796  0  1.030254  0  0  0.09877  0  1.030924  0  0.07035  0  0.095849  0.095436  0  1.029734  0
H  H9  1  0.70808968  0.31744989  0.33983930  1  0  0.087524  0  0.966258  0  0  0.096782  0  1.030257  0  0  0.098757  0  1.030928  0  0.070355  0  0.09584  0.095422  0  1.029737  0
H  H10  1  0.79191060  0.31744886  0.83983901  1  0  0.087534  0  0.96624  0  0  0.096781  0  1.030249  0  0  0.098757  0  1.03092  0  0.07034  0  0.095836  0.095422  0  1.029729  0
H  H11  1  0.29191150  0.68255183  0.66016283  1  0  0.087553  0  0.966213  0  0  0.096787  0  1.030244  0  0  0.098759  0  1.030914  0  0.070333  0  0.095834  0.095427  0  1.029724  0
H  H12  1  0.22991199  0.55925590  0.94820192  1  0  0.083561  0  0.970494  0  0  0.094713  0  1.032664  0  0  0.096796  0  1.03264  0  0.072971  0  0.097124  0.093203  0  1.032722  0
H  H13  1  0.72991208  0.44074479  0.55179909  1  0  0.08355  0  0.970474  0  0  0.094704  0  1.032648  0  0  0.096786  0  1.032626  0  0.073031  0  0.097115  0.093195  0  1.032706  0
H  H14  1  0.77008918  0.44074375  0.05179798  1  0  0.083571  0  0.970491  0  0  0.094725  0  1.032656  0  0  0.096808  0  1.032632  0  0.072968  0  0.097125  0.093215  0  1.032715  0
H  H15  1  0.27008810  0.55925694  0.44820304  1  0  0.083561  0  0.970479  0  0  0.094716  0  1.032645  0  0  0.096798  0  1.032623  0  0.072956  0  0.09713  0.093207  0  1.032703  0
H  H16  1  0.16085314  0.31364466  0.85815570  1  0  0.105218  0  0.957717  0  0  0.114906  0  1.020371  0  0  0.117754  0  1.019238  0  0.074248  0  0.103591  0.112683  0  1.021562  0
H  H17  1  0.66085323  0.68635602  0.64184367  1  0  0.10524  0  0.957718  0  0  0.11493  0  1.020366  0  0  0.117779  0  1.019234  0  0.074264  0  0.103597  0.112705  0  1.021558  0
H  H18  1  0.83914605  0.68635602  0.14184367  1  0  0.105244  0  0.957697  0  0  0.11493  0  1.020352  0  0  0.117777  0  1.01922  0  0.074269  0  0.103604  0.112706  0  1.021543  0
H  H19  1  0.33914695  0.31364466  0.35815652  1  0  0.105249  0  0.9577  0  0  0.114931  0  1.020357  0  0  0.11778  0  1.019222  0  0.074275  0  0.103606  0.112708  0  1.021548  0
H  H20  1  0.67628148  0.83635913  0.84004832  1  0  0.108114  0  0.959251  0  0  0.111235  0  1.032469  0  0  0.114328  0  1.030601  0  0.102511  0  0.102936  0.109134  0  1.033713  0
H  H21  1  0.17628040  0.16364155  0.65995352  1  0  0.108057  0  0.95926  0  0  0.111201  0  1.032463  0  0  0.114291  0  1.030598  0  0.102515  0  0.102928  0.1091  0  1.033704  0
H  H22  1  0.32371771  0.16362910  0.15995330  1  0  0.108028  0  0.959288  0  0  0.111198  0  1.03244  0  0  0.114293  0  1.03057  0  0.102365  0  0.102929  0.10909  0  1.033706  0
H  H23  1  0.82371681  0.83637159  0.34004442  1  0  0.107993  0  0.95934  0  0  0.111208  0  1.032461  0  0  0.114302  0  1.030594  0  0.102273  0  0.102953  0.109101  0  1.033723  0
H  H24  1  0.63605977  0.72501020  0.99196006  1  0  0.084689  0  0.986114  0  0  0.096279  0  1.047002  0  0  0.09791  0  1.048381  0  0.102848  0  0.095093  0.095181  0  1.046062  0
H  H25  1  0.13606067  0.27498841  0.50803954  1  0  0.084682  0  0.986112  0  0  0.096265  0  1.047006  0  0  0.097902  0  1.048379  0  0.102867  0  0.095103  0.095167  0  1.046065  0
H  H26  1  0.36393645  0.27498530  0.00804443  1  0  0.084696  0  0.986086  0  0  0.096271  0  1.046989  0  0  0.097916  0  1.048353  0  0.102953  0  0.0951  0.095173  0  1.046047  0
H  H27  1  0.86393555  0.72501539  0.49195412  1  0  0.084703  0  0.986123  0  0  0.096269  0  1.047032  0  0  0.097909  0  1.0484  0  0.102942  0  0.095098  0.095172  0  1.04609  0
H  H28  1  0.41679182  0.72574385  0.07806193  1  0  0.092299  0  0.958668  0  0  0.100103  0  1.026695  0  0  0.1033  0  1.024537  0  0.095045  0  0.099716  0.097745  0  1.028261  0
H  H29  1  0.91679092  0.27425372  0.42193821  1  0  0.092307  0  0.958695  0  0  0.100115  0  1.026706  0  0  0.103314  0  1.024545  0  0.095063  0  0.099728  0.097758  0  1.028271  0
H  H30  1  0.58320539  0.27425372  0.92194150  1  0  0.092365  0  0.95869  0  0  0.100149  0  1.026736  0  0  0.103347  0  1.024578  0  0.095103  0  0.099724  0.097791  0  1.028302  0
H  H31  1  0.08320431  0.72574593  0.57805593  1  0  0.09233  0  0.958662  0  0  0.100118  0  1.026703  0  0  0.103317  0  1.024543  0  0.095143  0  0.099718  0.097756  0  1.028273  0
H  H32  1  0.22022361  0.83105755  0.01234307  1  0  0.10373  0  0.966623  0  0  0.108845  0  1.036753  0  0  0.11151  0  1.035951  0  0.060296  0  0.101483  0.107112  0  1.037029  0
H  H33  1  0.72022271  0.16894106  0.48765654  1  0  0.103748  0  0.966611  0  0  0.108863  0  1.036738  0  0  0.111527  0  1.035939  0  0.060295  0  0.101492  0.107128  0  1.037013  0
H  H34  1  0.77977559  0.16894003  0.98765707  1  0  0.103688  0  0.966586  0  0  0.108846  0  1.036668  0  0  0.111513  0  1.035863  0  0.06035  0  0.101465  0.107113  0  1.036945  0
H  H35  1  0.27977450  0.83105962  0.51234201  1  0  0.103714  0  0.966644  0  0  0.10887  0  1.036724  0  0  0.111538  0  1.035919  0  0.060354  0  0.101494  0.107136  0  1.037  0
C  C36  1  0.08462490  0.37165706  0.14878713  1  0  0.109043  0  3.829474  0  0  0.117838  0  4.071236  0  0  0.117019  0  4.093639  0  0.48082  0  0.090396  0.117964  0  4.056528  0
C  C37  1  0.58462599  0.62834466  0.35121253  1  0  0.109061  0  3.829446  0  0  0.117794  0  4.071292  0  0  0.116972  0  4.093697  0  0.480886  0  0.090423  0.117926  0  4.056574  0
C  C38  1  0.91537528  0.62834363  0.85121224  1  0  0.109064  0  3.829388  0  0  0.117833  0  4.071182  0  0  0.117016  0  4.093585  0  0.480834  0  0.090404  0.117966  0  4.05646  0
C  C39  1  0.41537519  0.37165706  0.64878878  1  0  0.109049  0  3.829328  0  0  0.117825  0  4.071112  0  0  0.117003  0  4.093514  0  0.480882  0  0.090341  0.117951  0  4.056403  0
C  C40  1  0.12356580  0.51132887  0.19921442  1  0  -0.121279  0  3.723932  0  0  -0.138033  0  3.962963  0  0  -0.138921  0  3.983407  0  -0.009669  0  -0.08665  -0.13728  0  3.94926  0
C  C41  1  0.62356589  0.48867078  0.30078466  1  0  -0.121273  0  3.723784  0  0  -0.138009  0  3.962837  0  0  -0.138896  0  3.983279  0  -0.009828  0  -0.086653  -0.13726  0  3.949134  0
C  C42  1  0.87643439  0.48867078  0.80078548  1  0  -0.121294  0  3.72381  0  0  -0.138045  0  3.962855  0  0  -0.138933  0  3.983298  0  -0.009679  0  -0.086662  -0.137295  0  3.949152  0
C  C43  1  0.37643528  0.51133095  0.69921582  1  0  -0.121257  0  3.723824  0  0  -0.138008  0  3.962853  0  0  -0.138894  0  3.983295  0  -0.01009  0  -0.08662  -0.137256  0  3.949151  0
C  C44  1  0.17586007  0.57483898  0.12461170  1  0  -0.075402  0  3.769902  0  0  -0.093224  0  4.02965  0  0  -0.096786  0  4.052668  0  -0.072124  0  -0.096054  -0.090814  0  4.014015  0
C  C45  1  0.67586016  0.42516170  0.37538850  1  0  -0.075383  0  3.769871  0  0  -0.093206  0  4.029619  0  0  -0.09677  0  4.052639  0  -0.072117  0  -0.096048  -0.090797  0  4.013985  0
C  C46  1  0.82413912  0.42516170  0.87538767  1  0  -0.075451  0  3.769951  0  0  -0.093268  0  4.029697  0  0  -0.096831  0  4.052717  0  -0.072115  0  -0.096081  -0.090858  0  4.014063  0
C  C47  1  0.32413903  0.57483898  0.62461334  1  0  -0.075446  0  3.769926  0  0  -0.093258  0  4.029685  0  0  -0.096817  0  4.052701  0  -0.072135  0  -0.096066  -0.090847  0  4.014049  0
C  C48  1  0.18866821  0.50389585  0.00281994  1  0  -0.053251  0  3.761187  0  0  -0.071091  0  4.012384  0  0  -0.071231  0  4.033572  0  -0.135047  0  -0.089388  -0.07076  0  3.997778  0
C  C49  1  0.68866929  0.49610483  0.49717943  1  0  -0.053258  0  3.761182  0  0  -0.071108  0  4.012393  0  0  -0.071247  0  4.033583  0  -0.13508  0  -0.089419  -0.07078  0  3.997786  0
C  C50  1  0.81133297  0.49610379  0.99717996  1  0  -0.053234  0  3.761241  0  0  -0.071076  0  4.01243  0  0  -0.071215  0  4.033618  0  -0.135034  0  -0.089382  -0.070747  0  3.997823  0
C  C51  1  0.31133189  0.50389689  0.50282188  1  0  -0.053229  0  3.761168  0  0  -0.071072  0  4.012362  0  0  -0.071212  0  4.033551  0  -0.134999  0  -0.089401  -0.070742  0  3.997755  0
C  C52  1  0.15054318  0.36685356  0.95169783  1  0  -0.145822  0  3.74896  0  0  -0.159251  0  3.996402  0  0  -0.162977  0  4.015746  0  0.084093  0  -0.091262  -0.156868  0  3.983619  0
C  C53  1  0.65054427  0.63314816  0.54830183  1  0  -0.145882  0  3.748902  0  0  -0.159298  0  3.996323  0  0  -0.163029  0  4.01567  0  0.084113  0  -0.091256  -0.156911  0  3.983537  0
C  C54  1  0.84945700  0.63314712  0.04830154  1  0  -0.145807  0  3.748936  0  0  -0.159229  0  3.996366  0  0  -0.162955  0  4.015708  0  0.084126  0  -0.09124  -0.156843  0  3.983578  0
C  C55  1  0.34945691  0.36685356  0.45169948  1  0  -0.145823  0  3.748915  0  0  -0.159249  0  3.996344  0  0  -0.162976  0  4.015686  0  0.084145  0  -0.091249  -0.156866  0  3.98356  0
C  C56  1  0.09862860  0.30077101  0.02688474  1  0  0.136976  0  3.838778  0  0  0.129952  0  4.081358  0  0  0.13414  0  4.104335  0  0.346329  0  0.093071  0.127124  0  4.066164  0
C  C57  1  0.59862968  0.69923072  0.47311410  1  0  0.137033  0  3.838778  0  0  0.130023  0  4.081361  0  0  0.134216  0  4.104336  0  0.346316  0  0.093071  0.127191  0  4.066165  0
C  C58  1  0.90137060  0.69922968  0.97311463  1  0  0.136945  0  3.838761  0  0  0.129929  0  4.081347  0  0  0.13412  0  4.104322  0  0.346336  0  0.093072  0.127097  0  4.066152  0
C  C59  1  0.40137050  0.30077101  0.52688638  1  0  0.136934  0  3.838783  0  0  0.129932  0  4.081341  0  0  0.134123  0  4.104315  0  0.346339  0  0.093073  0.127104  0  4.066148  0
C  C60  1  0.46734430  0.89070120  0.83822695  1  0  0.12819  0  3.825954  0  0  0.125268  0  4.063352  0  0  0.127162  0  4.088094  0  0.333268  0  0.093332  0.123765  0  4.047015  0
C  C61  1  0.96734439  0.10929845  0.66177378  1  0  0.128189  0  3.825895  0  0  0.125273  0  4.063291  0  0  0.127164  0  4.088034  0  0.333345  0  0.093338  0.12377  0  4.046955  0
C  C62  1  0.53265390  0.10929118  0.16177585  1  0  0.12804  0  3.825919  0  0  0.125172  0  4.063261  0  0  0.127061  0  4.088001  0  0.333401  0  0.093292  0.12367  0  4.046924  0
C  C63  1  0.03265480  0.89070950  0.33822435  1  0  0.128081  0  3.825945  0  0  0.125187  0  4.063295  0  0  0.127081  0  4.088035  0  0.333609  0  0.093305  0.123686  0  4.046958  0
C  C64  1  0.57745660  0.83202364  0.87510662  1  0  -0.139254  0  3.730986  0  0  -0.154403  0  3.982093  0  0  -0.15705  0  4.002524  0  -0.0034  0  -0.088913  -0.152458  0  3.96841  0
C  C65  1  0.07745552  0.16797601  0.62489164  1  0  -0.139202  0  3.730929  0  0  -0.154375  0  3.982033  0  0  -0.157021  0  4.002468  0  -0.003381  0  -0.088918  -0.152429  0  3.968349  0
C  C66  1  0.42254358  0.16796874  0.12489042  1  0  -0.139193  0  3.731036  0  0  -0.15441  0  3.982156  0  0  -0.157054  0  4.002589  0  -0.003254  0  -0.088944  -0.152466  0  3.968467  0
C  C67  1  0.92254368  0.83203194  0.37510649  1  0  -0.139139  0  3.730914  0  0  -0.154406  0  3.982049  0  0  -0.157047  0  4.002469  0  -0.003417  0  -0.088944  -0.152464  0  3.968361  0
C  C68  1  0.55429291  0.77209773  0.96021868  1  0  -0.053842  0  3.74705  0  0  -0.072399  0  3.997039  0  0  -0.07414  0  4.019362  0  -0.074091  0  -0.092464  -0.071114  0  3.981527  0
C  C69  1  0.05429183  0.22789880  0.53978034  1  0  -0.053817  0  3.747026  0  0  -0.07236  0  3.997008  0  0  -0.074107  0  4.01933  0  -0.074114  0  -0.092481  -0.071075  0  3.981498  0
C  C70  1  0.44570728  0.22789361  0.03978382  1  0  -0.053677  0  3.747009  0  0  -0.07219  0  3.99694  0  0  -0.073944  0  4.01926  0  -0.074153  0  -0.0924  -0.070904  0  3.981427  0
C  C71  1  0.94570638  0.77210603  0.46021608  1  0  -0.053738  0  3.746847  0  0  -0.072246  0  3.996793  0  0  -0.073995  0  4.01912  0  -0.074185  0  -0.092429  -0.07096  0  3.981278  0
C  C72  1  0.42694811  0.77163907  0.00935698  1  0  -0.068483  0  3.756157  0  0  -0.085695  0  4.011899  0  0  -0.087425  0  4.032591  0  -0.052738  0  -0.091878  -0.084202  0  3.997365  0
C  C73  1  0.92694722  0.22835954  0.49064180  1  0  -0.068526  0  3.75607  0  0  -0.085744  0  4.011804  0  0  -0.087473  0  4.032498  0  -0.052718  0  -0.091896  -0.084254  0  3.99727  0
C  C74  1  0.57305108  0.22835746  0.99064533  1  0  -0.068692  0  3.756078  0  0  -0.085914  0  4.011861  0  0  -0.087646  0  4.032557  0  -0.052559  0  -0.091935  -0.084422  0  3.997328  0
C  C75  1  0.07305099  0.77164322  0.50935239  1  0  -0.06865  0  3.756049  0  0  -0.085876  0  4.011838  0  0  -0.087607  0  4.03253  0  -0.052479  0  -0.091953  -0.084379  0  3.997305  0
C  C76  1  0.31775281  0.82951968  0.97352989  1  0  -0.143361  0  3.741214  0  0  -0.161004  0  3.995428  0  0  -0.163636  0  4.015613  0  -0.010201  0  -0.09303  -0.159092  0  3.98138  0
C  C77  1  0.81775191  0.17047685  0.52647078  1  0  -0.143392  0  3.741154  0  0  -0.161023  0  3.995361  0  0  -0.163656  0  4.015546  0  -0.010178  0  -0.09304  -0.159108  0  3.981313  0
C  C78  1  0.68224639  0.17047270  0.02647373  1  0  -0.14338  0  3.741363  0  0  -0.161048  0  3.99557  0  0  -0.16368  0  4.015755  0  -0.010177  0  -0.093057  -0.159135  0  3.981524  0
C  C79  1  0.18224729  0.82952694  0.47352617  1  0  -0.143368  0  3.741375  0  0  -0.161046  0  3.99557  0  0  -0.16368  0  4.015757  0  -0.01024  0  -0.093063  -0.159133  0  3.981523  0
C  C80  1  0.33982206  0.88882505  0.88621520  1  0  0.122836  0  3.828785  0  0  0.118624  0  4.068994  0  0  0.120532  0  4.093371  0  0.424611  0  0.090294  0.117135  0  4.052566  0
C  C81  1  0.83982215  0.11117253  0.61378494  1  0  0.122928  0  3.828801  0  0  0.118713  0  4.069027  0  0  0.12062  0  4.093406  0  0.424555  0  0.090332  0.117223  0  4.0526  0
C  C82  1  0.66017714  0.11116941  0.11378406  1  0  0.123028  0  3.829089  0  0  0.118793  0  4.069326  0  0  0.120702  0  4.093701  0  0.424451  0  0.090356  0.117303  0  4.052899  0
C  C83  1  0.16017704  0.88883127  0.38621449  1  0  0.122989  0  3.829092  0  0  0.118808  0  4.069286  0  0  0.120718  0  4.093662  0  0.424521  0  0.090359  0.117317  0  4.05286  0
N  N84  1  0.05508886  0.16859759  0.00692655  1  0  -0.328357  0  3.216595  0  0  -0.262888  0  3.51534  0  0  -0.278637  0  3.527836  0  -0.767664  0  -0.263254  -0.252291  0  3.506667  0
N  N85  1  0.55508995  0.83140414  0.49307393  1  0  -0.328437  0  3.216662  0  0  -0.262963  0  3.515401  0  0  -0.278709  0  3.527892  0  -0.767683  0  -0.26326  -0.252366  0  3.506731  0
N  N86  1  0.94491033  0.83140414  0.99307311  1  0  -0.328328  0  3.216557  0  0  -0.262853  0  3.515297  0  0  -0.278604  0  3.527796  0  -0.767655  0  -0.263264  -0.252257  0  3.506628  0
N  N87  1  0.44491024  0.16859655  0.50692790  1  0  -0.328363  0  3.216558  0  0  -0.262894  0  3.515305  0  0  -0.27864  0  3.527796  0  -0.767737  0  -0.263258  -0.252297  0  3.506634  0
N  N88  1  0.01677449  0.16254471  0.11185589  1  0  -0.087072  0  3.326728  0  0  -0.023774  0  3.637813  0  0  -0.029084  0  3.649211  0  -0.238605  0  -0.13093  -0.020066  0  3.629593  0
N  N89  1  0.51677459  0.83745494  0.38814319  1  0  -0.087035  0  3.326794  0  0  -0.023715  0  3.637835  0  0  -0.029026  0  3.649234  0  -0.238606  0  -0.130935  -0.020007  0  3.629615  0
N  N90  1  0.98322668  0.83745494  0.88814319  1  0  -0.087146  0  3.326669  0  0  -0.02384  0  3.637725  0  0  -0.02915  0  3.649121  0  -0.23861  0  -0.130956  -0.020133  0  3.629509  0
N  N91  1  0.48322659  0.16254574  0.61185783  1  0  -0.087109  0  3.32676  0  0  -0.023815  0  3.637841  0  0  -0.029127  0  3.649239  0  -0.238512  0  -0.130961  -0.020107  0  3.629623  0
N  N92  1  0.03219482  0.28087318  0.19817269  1  0  -0.2414  0  2.889103  0  0  -0.234674  0  3.155575  0  0  -0.236976  0  3.167097  0  -0.605876  0  -0.212  -0.232871  0  3.147842  0
N  N93  1  0.53219491  0.71912750  0.30182668  1  0  -0.241406  0  2.889245  0  0  -0.234661  0  3.155714  0  0  -0.236965  0  3.167238  0  -0.605905  0  -0.211985  -0.232859  0  3.147979  0
N  N94  1  0.96780537  0.71912646  0.80182639  1  0  -0.241318  0  2.889101  0  0  -0.23458  0  3.155562  0  0  -0.236885  0  3.167088  0  -0.605913  0  -0.211947  -0.232779  0  3.147826  0
N  N95  1  0.46780627  0.28087318  0.69817351  1  0  -0.241354  0  2.889184  0  0  -0.234613  0  3.155643  0  0  -0.236916  0  3.167165  0  -0.605932  0  -0.211946  -0.23281  0  3.14791  0
N  N96  1  0.25698554  0.95474884  0.83164936  1  0  -0.300658  0  3.273886  0  0  -0.226281  0  3.5821  0  0  -0.241673  0  3.592614  0  -0.72399  0  -0.24651  -0.215422  0  3.574626  0
N  N97  1  0.75698563  0.04524977  0.66835107  1  0  -0.300751  0  3.273877  0  0  -0.226414  0  3.582157  0  0  -0.241807  0  3.592672  0  -0.724008  0  -0.246547  -0.215556  0  3.574685  0
N  N98  1  0.74301663  0.04524874  0.16835160  1  0  -0.300756  0  3.273881  0  0  -0.226438  0  3.582192  0  0  -0.241831  0  3.592708  0  -0.724014  0  -0.24654  -0.215578  0  3.574718  0
N  N99  1  0.24301753  0.95475299  0.33164806  1  0  -0.300712  0  3.273847  0  0  -0.226449  0  3.582199  0  0  -0.241843  0  3.592711  0  -0.724016  0  -0.246538  -0.21559  0  3.574727  0
N  N100  1  0.32672643  0.99496267  0.75565158  1  0  -0.051546  0  2.955909  0  0  -0.051578  0  3.239909  0  0  -0.044739  0  3.251238  0  -0.108301  0  -0.095785  -0.055866  0  3.232106  0
N  N101  1  0.82672652  0.00503594  0.74434885  1  0  -0.051428  0  2.955935  0  0  -0.051452  0  3.239942  0  0  -0.044616  0  3.251271  0  -0.108359  0  -0.095744  -0.055741  0  3.232141  0
N  N102  1  0.67327772  0.00503490  0.24435103  1  0  -0.051419  0  2.955971  0  0  -0.05146  0  3.240012  0  0  -0.044622  0  3.25134  0  -0.108465  0  -0.095722  -0.055747  0  3.232211  0
N  N103  1  0.17327763  0.99496682  0.25564864  1  0  -0.051475  0  2.955999  0  0  -0.0515  0  3.240039  0  0  -0.044659  0  3.251366  0  -0.10842  0  -0.095737  -0.055788  0  3.232237  0
N  N104  1  0.45320479  0.95776023  0.75809225  1  0  -0.298966  0  3.258653  0  0  -0.225021  0  3.566202  0  0  -0.240641  0  3.577428  0  -0.73303  0  -0.245642  -0.214384  0  3.558554  0
N  N105  1  0.95320489  0.04223942  0.74190930  1  0  -0.299058  0  3.258709  0  0  -0.225104  0  3.566248  0  0  -0.240721  0  3.577468  0  -0.733022  0  -0.245682  -0.214468  0  3.558602  0
N  N106  1  0.54679836  0.04223630  0.24191089  1  0  -0.298986  0  3.25877  0  0  -0.225014  0  3.566248  0  0  -0.24064  0  3.577492  0  -0.733111  0  -0.245656  -0.214379  0  3.558603  0
N  N107  1  0.04679827  0.95776646  0.25808907  1  0  -0.299001  0  3.258727  0  0  -0.225023  0  3.566222  0  0  -0.240653  0  3.577463  0  -0.733201  0  -0.245665  -0.214388  0  3.558578  0
