# generated using pymatgen
data_HoH3C4O9
_symmetry_space_group_name_H-M   'P 1'
_cell_length_a   10.56964228
_cell_length_b   9.90824475
_cell_length_c   12.00146437
_cell_angle_alpha   90.00233820
_cell_angle_beta   106.94912470
_cell_angle_gamma   89.99146646
_symmetry_Int_Tables_number   1
_chemical_formula_structural   HoH3C4O9
_chemical_formula_sum   'Ho4 H12 C16 O36'
_cell_volume   1202.27904396
_cell_formula_units_Z   4
loop_
 _symmetry_equiv_pos_site_id
 _symmetry_equiv_pos_as_xyz
  1  'x, y, z'
loop_
 _atom_site_type_symbol
 _atom_site_label
 _atom_site_symmetry_multiplicity
 _atom_site_fract_x
 _atom_site_fract_y
 _atom_site_fract_z
 _atom_site_occupancy
 _atom_site_hle17_bader_spin_density
 _atom_site_hle17_ddec_charge
 _atom_site_hle17_ddec_spin_density
 _atom_site_hle17_ddec_sum_bond_order
 _atom_site_hle17_magmom
 _atom_site_hse06_10hf_bader_spin_density
 _atom_site_hse06_10hf_ddec_charge
 _atom_site_hse06_10hf_ddec_spin_density
 _atom_site_hse06_10hf_ddec_sum_bond_order
 _atom_site_hse06_10hf_magmom
 _atom_site_hse06_bader_spin_density
 _atom_site_hse06_ddec_charge
 _atom_site_hse06_ddec_spin_density
 _atom_site_hse06_ddec_sum_bond_order
 _atom_site_hse06_magmom
 _atom_site_pbe_bader_spin_density
 _atom_site_pbe_cm5_charge
 _atom_site_pbe_ddec_charge
 _atom_site_pbe_ddec_spin_density
 _atom_site_pbe_ddec_sum_bond_order
 _atom_site_pbe_magmom
Ho  Ho0  1  0.20665732  0.42685706  0.88533621  1  0  2.186042  0  1.655286  0  0  2.024865  0  2.151704  0  0  2.079392  0  2.098537  0  0  1.532631  1.989443  0  2.181079  0
Ho  Ho1  1  0.29336646  0.92682748  0.61464513  1  0  2.185994  0  1.655395  0  0  2.024873  0  2.151741  0  0  2.072041  0  2.114503  0  0  1.532681  1.989231  0  2.181475  0
Ho  Ho2  1  0.79324514  0.57314007  0.11459758  1  0  2.185952  0  1.655392  0  0  2.025047  0  2.151469  0  0  2.079618  0  2.098185  0  0  1.532612  1.989501  0  2.181053  0
Ho  Ho3  1  0.70674646  0.07315754  0.38543804  1  0  2.186075  0  1.655382  0  0  2.025149  0  2.151507  0  0  2.092011  0  2.074895  0  0  1.532647  1.989682  0  2.180992  0
H  H4  1  0.09275522  0.23997560  0.66381438  1  0  0.449326  0  0.842172  0  0  0.41663  0  0.906676  0  0  0.428193  0  0.890012  0  0  0.308387  0.408462  0  0.918426  0
H  H5  1  0.40720985  0.73995152  0.83614811  1  0  0.449409  0  0.842136  0  0  0.416863  0  0.906393  0  0  0.428388  0  0.889773  0  0  0.308634  0.408733  0  0.918104  0
H  H6  1  0.90724144  0.76004172  0.33620580  1  0  0.449263  0  0.842317  0  0  0.416734  0  0.906559  0  0  0.428229  0  0.889974  0  0  0.308459  0.408597  0  0.918273  0
H  H7  1  0.59272876  0.26009304  0.16383098  1  0  0.449244  0  0.842254  0  0  0.416707  0  0.906519  0  0  0.42819  0  0.889976  0  0  0.308464  0.408546  0  0.918262  0
H  H8  1  0.98351728  0.33597556  0.68841503  1  0  0.471648  0  0.763867  0  0  0.449662  0  0.818517  0  0  0.459022  0  0.807709  0  0  0.346486  0.442913  0  0.826429  0
H  H9  1  0.51646824  0.83587322  0.81161171  1  0  0.471681  0  0.764109  0  0  0.449563  0  0.818987  0  0  0.458997  0  0.808024  0  0  0.346549  0.442831  0  0.826866  0
H  H10  1  0.01640777  0.66403873  0.31150131  1  0  0.471413  0  0.764511  0  0  0.449417  0  0.819164  0  0  0.458769  0  0.808392  0  0  0.346453  0.442675  0  0.827058  0
H  H11  1  0.48357105  0.16409062  0.18852354  1  0  0.471392  0  0.764422  0  0  0.449425  0  0.819023  0  0  0.458771  0  0.808403  0  0  0.346361  0.442682  0  0.826916  0
H  H12  1  0.13064557  0.44726007  0.61326670  1  0  0.407048  0  0.869931  0  0  0.374927  0  0.951206  0  0  0.386787  0  0.938809  0  0  0.31486  0.366555  0  0.959897  0
H  H13  1  0.36934226  0.94723695  0.88668249  1  0  0.407074  0  0.869665  0  0  0.374908  0  0.951056  0  0  0.386815  0  0.938492  0  0  0.314965  0.366541  0  0.95974  0
H  H14  1  0.86932341  0.55277440  0.38666381  1  0  0.406961  0  0.86992  0  0  0.374802  0  0.951254  0  0  0.386658  0  0.938849  0  0  0.31485  0.366432  0  0.959944  0
H  H15  1  0.63067001  0.05281468  0.11335987  1  0  0.406749  0  0.87004  0  0  0.37455  0  0.951432  0  0  0.386333  0  0.939253  0  0  0.314751  0.366185  0  0.960105  0
C  C16  1  0.34582652  0.18070638  0.80066094  1  0  0.588965  0  3.946255  0  0  0.546379  0  4.24237  0  0  0.57771  0  4.232081  0  0  0.229827  0.525128  0  4.248864  0
C  C17  1  0.15420252  0.68071740  0.69929517  1  0  0.589144  0  3.945247  0  0  0.546343  0  4.241762  0  0  0.577743  0  4.231365  0  0  0.229814  0.525053  0  4.248319  0
C  C18  1  0.65416987  0.81930992  0.19932492  1  0  0.589303  0  3.945461  0  0  0.546683  0  4.24163  0  0  0.577801  0  4.232334  0  0  0.229854  0.52544  0  4.24811  0
C  C19  1  0.84581966  0.31927872  0.30069725  1  0  0.589158  0  3.945335  0  0  0.546455  0  4.241787  0  0  0.577547  0  4.232547  0  0  0.229835  0.525185  0  4.248331  0
C  C20  1  0.49578936  0.55892236  0.95711699  1  0  0.583775  0  3.891439  0  0  0.540573  0  4.181893  0  0  0.571272  0  4.172302  0  0  0.231613  0.519554  0  4.188246  0
C  C21  1  0.00421007  0.05890632  0.54288433  1  0  0.583946  0  3.891003  0  0  0.540688  0  4.18145  0  0  0.571483  0  4.172097  0  0  0.231544  0.519656  0  4.187802  0
C  C22  1  0.50412355  0.44109395  0.04279371  1  0  0.583999  0  3.890725  0  0  0.540504  0  4.181524  0  0  0.571202  0  4.171924  0  0  0.231727  0.519477  0  4.187878  0
C  C23  1  0.99588940  0.94108072  0.45721049  1  0  0.583853  0  3.890854  0  0  0.540495  0  4.181471  0  0  0.571297  0  4.172092  0  0  0.231746  0.519489  0  4.187793  0
C  C24  1  0.28607071  0.12123784  0.89428422  1  0  0.559161  0  3.780935  0  0  0.508904  0  4.089706  0  0  0.539233  0  4.0782  0  0  0.24889  0.488181  0  4.097309  0
C  C25  1  0.21393571  0.62122239  0.60568171  1  0  0.558499  0  3.781036  0  0  0.508307  0  4.089847  0  0  0.538787  0  4.077956  0  0  0.248545  0.487607  0  4.097439  0
C  C26  1  0.71389512  0.87878452  0.10569584  1  0  0.558787  0  3.781237  0  0  0.508517  0  4.089981  0  0  0.53875  0  4.078717  0  0  0.24871  0.487803  0  4.097574  0
C  C27  1  0.78608584  0.37877373  0.39432480  1  0  0.559232  0  3.781225  0  0  0.508883  0  4.090136  0  0  0.539065  0  4.079486  0  0  0.248786  0.488159  0  4.097773  0
C  C28  1  0.94723184  0.45889772  0.95351600  1  0  0.577363  0  3.924915  0  0  0.536867  0  4.218634  0  0  0.566839  0  4.210378  0  0  0.226113  0.516527  0  4.223927  0
C  C29  1  0.55277709  0.95885637  0.54648524  1  0  0.577034  0  3.92476  0  0  0.5364  0  4.218699  0  0  0.566446  0  4.210804  0  0  0.225977  0.516077  0  4.223952  0
C  C30  1  0.05264751  0.54107822  0.04641927  1  0  0.577121  0  3.924277  0  0  0.536096  0  4.21858  0  0  0.566062  0  4.210334  0  0  0.225907  0.515763  0  4.223859  0
C  C31  1  0.44735804  0.04107516  0.45359712  1  0  0.578058  0  3.923916  0  0  0.53709  0  4.218192  0  0  0.56716  0  4.210164  0  0  0.22631  0.516766  0  4.223452  0
O  O32  1  0.34488630  0.30752883  0.79537813  1  0  -0.633065  0  2.020096  0  0  -0.59122  0  2.251569  0  0  -0.615424  0  2.24258  0  0  -0.362377  -0.574774  0  2.25699  0
O  O33  1  0.15514044  0.80753625  0.70459855  1  0  -0.633131  0  2.020193  0  0  -0.591222  0  2.25178  0  0  -0.614934  0  2.243378  0  0  -0.362349  -0.57473  0  2.257224  0
O  O34  1  0.65502148  0.69247839  0.20453996  1  0  -0.633171  0  2.01969  0  0  -0.591345  0  2.251171  0  0  -0.615573  0  2.242187  0  0  -0.362411  -0.574881  0  2.256585  0
O  O35  1  0.84496227  0.19244675  0.29546846  1  0  -0.633222  0  2.019728  0  0  -0.591356  0  2.251266  0  0  -0.617067  0  2.241811  0  0  -0.362403  -0.574892  0  2.256705  0
O  O36  1  0.38566880  0.09889058  0.73775256  1  0  -0.672163  0  2.065367  0  0  -0.625487  0  2.310512  0  0  -0.649554  0  2.299456  0  0  -0.395869  -0.608609  0  2.317507  0
O  O37  1  0.11436138  0.59892602  0.76222400  1  0  -0.672061  0  2.064192  0  0  -0.625274  0  2.30942  0  0  -0.649978  0  2.297581  0  0  -0.395837  -0.608416  0  2.316414  0
O  O38  1  0.61441431  0.90112573  0.26230155  1  0  -0.672324  0  2.064913  0  0  -0.625667  0  2.310081  0  0  -0.652161  0  2.297634  0  0  -0.395813  -0.608823  0  2.31707  0
O  O39  1  0.88555669  0.40107716  0.23771108  1  0  -0.672136  0  2.064984  0  0  -0.625411  0  2.310192  0  0  -0.650114  0  2.298384  0  0  -0.395728  -0.60854  0  2.317191  0
O  O40  1  0.38089491  0.58650279  0.88931028  1  0  -0.670628  0  2.042988  0  0  -0.61372  0  2.272879  0  0  -0.640644  0  2.262734  0  0  -0.349944  -0.595487  0  2.279054  0
O  O41  1  0.11911579  0.08647390  0.61068531  1  0  -0.670692  0  2.042763  0  0  -0.613746  0  2.272696  0  0  -0.640088  0  2.263082  0  0  -0.350011  -0.595469  0  2.278869  0
O  O42  1  0.61901846  0.41352361  0.11062642  1  0  -0.670801  0  2.042881  0  0  -0.613923  0  2.272953  0  0  -0.640867  0  2.262788  0  0  -0.350363  -0.595659  0  2.279123  0
O  O43  1  0.88098893  0.91350103  0.38941385  1  0  -0.670637  0  2.042876  0  0  -0.613822  0  2.272893  0  0  -0.642207  0  2.26238  0  0  -0.350241  -0.595589  0  2.279065  0
O  O44  1  0.60052689  0.62049731  0.96032849  1  0  -0.636262  0  2.054272  0  0  -0.589519  0  2.289085  0  0  -0.61375  0  2.279858  0  0  -0.357024  -0.573325  0  2.294963  0
O  O45  1  0.89946079  0.12051027  0.53967707  1  0  -0.636428  0  2.053971  0  0  -0.589653  0  2.288793  0  0  -0.615294  0  2.279186  0  0  -0.356988  -0.573476  0  2.294681  0
O  O46  1  0.39939745  0.37949881  0.03958020  1  0  -0.636205  0  2.05392  0  0  -0.589334  0  2.288879  0  0  -0.613559  0  2.279651  0  0  -0.357014  -0.573163  0  2.294764  0
O  O47  1  0.10062705  0.87948687  0.46038629  1  0  -0.636181  0  2.053539  0  0  -0.589361  0  2.288405  0  0  -0.612968  0  2.279631  0  0  -0.357094  -0.573166  0  2.294279  0
O  O48  1  0.31720209  0.99816694  0.93229912  1  0  -0.455481  0  2.083599  0  0  -0.408185  0  2.283797  0  0  -0.4283  0  2.269088  0  0  -0.295418  -0.39433  0  2.293628  0
O  O49  1  0.18279653  0.49816749  0.56764732  1  0  -0.455264  0  2.083728  0  0  -0.408014  0  2.283897  0  0  -0.42814  0  2.269292  0  0  -0.295136  -0.394156  0  2.293734  0
O  O50  1  0.68279058  0.00188671  0.06770944  1  0  -0.455261  0  2.083314  0  0  -0.407796  0  2.283362  0  0  -0.428027  0  2.268954  0  0  -0.29522  -0.393934  0  2.293179  0
O  O51  1  0.81720400  0.50186496  0.43231007  1  0  -0.45562  0  2.083275  0  0  -0.40823  0  2.283431  0  0  -0.428364  0  2.268843  0  0  -0.295401  -0.394356  0  2.293273  0
O  O52  1  0.21111128  0.19281054  0.93138865  1  0  -0.565912  0  2.017371  0  0  -0.524331  0  2.245328  0  0  -0.544962  0  2.235032  0  0  -0.322479  -0.510512  0  2.251765  0
O  O53  1  0.28890002  0.69276384  0.56856395  1  0  -0.565648  0  2.017171  0  0  -0.524062  0  2.24504  0  0  -0.544131  0  2.235324  0  0  -0.322414  -0.510214  0  2.251477  0
O  O54  1  0.78879737  0.80721485  0.06853879  1  0  -0.565654  0  2.017822  0  0  -0.524159  0  2.245777  0  0  -0.544791  0  2.235502  0  0  -0.322326  -0.510328  0  2.252219  0
O  O55  1  0.71119413  0.30723632  0.43148390  1  0  -0.565819  0  2.018221  0  0  -0.524225  0  2.246176  0  0  -0.546397  0  2.235462  0  0  -0.322323  -0.510395  0  2.252629  0
O  O56  1  0.83032417  0.46121790  0.96090819  1  0  -0.645868  0  2.001816  0  0  -0.603802  0  2.234416  0  0  -0.62695  0  2.222759  0  0  -0.387532  -0.588408  0  2.241812  0
O  O57  1  0.66969461  0.96117677  0.53910073  1  0  -0.645951  0  2.001346  0  0  -0.603846  0  2.23403  0  0  -0.62866  0  2.221774  0  0  -0.387566  -0.588473  0  2.241416  0
O  O58  1  0.16955100  0.53873887  0.03902378  1  0  -0.64588  0  2.001433  0  0  -0.603632  0  2.234331  0  0  -0.62677  0  2.222685  0  0  -0.387697  -0.588257  0  2.241714  0
O  O59  1  0.33044199  0.03871439  0.46096602  1  0  -0.646225  0  2.001297  0  0  -0.604001  0  2.234176  0  0  -0.62638  0  2.223133  0  0  -0.387794  -0.5886  0  2.241572  0
O  O60  1  0.98789570  0.39695568  0.87832262  1  0  -0.65229  0  2.019566  0  0  -0.607206  0  2.255406  0  0  -0.630957  0  2.243238  0  0  -0.384119  -0.590608  0  2.262633  0
O  O61  1  0.51213247  0.89689755  0.62167383  1  0  -0.652042  0  2.019767  0  0  -0.606898  0  2.255601  0  0  -0.629939  0  2.243886  0  0  -0.384016  -0.59028  0  2.262823  0
O  O62  1  0.01197044  0.60303540  0.12160597  1  0  -0.652192  0  2.019519  0  0  -0.607018  0  2.255554  0  0  -0.630773  0  2.243388  0  0  -0.384209  -0.590402  0  2.262778  0
O  O63  1  0.48803369  0.10307536  0.37844031  1  0  -0.652678  0  2.019584  0  0  -0.607515  0  2.255636  0  0  -0.632721  0  2.242986  0  0  -0.384568  -0.59092  0  2.262866  0
O  O64  1  0.07654095  0.33330564  0.68991651  1  0  -0.891526  0  1.923411  0  0  -0.835116  0  2.118633  0  0  -0.856411  0  2.088899  0  0  -0.583737  -0.820448  0  2.138853  0
O  O65  1  0.42346012  0.83322365  0.81004830  1  0  -0.89166  0  1.923758  0  0  -0.835193  0  2.119165  0  0  -0.85594  0  2.090008  0  0  -0.584087  -0.820546  0  2.139316  0
O  O66  1  0.92341888  0.66673893  0.31004069  1  0  -0.89132  0  1.923933  0  0  -0.835022  0  2.119068  0  0  -0.856267  0  2.089436  0  0  -0.583778  -0.820376  0  2.139227  0
O  O67  1  0.57658418  0.16676843  0.19000514  1  0  -0.891273  0  1.923875  0  0  -0.834997  0  2.118995  0  0  -0.857552  0  2.088943  0  0  -0.583701  -0.820334  0  2.139199  0
