# generated using pymatgen
data_Al2H13C24N(O5F)2
_symmetry_space_group_name_H-M   'P 1'
_cell_length_a   6.66706494
_cell_length_b   11.11703458
_cell_length_c   17.96235607
_cell_angle_alpha   83.00166257
_cell_angle_beta   77.61535667
_cell_angle_gamma   73.04669067
_symmetry_Int_Tables_number   1
_chemical_formula_structural   Al2H13C24N(O5F)2
_chemical_formula_sum   'Al2 H13 C24 N1 O10 F2'
_cell_volume   1241.33536259
_cell_formula_units_Z   1
loop_
 _symmetry_equiv_pos_site_id
 _symmetry_equiv_pos_as_xyz
  1  'x, y, z'
loop_
 _atom_site_type_symbol
 _atom_site_label
 _atom_site_symmetry_multiplicity
 _atom_site_fract_x
 _atom_site_fract_y
 _atom_site_fract_z
 _atom_site_occupancy
 _atom_site_pbe_bader_charge
 _atom_site_pbe_bader_spin_density
 _atom_site_pbe_cm5_charge
 _atom_site_pbe_ddec_charge
 _atom_site_pbe_ddec_spin_density
 _atom_site_pbe_ddec_sum_bond_order
 _atom_site_pbe_magmom
Al  Al0  1  0.49369039  0.50214520  0.50222510  1  2.501456  0  0.39995  1.641105  0  2.582041  0
Al  Al1  1  0.99518440  0.49710379  0.50316514  1  2.504511  0  0.396358  1.640724  0  2.587386  0
H  H2  1  0.26386102  0.56410072  0.40996461  1  0.642326  0  0.346529  0.423419  0  0.870879  0
H  H3  1  0.77738296  0.35669092  0.55800299  1  0.634228  0  0.355512  0.433575  0  0.848309  0
H  H4  1  0.11239555  0.10780722  0.54066154  1  0.106154  0  0.100019  0.106378  0  1.019677  0
H  H5  1  0.76080995  0.12688382  0.46781422  1  0.09933  0  0.107614  0.120696  0  1.00452  0
H  H6  1  0.24328441  0.87149319  0.54285921  1  0.113184  0  0.106865  0.108325  0  1.017106  0
H  H7  1  0.59890452  0.44163647  0.27476334  1  0.120501  0  0.111596  0.117643  0  0.999394  0
H  H8  1  0.66752960  0.43881890  0.13293742  1  0.04186  0  0.106768  0.112512  0  0.995321  0
H  H9  1  0.24032679  0.55441730  0.12155267  1  0.095989  0  0.114613  0.139558  0  0.98513  0
H  H10  1  0.76733292  0.45205766  0.88579465  1  0.08938  0  0.114019  0.138403  0  0.985936  0
H  H11  1  0.40658583  0.55542604  0.72378070  1  0.11957  0  0.11555  0.127064  0  0.993183  0
H  H12  1  0.35377807  0.55738023  0.86543004  1  0.077843  0  0.104754  0.109761  0  1.001424  0
H  H13  1  0.99716317  0.78829114  0.47069871  1  0.54182  0  0.309589  0.32234  0  0.975085  0
H  H14  1  0.03970530  0.93822947  0.45176449  1  0.433205  0  0.307672  0.302816  0  0.957238  0
C  C15  1  0.83162223  0.49484006  0.36361485  1  1.568802  0  0.267494  0.662926  0  4.098239  0
C  C16  1  0.63263931  0.72732968  0.50457836  1  1.509659  0  0.263266  0.649863  0  4.088842  0
C  C17  1  0.15956240  0.50737899  0.63969371  1  1.571166  0  0.26827  0.654393  0  4.107164  0
C  C18  1  0.35995394  0.27036629  0.50280736  1  1.591516  0  0.267387  0.644885  0  4.082243  0
C  C19  1  0.57200353  0.86590477  0.50490590  1  -0.009403  0  -0.030257  -0.172343  0  3.930725  0
C  C20  1  0.43159624  0.12998149  0.50296104  1  -0.051704  0  -0.016247  -0.014163  0  4.020754  0
C  C21  1  0.72545460  0.93692256  0.48379684  1  0.469356  0  0.116156  0.312446  0  4.06961  0
C  C22  1  0.28113158  0.05946878  0.52423855  1  -0.060455  0  -0.112602  -0.159026  0  4.045584  0
C  C23  1  0.64803055  0.06984858  0.48368151  1  0.001919  0  -0.09712  -0.220057  0  3.919215  0
C  C24  1  0.35400821  0.92941447  0.52529930  1  -0.061194  0  -0.08936  -0.083657  0  4.047261  0
C  C25  1  0.88038721  0.49482827  0.27855873  1  0.056654  0  -0.020319  -0.15633  0  3.953413  0
C  C26  1  0.74004477  0.46458399  0.24022285  1  0.021713  0  -0.073923  -0.05702  0  3.987034  0
C  C27  1  0.77751334  0.46373644  0.16129853  1  0.005051  0  -0.08709  -0.147013  0  3.949716  0
C  C28  1  0.95870736  0.49605705  0.11675494  1  0.078632  0  0.007251  0.174355  0  4.1199  0
C  C29  1  0.10065925  0.52733750  0.15404155  1  0.054963  0  -0.093775  -0.261568  0  3.935274  0
C  C30  1  0.06034438  0.52555710  0.23305363  1  0.42958  0  0.110472  0.288739  0  4.038496  0
C  C31  1  0.99632177  0.49869635  0.03612323  1  -0.609206  0  -0.04088  -0.103403  0  4.096913  0
C  C32  1  0.02571232  0.50216550  0.96652849  1  0.241647  0  -0.037241  -0.094982  0  4.095244  0
C  C33  1  0.05682406  0.50525110  0.88598218  1  0.092446  0  0.00677  0.170873  0  4.125032  0
C  C34  1  0.90674036  0.47703048  0.85132778  1  0.05723  0  -0.094128  -0.261169  0  3.938143  0
C  C35  1  0.93822033  0.47939524  0.77238131  1  0.384719  0  0.111871  0.288376  0  4.047794  0
C  C36  1  0.11702958  0.50792078  0.72464699  1  0.10997  0  -0.01815  -0.15424  0  3.949422  0
C  C37  1  0.26573611  0.53516925  0.76037141  1  0.006868  0  -0.070804  -0.056265  0  3.972024  0
C  C38  1  0.23730157  0.53508439  0.83912211  1  -0.050463  0  -0.087077  -0.14655  0  3.953433  0
N  N39  1  0.93843725  0.88321926  0.46245751  1  -1.314527  0  -0.583989  -0.604415  0  3.353475  0
O  O40  1  0.63831492  0.50279907  0.39574865  1  -1.252878  0  -0.236475  -0.595871  0  2.325544  0
O  O41  1  0.83086891  0.66847070  0.49996750  1  -1.26153  0  -0.234852  -0.594907  0  2.383833  0
O  O42  1  0.00709666  0.51025833  0.60696767  1  -1.244199  0  -0.231748  -0.583239  0  2.359009  0
O  O43  1  0.50316023  0.32704276  0.49913141  1  -1.266846  0  -0.240103  -0.606762  0  2.356703  0
O  O44  1  0.34971016  0.50353080  0.60615937  1  -1.257721  0  -0.230498  -0.580862  0  2.350267  0
O  O45  1  0.16046034  0.32320855  0.50722653  1  -1.26734  0  -0.239004  -0.602198  0  2.339595  0
O  O46  1  0.98489098  0.48718821  0.39718215  1  -1.249002  0  -0.238806  -0.602957  0  2.369217  0
O  O47  1  0.48600321  0.67347527  0.50741873  1  -1.263726  0  -0.238209  -0.589898  0  2.336568  0
O  O48  1  0.23822482  0.55423792  0.46542581  1  -1.447181  0  -0.44832  -0.984429  0  2.174974  0
O  O49  1  0.75217312  0.44227414  0.53558707  1  -1.437208  0  -0.447602  -0.989597  0  2.205548  0
F  F50  1  0.20219607  0.55909461  0.26507902  1  -0.636644  0  -0.090979  -0.138066  0  1.360247  0
F  F51  1  0.78942953  0.44914710  0.74280927  1  -0.632021  0  -0.086787  -0.13019  0  1.369521  0
