# generated using pymatgen
data_ZnH6C16Br2NO4
_symmetry_space_group_name_H-M   'P 1'
_cell_length_a   14.44279201
_cell_length_b   13.99469210
_cell_length_c   15.34340771
_cell_angle_alpha   89.99770803
_cell_angle_beta   90.24841506
_cell_angle_gamma   90.00055647
_symmetry_Int_Tables_number   1
_chemical_formula_structural   ZnH6C16Br2NO4
_chemical_formula_sum   'Zn2 H12 C32 Br4 N2 O8'
_cell_volume   3101.21765690
_cell_formula_units_Z   2
loop_
 _symmetry_equiv_pos_site_id
 _symmetry_equiv_pos_as_xyz
  1  'x, y, z'
loop_
 _atom_site_type_symbol
 _atom_site_label
 _atom_site_symmetry_multiplicity
 _atom_site_fract_x
 _atom_site_fract_y
 _atom_site_fract_z
 _atom_site_occupancy
 _atom_site_pbe_bader_charge
 _atom_site_pbe_bader_spin_density
 _atom_site_pbe_cm5_charge
 _atom_site_pbe_ddec_charge
 _atom_site_pbe_ddec_spin_density
 _atom_site_pbe_ddec_sum_bond_order
 _atom_site_pbe_magmom
Zn  Zn0  1  0.49999960  0.39836606  0.50000049  1  1.260884  0  0.673324  0.830902  0  2.392484  0
Zn  Zn1  1  0.50000192  0.60186678  0.50000180  1  1.266467  0  0.672977  0.830557  0  2.39796  0
H  H2  1  0.37427855  0.93179355  0.42270126  1  0.085788  0  0.118269  0.124652  0  0.984567  0
H  H3  1  0.55300158  0.06824342  0.63212229  1  0.085393  0  0.118085  0.123847  0  0.98511  0
H  H4  1  0.62572897  0.93179162  0.57729033  1  0.085675  0  0.118261  0.124611  0  0.984469  0
H  H5  1  0.44700357  0.06825409  0.36786921  1  0.085366  0  0.118043  0.123839  0  0.985132  0
H  H6  1  0.37981744  0.75292355  0.42611700  1  0.15535  0  0.130429  0.108126  0  0.976566  0
H  H7  1  0.55046006  0.24724854  0.62629028  1  0.155523  0  0.13204  0.112939  0  0.972521  0
H  H8  1  0.62018707  0.75292099  0.57388016  1  0.155212  0  0.130444  0.108088  0  0.976572  0
H  H9  1  0.44953843  0.24725827  0.37370477  1  0.155364  0  0.132012  0.112848  0  0.972559  0
H  H10  1  0.63901595  0.44375524  0.06049187  1  0.094179  0  0.106283  0.122342  0  0.99904  0
H  H11  1  0.63933379  0.55699347  0.94066543  1  0.096593  0  0.106437  0.123224  0  0.997462  0
H  H12  1  0.36094836  0.44378344  0.93951185  1  0.093832  0  0.106341  0.122497  0  0.998773  0
H  H13  1  0.36066203  0.55704108  0.05934378  1  0.096396  0  0.106443  0.123136  0  0.997577  0
C  C14  1  0.49869313  0.49702767  0.33120422  1  1.603321  0  0.206439  0.605381  0  4.222234  0
C  C15  1  0.50130144  0.49700924  0.66880078  1  1.604776  0  0.206646  0.605709  0  4.22152  0
C  C16  1  0.32054855  0.50364578  0.49953847  1  1.74806  0  0.215172  0.644739  0  4.273566  0
C  C17  1  0.67945229  0.50364116  0.50045652  1  1.748161  0  0.215164  0.644838  0  4.273373  0
C  C18  1  0.43073315  0.89542506  0.45634971  1  -0.061534  0  -0.07289  -0.17073  0  3.935235  0
C  C19  1  0.53025975  0.10462261  0.57302147  1  -0.032894  0  -0.073501  -0.171812  0  3.937136  0
C  C20  1  0.56927681  0.89542324  0.54363873  1  -0.061266  0  -0.072797  -0.170492  0  3.935082  0
C  C21  1  0.46974090  0.10462819  0.42697254  1  -0.032119  0  -0.073491  -0.171928  0  3.937275  0
C  C22  1  0.43282160  0.79620885  0.45806662  1  0.525968  0  0.066376  0.114008  0  3.901169  0
C  C23  1  0.52892004  0.20383312  0.57074904  1  0.530731  0  0.066335  0.112035  0  3.900154  0
C  C24  1  0.56718538  0.79620779  0.54192757  1  0.526027  0  0.066364  0.113973  0  3.901114  0
C  C25  1  0.47107874  0.20383720  0.42924442  1  0.530734  0  0.066307  0.112146  0  3.900238  0
C  C26  1  0.22059139  0.50263703  0.49967525  1  0.075535  0  -0.01369  -0.128672  0  3.849839  0
C  C27  1  0.77941082  0.50263129  0.50031521  1  0.075622  0  -0.013776  -0.128777  0  3.849799  0
C  C28  1  0.13559399  0.50155404  0.49981270  1  -0.220741  0  -0.024306  0.006385  0  4.274729  0
C  C29  1  0.86440959  0.50154417  0.50017651  1  -0.220782  0  -0.024201  0.00643  0  4.274863  0
C  C30  1  0.04274351  0.50090546  0.49994829  1  0.060663  0  -0.011213  -0.010683  0  4.212641  0
C  C31  1  0.95725799  0.50089868  0.50004354  1  -0.171669  0  -0.011  -0.010327  0  4.212764  0
C  C32  1  0.50000556  0.94723915  0.49999322  1  0.04416  0  0.018426  0.106653  0  3.98576  0
C  C33  1  0.50000355  0.05275574  0.49999671  1  -0.142638  0  0.019052  0.107939  0  3.985894  0
C  C34  1  0.57799266  0.46913812  0.09491847  1  0.111883  0  -0.099099  -0.196512  0  3.972398  0
C  C35  1  0.57858987  0.53080753  0.90578756  1  0.109658  0  -0.099063  -0.197604  0  3.972453  0
C  C36  1  0.42198573  0.46914551  0.90508821  1  0.111385  0  -0.099261  -0.196921  0  3.97289  0
C  C37  1  0.42140363  0.53084574  0.09422135  1  0.110815  0  -0.09908  -0.19745  0  3.973028  0
C  C38  1  0.57651164  0.46787718  0.18562911  1  -0.187275  0  -0.011292  0.107145  0  3.964104  0
C  C39  1  0.57789262  0.52959681  0.81507324  1  -0.175882  0  -0.011763  0.107622  0  3.961894  0
C  C40  1  0.42347297  0.46787978  0.81437763  1  -0.187081  0  -0.011296  0.107224  0  3.964096  0
C  C41  1  0.42211542  0.52965841  0.18493901  1  -0.175834  0  -0.011798  0.107628  0  3.961695  0
C  C42  1  0.49901443  0.49808226  0.23289415  1  0.113222  0  -0.022694  -0.11439  0  3.939217  0
C  C43  1  0.50098292  0.49805617  0.76711147  1  0.114037  0  -0.022678  -0.114259  0  3.939053  0
C  C44  1  0.49988799  0.50044271  0.04824450  1  0.0106  0  -0.003433  0.101408  0  3.996156  0
C  C45  1  0.50008861  0.50043752  0.95176424  1  -0.11828  0  -0.003415  0.101368  0  3.996009  0
Br  Br46  1  0.68326731  0.42338531  0.24650067  1  -0.04721  0  0.021904  -0.053648  0  1.356978  0
Br  Br47  1  0.68567253  0.57188678  0.75501908  1  -0.058601  0  0.018927  -0.060531  0  1.358333  0
Br  Br48  1  0.31671065  0.42340864  0.75350386  1  -0.04738  0  0.021866  -0.053711  0  1.356779  0
Br  Br49  1  0.31438782  0.57207412  0.24499427  1  -0.058233  0  0.018904  -0.060538  0  1.358356  0
N  N50  1  0.50000327  0.74766492  0.49999835  1  -1.211825  0  -0.315795  -0.193653  0  3.507513  0
N  N51  1  0.49999823  0.25244859  0.49999807  1  -1.230706  0  -0.315988  -0.19397  0  3.507795  0
O  O52  1  0.48031540  0.41767818  0.36722186  1  -1.160337  0  -0.310062  -0.5425  0  2.323621  0
O  O53  1  0.48302862  0.57555827  0.63158535  1  -1.157692  0  -0.311256  -0.535144  0  2.312255  0
O  O54  1  0.51967497  0.41766357  0.63278032  1  -1.160684  0  -0.310273  -0.542764  0  2.32342  0
O  O55  1  0.51697636  0.57557320  0.36841992  1  -1.156694  0  -0.311251  -0.535111  0  2.312382  0
O  O56  1  0.36033425  0.42457280  0.51616146  1  -1.133032  0  -0.309266  -0.535234  0  2.285376  0
O  O57  1  0.64108958  0.58351304  0.51713259  1  -1.142091  0  -0.309187  -0.540793  0  2.292994  0
O  O58  1  0.63966380  0.42456704  0.48383851  1  -1.13295  0  -0.309271  -0.535293  0  2.285312  0
O  O59  1  0.35891546  0.58351660  0.48286520  1  -1.141947  0  -0.309183  -0.540789  0  2.293163  0
