# generated using pymatgen
data_Zr3H26C30(N3O8)2
_symmetry_space_group_name_H-M   'P 1'
_cell_length_a   14.89978196
_cell_length_b   14.89033643
_cell_length_c   14.88575191
_cell_angle_alpha   60.07342444
_cell_angle_beta   60.09195372
_cell_angle_gamma   60.06229808
_symmetry_Int_Tables_number   1
_chemical_formula_structural   Zr3H26C30(N3O8)2
_chemical_formula_sum   'Zr6 H52 C60 N12 O32'
_cell_volume   2339.30267604
_cell_formula_units_Z   2
loop_
 _symmetry_equiv_pos_site_id
 _symmetry_equiv_pos_as_xyz
  1  'x, y, z'
loop_
 _atom_site_type_symbol
 _atom_site_label
 _atom_site_symmetry_multiplicity
 _atom_site_fract_x
 _atom_site_fract_y
 _atom_site_fract_z
 _atom_site_occupancy
 _atom_site_pbe_bader_charge
 _atom_site_pbe_bader_spin_density
 _atom_site_pbe_cm5_charge
 _atom_site_pbe_ddec_charge
 _atom_site_pbe_ddec_spin_density
 _atom_site_pbe_ddec_sum_bond_order
 _atom_site_pbe_magmom
Zr  Zr0  1  0.88106319  0.38229495  0.61895996  1  2.626558  0  1.626819  2.361309  0  2.771624  0
Zr  Zr1  1  0.11866219  0.61792025  0.38055503  1  2.631103  0  1.626164  2.359125  0  2.774789  0
Zr  Zr2  1  0.11900041  0.38454911  0.61685925  1  2.62811  0  1.633431  2.354764  0  2.813709  0
Zr  Zr3  1  0.88301071  0.61966202  0.37931418  1  2.635678  0  1.621448  2.366564  0  2.729531  0
Zr  Zr4  1  0.88182812  0.61677657  0.62010350  1  2.631094  0  1.628276  2.360774  0  2.775732  0
Zr  Zr5  1  0.11750274  0.37788934  0.38530292  1  2.631921  0  1.626717  2.361089  0  2.769915  0
H  H6  1  0.90664626  0.40877538  0.78048445  1  0.614648  0  0.333798  0.425862  0  0.856027  0
H  H7  1  0.90844144  0.77989021  0.40459652  1  0.621611  0  0.331215  0.422131  0  0.861127  0
H  H8  1  0.27986351  0.40605208  0.40692157  1  0.599207  0  0.332314  0.42416  0  0.857709  0
H  H9  1  0.90606632  0.40582811  0.40825676  1  0.618147  0  0.332373  0.423505  0  0.857241  0
H  H10  1  0.53684895  0.74968417  0.87181730  1  0.034159  0  0.085916  0.088566  0  1.025007  0
H  H11  1  0.61978535  0.66570333  0.95832482  1  0.028584  0  0.088472  0.093275  0  1.028156  0
H  H12  1  0.45032647  0.66500081  0.12490673  1  0.001836  0  0.084903  0.087297  0  1.017376  0
H  H13  1  0.36655266  0.75150570  0.03898503  1  0.065108  0  0.084721  0.095322  0  1.030104  0
H  H14  1  0.24281526  0.05196122  0.32918035  1  0.025002  0  0.085491  0.089159  0  1.037018  0
H  H15  1  0.15344624  0.12962235  0.24980079  1  0.055809  0  0.084527  0.094224  0  1.022242  0
H  H16  1  0.16188015  0.95440217  0.25484805  1  0.016111  0  0.082966  0.085147  0  1.02217  0
H  H17  1  0.25003034  0.87618383  0.33611489  1  0.068408  0  0.084122  0.093446  0  1.024762  0
H  H18  1  0.54049821  0.87168002  0.34112840  1  0.022671  0  0.08946  0.094032  0  1.01715  0
H  H19  1  0.62584834  0.95557949  0.25608495  1  0.052192  0  0.089359  0.093923  0  1.031303  0
H  H20  1  0.45827809  0.12499845  0.25725981  1  0.024879  0  0.086821  0.089767  0  1.017599  0
H  H21  1  0.37311496  0.04089813  0.33798482  1  0.036709  0  0.090187  0.097106  0  1.031378  0
H  H22  1  0.82983926  0.74314584  0.05463634  1  0.043733  0  0.086698  0.09104  0  1.037895  0
H  H23  1  0.74988493  0.65498526  0.12748481  1  0.065038  0  0.083928  0.092267  0  1.021842  0
H  H24  1  0.75857623  0.66894566  0.94784276  1  0.026807  0  0.084237  0.086371  0  1.034282  0
H  H25  1  0.84223729  0.75372487  0.87464210  1  0.059125  0  0.084769  0.094824  0  1.022568  0
H  H26  1  0.83801901  0.04859566  0.86995049  1  0.014637  0  0.086323  0.090525  0  1.019586  0
H  H27  1  0.75297273  0.12879646  0.95929760  1  0.055714  0  0.083806  0.092598  0  1.024377  0
H  H28  1  0.75743913  0.95363102  0.12272600  1  0.030419  0  0.087272  0.090432  0  1.034108  0
H  H29  1  0.84188038  0.87583248  0.03172782  1  0.028392  0  0.090682  0.097216  0  1.027647  0
H  H30  1  0.54527196  0.33640789  0.74689615  1  0.019169  0  0.084823  0.088006  0  1.024736  0
H  H31  1  0.62707322  0.25292183  0.66076673  1  0.059686  0  0.083753  0.092877  0  1.025103  0
H  H32  1  0.45520865  0.25633102  0.66384025  1  -0.001528  0  0.082138  0.082891  0  1.023722  0
H  H33  1  0.37344066  0.33892156  0.75094577  1  0.07519  0  0.084453  0.094859  0  1.026205  0
H  H34  1  0.35047252  0.32511388  0.16181750  1  0.483225  0  0.295932  0.2994  0  1.002044  0
H  H35  1  0.47156310  0.25547128  0.08306234  1  0.432711  0  0.296723  0.278378  0  0.977488  0
H  H36  1  0.64663202  0.34066640  0.83500722  1  0.481164  0  0.299441  0.302959  0  0.996908  0
H  H37  1  0.52813067  0.30802932  0.91744882  1  0.420016  0  0.297998  0.278992  0  0.977377  0
H  H38  1  0.83327554  0.84281228  0.66469912  1  0.483317  0  0.296461  0.298751  0  1.00384  0
H  H39  1  0.75542008  0.96676974  0.68419784  1  0.425637  0  0.294991  0.27856  0  0.972827  0
H  H40  1  0.83901042  0.14485750  0.67868421  1  0.48979  0  0.299412  0.303467  0  0.995056  0
H  H41  1  0.80609756  0.02605622  0.74311916  1  0.433532  0  0.298769  0.281257  0  0.977217  0
H  H42  1  0.35125619  0.16170738  0.66192325  1  0.487467  0  0.295459  0.298424  0  1.002803  0
H  H43  1  0.47179863  0.08403508  0.68973725  1  0.414322  0  0.295074  0.276907  0  0.97856  0
H  H44  1  0.64495154  0.83290011  0.68057148  1  0.482021  0  0.297844  0.302216  0  0.994967  0
H  H45  1  0.52713970  0.91688987  0.74735264  1  0.422245  0  0.295316  0.276666  0  0.981489  0
H  H46  1  0.16515924  0.33235625  0.84494929  1  0.477888  0  0.295148  0.296552  0  1.005321  0
H  H47  1  0.18719650  0.25721419  0.96849339  1  0.415115  0  0.295481  0.279555  0  0.973589  0
H  H48  1  0.17466318  0.33835966  0.14937361  1  0.487554  0  0.296873  0.299493  0  0.999496  0
H  H49  1  0.24519665  0.31129254  0.02803894  1  0.422959  0  0.295273  0.279088  0  0.977116  0
H  H50  1  0.16570105  0.84828354  0.15904282  1  0.484598  0  0.299824  0.306371  0  0.989297  0
H  H51  1  0.19689575  0.96817192  0.07594012  1  0.424385  0  0.297395  0.278847  0  0.97855  0
H  H52  1  0.17585469  0.14806693  0.83530518  1  0.469113  0  0.292033  0.294679  0  1.009265  0
H  H53  1  0.25014014  0.02587390  0.90584878  1  0.413123  0  0.292394  0.276944  0  0.976387  0
H  H54  1  0.34755179  0.66467355  0.32917281  1  0.479979  0  0.29859  0.302076  0  1.000491  0
H  H55  1  0.46963654  0.69070406  0.25694105  1  0.42994  0  0.299173  0.280703  0  0.972636  0
H  H56  1  0.64821654  0.67720675  0.33964866  1  0.481974  0  0.301131  0.305128  0  0.993474  0
H  H57  1  0.52909703  0.74498122  0.30755780  1  0.415647  0  0.29968  0.280721  0  0.976493  0
C  C58  1  0.69293824  0.50137913  0.80122749  1  1.492588  0  0.233064  0.655679  0  4.083942  0
C  C59  1  0.00266977  0.79928773  0.50351224  1  1.512588  0  0.23423  0.658339  0  4.075922  0
C  C60  1  0.29958742  0.49878028  0.19475197  1  1.495468  0  0.234099  0.658218  0  4.079552  0
C  C61  1  0.99922704  0.19352459  0.50609083  1  1.492397  0  0.234527  0.658113  0  4.076577  0
C  C62  1  0.00430767  0.19702739  0.80160066  1  1.503106  0  0.234305  0.658904  0  4.076223  0
C  C63  1  0.69446670  0.50530406  0.50112973  1  1.515163  0  0.233256  0.657671  0  4.078686  0
C  C64  1  0.00643268  0.79974603  0.19160434  1  1.488243  0  0.233664  0.656379  0  4.080087  0
C  C65  1  0.30167283  0.50460971  0.50017162  1  1.495388  0  0.232818  0.655234  0  4.082431  0
C  C66  1  0.00590854  0.50400530  0.79889526  1  1.502207  0  0.234294  0.657497  0  4.080381  0
C  C67  1  0.30038994  0.19283744  0.50676938  1  1.489145  0  0.233374  0.656881  0  4.082663  0
C  C68  1  0.00312633  0.49827416  0.19679497  1  1.491782  0  0.234788  0.659707  0  4.073526  0
C  C69  1  0.69512735  0.80032042  0.50517154  1  1.515881  0  0.234629  0.658843  0  4.079945  0
C  C70  1  0.59386858  0.49766899  0.89997082  1  0.060879  0  -0.02905  -0.19719  0  3.971655  0
C  C71  1  0.39704929  0.49747106  0.09432781  1  0.011687  0  -0.029406  -0.196717  0  3.977638  0
C  C72  1  0.54115004  0.57691284  0.95155256  1  -0.016034  0  -0.023516  0.04193  0  3.963191  0
C  C73  1  0.44900418  0.41445190  0.04612520  1  0.445991  0  0.098171  0.190189  0  3.992661  0
C  C74  1  0.44711196  0.57771146  0.04279844  1  -0.023095  0  -0.023057  0.043994  0  3.956761  0
C  C75  1  0.54458646  0.41594420  0.94872454  1  0.380068  0  0.10101  0.194913  0  3.995021  0
C  C76  1  0.54701169  0.67826320  0.94595340  1  -0.023722  0  -0.157838  -0.188772  0  3.89869  0
C  C77  1  0.43972516  0.67910611  0.05034758  1  -0.003872  0  -0.160531  -0.188107  0  3.89107  0
C  C78  1  0.99464111  0.09694675  0.50608153  1  0.022824  0  -0.031159  -0.202664  0  3.972734  0
C  C79  1  0.99857126  0.89851315  0.50727739  1  -0.023001  0  -0.02878  -0.195878  0  3.975007  0
C  C80  1  0.07301513  0.04690235  0.42558911  1  -0.050194  0  -0.021846  0.047131  0  3.950665  0
C  C81  1  0.91487057  0.94929776  0.58726391  1  0.446631  0  0.098399  0.187415  0  3.98708  0
C  C82  1  0.07606793  0.95172571  0.42739736  1  0.003862  0  -0.025334  0.038671  0  3.960359  0
C  C83  1  0.91437612  0.04583875  0.58811037  1  0.458128  0  0.103084  0.199771  0  3.997541  0
C  C84  1  0.17091557  0.05716928  0.32103879  1  -0.022265  0  -0.160234  -0.1915  0  3.890862  0
C  C85  1  0.17586365  0.94706849  0.32447207  1  -0.027957  0  -0.160658  -0.186478  0  3.892859  0
C  C86  1  0.59641199  0.89967142  0.50873222  1  -0.014478  0  -0.028578  -0.196476  0  3.973651  0
C  C87  1  0.39947150  0.09384530  0.51023985  1  -0.000254  0  -0.02828  -0.195356  0  3.974073  0
C  C88  1  0.54512147  0.95140007  0.42958797  1  0.032674  0  -0.022148  0.044555  0  3.963089  0
C  C89  1  0.45069272  0.04584874  0.59016110  1  0.382614  0  0.096754  0.188576  0  3.987425  0
C  C90  1  0.45124215  0.04288829  0.43078019  1  0.006297  0  -0.022396  0.044763  0  3.959877  0
C  C91  1  0.54625567  0.94858844  0.59101497  1  0.432674  0  0.099137  0.193546  0  3.992579  0
C  C92  1  0.55212342  0.94522298  0.32776097  1  -0.001291  0  -0.156177  -0.188489  0  3.895733  0
C  C93  1  0.44612730  0.05085616  0.32790956  1  -0.014251  0  -0.156003  -0.189632  0  3.897795  0
C  C94  1  0.00509425  0.49460195  0.09867417  1  0.068347  0  -0.030735  -0.201746  0  3.976273  0
C  C95  1  0.00951319  0.50047700  0.89777838  1  0.025329  0  -0.029351  -0.197518  0  3.979475  0
C  C96  1  0.92588529  0.57393515  0.04732664  1  -0.107158  0  -0.022586  0.045662  0  3.956548  0
C  C97  1  0.08869643  0.41622700  0.94946379  1  0.385887  0  0.099553  0.190565  0  3.989563  0
C  C98  1  0.92943795  0.57825129  0.95074897  1  0.031271  0  -0.024867  0.040219  0  3.958444  0
C  C99  1  0.08821840  0.41497599  0.04702812  1  0.446675  0  0.100781  0.195118  0  3.993394  0
C  C100  1  0.82201228  0.67258000  0.05674389  1  -0.034535  0  -0.159513  -0.190229  0  3.893626  0
C  C101  1  0.82810281  0.67971854  0.94445979  1  -0.029523  0  -0.159744  -0.188932  0  3.893055  0
C  C102  1  0.00722435  0.09840128  0.90101284  1  -0.007552  0  -0.029635  -0.196469  0  3.981513  0
C  C103  1  0.00965824  0.89902139  0.09299427  1  0.037114  0  -0.029151  -0.197736  0  3.966509  0
C  C104  1  0.92749530  0.04790832  0.95231543  1  0.001582  0  -0.023834  0.041009  0  3.964517  0
C  C105  1  0.09009345  0.94972521  0.04523087  1  0.413025  0  0.10132  0.195405  0  3.995598  0
C  C106  1  0.92964628  0.95247347  0.04217298  1  -0.025463  0  -0.022037  0.044652  0  3.956298  0
C  C107  1  0.09049666  0.04637761  0.94881077  1  0.432956  0  0.097632  0.18899  0  3.986663  0
C  C108  1  0.82541532  0.05635507  0.94541505  1  -0.012724  0  -0.16058  -0.188385  0  3.894526  0
C  C109  1  0.82829941  0.94695368  0.04751135  1  0.002017  0  -0.155186  -0.189455  0  3.896863  0
C  C110  1  0.59678950  0.50724893  0.49671618  1  0.014192  0  -0.029839  -0.199554  0  3.974047  0
C  C111  1  0.39977167  0.50850704  0.49796121  1  -0.014057  0  -0.029396  -0.196122  0  3.974757  0
C  C112  1  0.54584192  0.42760674  0.57525453  1  -0.04843  0  -0.023974  0.044358  0  3.957666  0
C  C113  1  0.45060628  0.58865208  0.41511223  1  0.431814  0  0.099549  0.1911  0  3.994311  0
C  C114  1  0.45159716  0.42906100  0.57687852  1  0.032196  0  -0.024208  0.040027  0  3.957094  0
C  C115  1  0.54660654  0.58938382  0.41573341  1  0.430867  0  0.101698  0.195459  0  3.998886  0
C  C116  1  0.55403420  0.32480901  0.67522837  1  -0.017748  0  -0.16105  -0.189877  0  3.893662  0
C  C117  1  0.44567690  0.32701379  0.67777210  1  -0.012426  0  -0.16078  -0.186922  0  3.89201  0
N  N118  1  0.41073836  0.32869094  0.08693081  1  -1.247304  0  -0.604715  -0.613602  0  3.337857  0
N  N119  1  0.58631582  0.33078104  0.90980269  1  -1.224014  0  -0.598283  -0.607085  0  3.359291  0
N  N120  1  0.83133845  0.90850951  0.67172420  1  -1.227805  0  -0.601211  -0.607715  0  3.349588  0
N  N121  1  0.82990829  0.08539472  0.67172432  1  -1.262184  0  -0.59811  -0.607162  0  3.361635  0
N  N122  1  0.41120148  0.08663322  0.67398081  1  -1.231859  0  -0.60578  -0.61457  0  3.335265  0
N  N123  1  0.58687048  0.90915920  0.67468331  1  -1.234786  0  -0.605047  -0.613619  0  3.338874  0
N  N124  1  0.17286064  0.33227627  0.90927616  1  -1.210594  0  -0.600908  -0.605486  0  3.351908  0
N  N125  1  0.17139986  0.32995828  0.08730192  1  -1.233339  0  -0.599171  -0.602743  0  3.356182  0
N  N126  1  0.17444834  0.90921497  0.08464065  1  -1.231143  0  -0.596341  -0.605407  0  3.360467  0
N  N127  1  0.17530214  0.08592964  0.90879838  1  -1.208386  0  -0.609523  -0.615788  0  3.330756  0
N  N128  1  0.41060222  0.67270330  0.33111890  1  -1.232659  0  -0.598886  -0.60991  0  3.356458  0
N  N129  1  0.58727896  0.67222116  0.33103117  1  -1.224831  0  -0.596082  -0.604865  0  3.36144  0
O  O130  1  0.73643710  0.42607501  0.75787882  1  -1.18546  0  -0.364498  -0.631414  0  2.330595  0
O  O131  1  0.07782579  0.76272274  0.42497372  1  -1.179911  0  -0.349549  -0.610681  0  2.237025  0
O  O132  1  0.26216404  0.57494449  0.23373907  1  -1.174144  0  -0.349982  -0.609998  0  2.247792  0
O  O133  1  0.92441741  0.23609956  0.58202615  1  -1.189544  0  -0.363586  -0.633854  0  2.315035  0
O  O134  1  0.07907037  0.24067986  0.75914205  1  -1.190162  0  -0.365446  -0.631476  0  2.326753  0
O  O135  1  0.73709024  0.58113541  0.42642133  1  -1.190585  0  -0.363197  -0.630757  0  2.322273  0
O  O136  1  0.92911971  0.76172167  0.23082715  1  -1.173582  0  -0.348138  -0.612028  0  2.236301  0
O  O137  1  0.26480729  0.42631530  0.57551354  1  -1.180542  0  -0.352229  -0.612888  0  2.248092  0
O  O138  1  0.92657594  0.57793729  0.76300232  1  -1.18115  0  -0.350304  -0.609804  0  2.240684  0
O  O139  1  0.26188387  0.23061183  0.43019625  1  -1.171622  0  -0.347227  -0.610389  0  2.24216  0
O  O140  1  0.07787322  0.42230434  0.24048156  1  -1.187397  0  -0.364628  -0.631079  0  2.323097  0
O  O141  1  0.73739659  0.75642244  0.58140219  1  -1.191392  0  -0.365861  -0.633767  0  2.326665  0
O  O142  1  0.25844183  0.23704361  0.58094551  1  -1.193773  0  -0.362347  -0.63095  0  2.326638  0
O  O143  1  0.92753387  0.57604900  0.23453730  1  -1.17776  0  -0.352404  -0.612986  0  2.244043  0
O  O144  1  0.73425868  0.76369131  0.42695075  1  -1.175765  0  -0.344319  -0.607652  0  2.238254  0
O  O145  1  0.08243075  0.43037093  0.75389478  1  -1.192866  0  -0.367278  -0.633618  0  2.33488  0
O  O146  1  0.92783651  0.23479924  0.76305717  1  -1.177373  0  -0.348073  -0.608658  0  2.243591  0
O  O147  1  0.25834063  0.57962405  0.42486210  1  -1.187293  0  -0.362455  -0.631275  0  2.3234  0
O  O148  1  0.08162268  0.75651328  0.23505117  1  -1.189922  0  -0.365006  -0.635087  0  2.327189  0
O  O149  1  0.73293184  0.42832669  0.57789702  1  -1.184577  0  -0.351259  -0.612797  0  2.245573  0
O  O150  1  0.07686447  0.23141478  0.43062691  1  -1.171246  0  -0.354063  -0.614161  0  2.247855  0
O  O151  1  0.73193211  0.57750652  0.76374316  1  -1.176884  0  -0.348692  -0.613789  0  2.237227  0
O  O152  1  0.92849209  0.75500912  0.57946150  1  -1.189425  0  -0.364869  -0.629252  0  2.336406  0
O  O153  1  0.25814891  0.42192223  0.23905334  1  -1.182196  0  -0.361649  -0.631245  0  2.321249  0
O  O154  1  0.93264596  0.43262630  0.43469208  1  -1.24347  0  -0.693807  -1.066662  0  2.370113  0
O  O155  1  0.20027003  0.43244447  0.43344953  1  -1.2285  0  -0.700433  -1.074861  0  2.386023  0
O  O156  1  0.93386599  0.70020182  0.43209895  1  -1.249387  0  -0.693836  -1.068344  0  2.370539  0
O  O157  1  0.93291002  0.43446952  0.70080730  1  -1.242373  0  -0.699247  -1.07315  0  2.381854  0
O  O158  1  0.04954956  0.55055435  0.54834526  1  -1.196952  0  -0.797395  -1.144108  0  2.154667  0
O  O159  1  0.85332021  0.54958202  0.54840183  1  -1.193127  0  -0.789807  -1.144874  0  2.134728  0
O  O160  1  0.04970597  0.54745143  0.35260822  1  -1.192581  0  -0.789511  -1.144421  0  2.134491  0
O  O161  1  0.04893098  0.35162026  0.55120894  1  -1.195316  0  -0.796327  -1.145889  0  2.148909  0
