# generated using pymatgen
data_CuH16C18(NO3)2
_symmetry_space_group_name_H-M   'P 1'
_cell_length_a   9.83000504
_cell_length_b   10.06413996
_cell_length_c   11.06473149
_cell_angle_alpha   65.60723691
_cell_angle_beta   73.26340403
_cell_angle_gamma   68.32833133
_symmetry_Int_Tables_number   1
_chemical_formula_structural   CuH16C18(NO3)2
_chemical_formula_sum   'Cu2 H32 C36 N4 O12'
_cell_volume   914.51708726
_cell_formula_units_Z   2
loop_
 _symmetry_equiv_pos_site_id
 _symmetry_equiv_pos_as_xyz
  1  'x, y, z'
loop_
 _atom_site_type_symbol
 _atom_site_label
 _atom_site_symmetry_multiplicity
 _atom_site_fract_x
 _atom_site_fract_y
 _atom_site_fract_z
 _atom_site_occupancy
 _atom_site_hle17_ddec_charge
 _atom_site_hle17_ddec_spin_density
 _atom_site_hle17_ddec_sum_bond_order
 _atom_site_hle17_magmom
 _atom_site_hse06_10hf_ddec_charge
 _atom_site_hse06_10hf_ddec_spin_density
 _atom_site_hse06_10hf_ddec_sum_bond_order
 _atom_site_hse06_10hf_magmom
 _atom_site_hse06_ddec_charge
 _atom_site_hse06_ddec_spin_density
 _atom_site_hse06_ddec_sum_bond_order
 _atom_site_hse06_magmom
 _atom_site_pbe_cm5_charge
 _atom_site_pbe_ddec_charge
 _atom_site_pbe_ddec_spin_density
 _atom_site_pbe_ddec_sum_bond_order
 _atom_site_pbe_magmom
Cu  Cu0  1  0.74058728  0.21193267  0.95406519  1  0.874507  0.743982  1.780072  0.518  0.849835  0.820102  2.170681  0.635  0.940845  0.896501  2.103504  0.722  0.73961  0.794351  0.765277  2.216293  0.578
Cu  Cu1  1  0.25941400  0.78806694  0.04593654  1  0.874522  -0.743981  1.780038  -0.518  0.849817  -0.820112  2.170646  -0.635  0.9408  -0.896471  2.103432  -0.722  0.739593  0.794339  -0.765284  2.216304  -0.578
H  H2  1  0.02983007  0.64749816  0.80371865  1  0.123717  -0.000119  0.964545  0.0  0.13018  -0.000115  1.029262  0.0  0.133345  -8e-05  1.028216  0.0  0.106308  0.128111  -9.6e-05  1.029673  0.0
H  H3  1  0.97017205  0.35250268  0.19627158  1  0.123731  0.000119  0.964583  0.0  0.130183  0.000116  1.029308  0.0  0.13335  8e-05  1.02826  0.0  0.106304  0.128115  9.6e-05  1.029719  0.0
H  H4  1  0.28839280  0.41197986  0.85382400  1  0.136924  2.6e-05  0.969841  0.0  0.145212  2.3e-05  1.030513  0.0  0.149095  1.2e-05  1.028092  0.0  0.111819  0.142753  2.7e-05  1.031979  0.0
H  H5  1  0.71161043  0.58802103  0.14616142  1  0.136963  -2.6e-05  0.969793  0.0  0.145231  -2.3e-05  1.030495  0.0  0.149118  -1.2e-05  1.028071  0.0  0.111807  0.142773  -2.7e-05  1.031963  0.0
H  H6  1  0.55509749  0.39068520  0.12770127  1  0.115875  0.001097  0.942743  0.002  0.121075  0.000839  1.007596  0.002  0.124328  0.000624  1.004238  0.001  0.126799  0.11809  0.000959  1.010435  0.002
H  H7  1  0.44490595  0.60931447  0.87229630  1  0.115828  -0.001097  0.94279  -0.002  0.121049  -0.000839  1.007613  -0.002  0.1243  -0.000624  1.004256  -0.001  0.126789  0.118063  -0.000959  1.010454  -0.002
H  H8  1  0.96117794  0.02736952  0.37649780  1  0.102511  0.000594  0.965922  0.001  0.109959  0.000539  1.030416  0.001  0.11217  0.000381  1.03163  0.0  0.102676  0.108563  0.000597  1.029161  0.001
H  H9  1  0.03882299  0.97263122  0.62350542  1  0.102457  -0.000594  0.965998  -0.001  0.109934  -0.000539  1.030461  -0.001  0.112143  -0.000382  1.031673  0.0  0.102662  0.108538  -0.000597  1.029206  -0.001
H  H10  1  0.94841515  0.03933380  0.14854585  1  0.106823  0.001044  0.957415  0.002  0.108717  0.000771  1.029648  0.002  0.111656  0.000553  1.026345  0.001  0.119833  0.106215  0.000867  1.032283  0.002
H  H11  1  0.05158790  0.96066697  0.85145683  1  0.106821  -0.001043  0.957352  -0.002  0.108692  -0.00077  1.029619  -0.002  0.11163  -0.000554  1.026319  -0.001  0.119823  0.10619  -0.000866  1.032253  -0.002
H  H12  1  0.43514049  0.49166153  0.29601990  1  0.1331  3.6e-05  0.972585  0.0  0.151432  2.7e-05  1.034051  0.0  0.153499  3.7e-05  1.033902  0.0  0.097028  0.14979  3.3e-05  1.034028  0.0
H  H13  1  0.56485976  0.50833810  0.70397938  1  0.133158  -3.7e-05  0.972557  0.0  0.151493  -2.6e-05  1.034015  0.0  0.153561  -3.8e-05  1.033861  0.0  0.097046  0.149849  -3.3e-05  1.033993  0.0
H  H14  1  0.55717876  0.50399112  0.38020834  1  0.10832  0.000264  0.949404  0.0  0.130218  9.3e-05  1.013059  0.0  0.1303  9.3e-05  1.014801  0.0  0.092422  0.130159  9.2e-05  1.011611  0.0
H  H15  1  0.44281939  0.49600849  0.61978964  1  0.108343  -0.000264  0.949393  0.0  0.130264  -9.2e-05  1.013018  0.0  0.130347  -9.3e-05  1.014758  0.0  0.092428  0.130205  -9.2e-05  1.011571  0.0
H  H16  1  0.45592308  0.36918176  0.46493769  1  0.105411  0.000334  0.949679  0.0  0.127508  0.000146  1.01037  0.0  0.128397  0.000124  1.010756  0.0  0.091729  0.126773  0.000144  1.010211  0.0
H  H17  1  0.54407580  0.63081900  0.53505970  1  0.105439  -0.000333  0.949722  0.0  0.12754  -0.000145  1.010413  0.0  0.128429  -0.000123  1.010801  0.0  0.091739  0.126805  -0.000144  1.010256  0.0
H  H18  1  0.62301053  0.06200152  0.85066767  1  0.111824  0.001026  0.970404  0.002  0.118408  0.000836  1.033176  0.001  0.120518  0.000592  1.031465  0.001  0.127327  0.116008  0.000957  1.03536  0.001
H  H19  1  0.37698447  0.93800146  0.14933438  1  0.11181  -0.001026  0.970423  -0.002  0.118417  -0.000836  1.033149  -0.001  0.120521  -0.000592  1.031451  -0.001  0.127341  0.116016  -0.000958  1.035333  -0.001
H  H20  1  0.89881391  0.34251648  0.67521946  1  0.083488  0.001001  0.940954  0.002  0.090782  0.000867  1.003695  0.001  0.09291  0.000616  1.001599  0.001  0.11819  0.088588  0.000973  1.00596  0.001
H  H21  1  0.10118595  0.65748086  0.32477985  1  0.083504  -0.001002  0.94093  -0.002  0.090795  -0.000867  1.003676  -0.001  0.092923  -0.000616  1.001582  -0.001  0.118197  0.0886  -0.000973  1.00594  -0.001
H  H22  1  0.90577442  0.34587581  0.44560800  1  0.11095  0.000663  0.95556  0.001  0.122286  0.00058  1.013363  0.001  0.125011  0.000409  1.013255  0.0  0.107185  0.119716  0.000619  1.0144  0.001
H  H23  1  0.09422616  0.65412267  0.55439161  1  0.11093  -0.000661  0.955533  -0.001  0.122265  -0.000581  1.013347  -0.001  0.124989  -0.000409  1.01324  0.0  0.107177  0.119694  -0.000619  1.014383  -0.001
H  H24  1  0.50631646  0.10419695  0.56058200  1  0.106655  0.000361  0.949797  0.0  0.128762  0.000177  1.009845  0.0  0.129356  0.000138  1.010698  0.0  0.092657  0.128216  0.000141  1.009564  0.0
H  H25  1  0.49367847  0.89580260  0.43942133  1  0.106645  -0.000361  0.949842  0.0  0.128737  -0.000176  1.009899  0.0  0.12933  -0.000137  1.010753  0.0  0.092633  0.12819  -0.000141  1.009619  0.0
H  H26  1  0.52885455  0.98159158  0.72891581  1  0.133679  2.1e-05  0.942628  0.0  0.15481  3.7e-05  0.999533  0.0  0.156486  2.5e-05  0.999164  0.0  0.100369  0.15329  5e-05  1.000153  0.0
H  H27  1  0.47114011  0.01841253  0.27108681  1  0.133632  -2.1e-05  0.942655  0.0  0.154781  -3.6e-05  0.999533  0.0  0.156457  -2.7e-05  0.999163  0.0  0.100363  0.153273  -5e-05  1.000139  0.0
H  H28  1  0.65948459  0.93834397  0.59198718  1  0.121097  0.000211  0.934052  0.0  0.142957  7.4e-05  0.992993  0.0  0.144383  7.9e-05  0.992633  0.0  0.095596  0.141706  8.5e-05  0.993574  0.0
H  H29  1  0.34051206  0.06165331  0.40801656  1  0.121083  -0.000211  0.934072  0.0  0.142927  -7.3e-05  0.993019  0.0  0.144352  -8e-05  0.992659  0.0  0.095589  0.141676  -8.5e-05  0.9936  0.0
H  H30  1  0.42023300  0.28186497  0.06661243  1  0.410792  0.000149  0.897077  0.0  0.386553  6.6e-05  0.952877  0.0  0.398207  4.2e-05  0.935945  0.0  0.281734  0.378428  8e-05  0.964632  0.0
H  H31  1  0.57976757  0.71813351  0.93338809  1  0.410765  -0.000149  0.897099  0.0  0.386509  -6.6e-05  0.952918  0.0  0.398165  -4.2e-05  0.935985  0.0  0.281714  0.378386  -8e-05  0.96467  0.0
H  H32  1  0.45175768  0.19206946  0.96987883  1  0.410609  3.6e-05  0.899636  0.0  0.385035  2.3e-05  0.958128  0.0  0.396057  1.4e-05  0.941967  0.0  0.283413  0.377411  2.6e-05  0.969324  0.0
H  H33  1  0.54824328  0.80793130  0.03012165  1  0.410615  -3.6e-05  0.899623  0.0  0.385049  -2.3e-05  0.958096  0.0  0.396068  -1.4e-05  0.94194  0.0  0.283421  0.377428  -2.6e-05  0.969286  0.0
C  C34  1  0.93805769  0.46176309  0.84921356  1  0.061564  0.002993  3.704487  0.003  0.054243  0.000734  3.976806  0.001  0.055457  0.0007  3.99012  0.001  0.054942  0.053576  0.000687  3.967075  0.001
C  C35  1  0.06194396  0.53823542  0.15078397  1  0.061553  -0.002994  3.704553  -0.003  0.054245  -0.000739  3.976855  -0.001  0.055458  -0.000704  3.990169  -0.001  0.054956  0.05358  -0.000687  3.967118  -0.001
C  C36  1  0.04726576  0.52692764  0.82932899  1  -0.143745  -0.002737  3.763627  -0.003  -0.175084  -0.000713  4.033473  -0.001  -0.175839  -0.000719  4.051267  -0.001  -0.108563  -0.173574  -0.000709  4.020361  -0.001
C  C37  1  0.95273559  0.47307203  0.17066547  1  -0.143777  0.002738  3.76372  0.003  -0.175116  0.000711  4.033564  0.001  -0.175871  0.000719  4.051354  0.001  -0.108587  -0.173606  0.000709  4.020451  0.001
C  C38  1  0.18005240  0.40643610  0.85444093  1  -0.151687  0.001602  3.731655  0.001  -0.184745  -0.000327  3.994072  -0.001  -0.186966  4.9e-05  4.011973  0.0  -0.108852  -0.18363  -0.000443  3.981857  -0.001
C  C39  1  0.81994791  0.59356357  0.14555198  1  -0.151608  -0.001604  3.731418  -0.001  -0.184638  0.000327  3.99382  0.001  -0.186861  -5.1e-05  4.011723  0.0  -0.108762  -0.183525  0.000443  3.981606  0.001
C  C40  1  0.14485151  0.27350730  0.88945426  1  0.09545  -0.011394  3.657987  -0.012  0.093536  -0.005964  3.916442  -0.007  0.095931  -0.004449  3.92859  -0.005  0.064179  0.091627  -0.007118  3.908739  -0.008
C  C41  1  0.85514663  0.72649230  0.11054464  1  0.095352  0.011395  3.658026  0.012  0.093421  0.005962  3.916499  0.007  0.09581  0.004445  3.928652  0.005  0.064128  0.091513  0.007117  3.908798  0.008
C  C42  1  0.77753714  0.52885151  0.84420057  1  0.588088  -0.003809  3.997432  -0.006  0.546354  0.000671  4.301216  0.0  0.5831  0.00067  4.293477  0.0  0.194932  0.521146  0.0007  4.305006  -0.001
C  C43  1  0.22246267  0.47114580  0.15580328  1  0.588064  0.003808  3.997461  0.006  0.54633  -0.000674  4.301244  0.0  0.583081  -0.000668  4.293498  0.0  0.194918  0.521126  -0.000701  4.305029  0.001
C  C44  1  0.23531563  0.11264006  0.93483769  1  0.595327  0.003259  3.991617  0.007  0.551536  -0.000509  4.293489  0.002  0.588294  -3.8e-05  4.285734  0.002  0.20093  0.526539  -0.000968  4.298054  0.003
C  C45  1  0.76468602  0.88735844  0.06516075  1  0.595331  -0.003259  3.991695  -0.007  0.551576  0.000513  4.293521  -0.002  0.588341  4.3e-05  4.285758  -0.002  0.200949  0.526582  0.000968  4.298092  -0.003
C  C46  1  0.64207912  0.30986776  0.18683685  1  0.084789  -0.007462  3.613815  -0.008  0.054288  -0.000965  3.858755  -0.002  0.062593  -0.002061  3.876666  -0.003  0.057465  0.04869  -0.000159  3.847689  -0.001
C  C47  1  0.35792218  0.69013187  0.81316398  1  0.084901  0.007461  3.613818  0.008  0.054361  0.000963  3.858721  0.002  0.062669  0.00206  3.87663  0.003  0.057503  0.048773  0.000159  3.847635  0.001
C  C48  1  0.63837441  0.31161590  0.31346451  1  0.069199  0.010271  3.698759  0.011  0.094861  0.003882  3.932551  0.005  0.090229  0.003556  3.95638  0.004  0.004521  0.097395  0.004072  3.916706  0.005
C  C49  1  0.36162933  0.68838260  0.68653612  1  0.069206  -0.010269  3.698833  -0.011  0.094987  -0.003877  3.932501  -0.005  0.090354  -0.003556  3.956331  -0.004  0.00457  0.097517  -0.004072  3.916657  -0.005
C  C50  1  0.75517646  0.20736162  0.38423893  1  0.044814  -0.008812  3.731897  -0.008  0.051438  -0.002823  3.961668  -0.003  0.054987  -0.003066  3.982719  -0.003  0.01289  0.049292  -0.002656  3.947236  -0.003
C  C51  1  0.24482839  0.79264031  0.61576197  1  0.044845  0.00881  3.73183  0.008  0.051366  0.002821  3.961665  0.003  0.054914  0.003066  3.982719  0.003  0.012844  0.049217  0.002656  3.947232  0.003
C  C52  1  0.86824373  0.10828795  0.32510278  1  -0.162765  0.010312  3.736066  0.011  -0.177093  0.003972  3.982238  0.005  -0.184645  0.00362  4.002219  0.004  -0.083561  -0.172504  0.004138  3.968822  0.005
C  C53  1  0.13175576  0.89171051  0.67489982  1  -0.162716  -0.010308  3.736011  -0.011  -0.177055  -0.003971  3.982216  -0.005  -0.184601  -0.003621  4.002192  -0.004  -0.08353  -0.172466  -0.004138  3.9688  -0.005
C  C54  1  0.86264780  0.11337593  0.19911630  1  0.124025  -0.007249  3.681603  -0.007  0.093063  -0.000692  3.939052  -0.001  0.102686  -0.001831  3.956181  -0.003  0.04184  0.086736  0.000105  3.928489  0.0
C  C55  1  0.13735317  0.88662484  0.80088328  1  0.124109  0.007245  3.681495  0.007  0.093162  0.00069  3.938954  0.001  0.102782  0.001831  3.956079  0.003  0.041881  0.086834  -0.000105  3.928389  0.0
C  C56  1  0.51458401  0.42522627  0.36643951  1  -0.340026  0.000575  3.725858  0.0  -0.423647  0.000511  3.962216  0.0  -0.426131  0.000347  3.973853  0.0  -0.241734  -0.421517  0.00055  3.953933  0.0
C  C57  1  0.48541693  0.57477109  0.63355772  1  -0.340164  -0.000576  3.725906  0.0  -0.423847  -0.000516  3.962251  0.0  -0.426331  -0.000349  3.973885  0.0  -0.241778  -0.421716  -0.000551  3.953969  0.0
C  C58  1  0.75860758  0.20329738  0.51909485  1  0.043597  -0.00747  3.727686  -0.007  0.051786  -0.002442  3.957933  -0.002  0.055224  -0.002706  3.978533  -0.003  0.01357  0.049562  -0.002248  3.943739  -0.002
C  C59  1  0.24139020  0.79670334  0.48090734  1  0.043533  0.007489  3.72761  0.007  0.051796  0.002442  3.957816  0.002  0.055236  0.002706  3.978415  0.003  0.013559  0.049576  0.002248  3.943619  0.002
C  C60  1  0.67745891  0.12098958  0.63474119  1  0.073678  0.008662  3.698452  0.009  0.097713  0.003288  3.934652  0.004  0.093825  0.003062  3.957968  0.004  0.008392  0.099792  0.003405  3.918905  0.004
C  C61  1  0.32253610  0.87901340  0.36525994  1  0.073807  -0.008683  3.698462  -0.009  0.097793  -0.003286  3.934682  -0.004  0.093907  -0.003065  3.957998  -0.004  0.008443  0.09987  -0.003405  3.918937  -0.004
C  C62  1  0.68333326  0.12432406  0.75818915  1  0.078884  -0.007244  3.612772  -0.008  0.046417  -0.001266  3.856067  -0.002  0.054864  -0.002186  3.873609  -0.003  0.052567  0.041297  -0.000583  3.844598  -0.001
C  C63  1  0.31666279  0.87567892  0.24181354  1  0.078822  0.007263  3.612885  0.008  0.046339  0.001264  3.85619  0.002  0.054798  0.002185  3.873713  0.003  0.052522  0.041219  0.000583  3.844732  0.001
C  C64  1  0.83823031  0.28064775  0.66017438  1  0.116676  -0.006116  3.7254  -0.006  0.086623  -0.000439  3.985891  -0.001  0.095398  -0.001458  4.004027  -0.002  0.043439  0.081221  0.000226  3.973709  0.0
C  C65  1  0.16176748  0.71935298  0.33982599  1  0.116607  0.006138  3.725425  0.006  0.086546  0.000436  3.985916  0.001  0.095316  0.001457  4.004058  0.002  0.043447  0.081145  -0.000226  3.973733  0.0
C  C66  1  0.84118389  0.28204754  0.53329901  1  -0.162599  0.008475  3.731882  0.009  -0.177593  0.003363  3.974023  0.004  -0.184289  0.003157  3.993359  0.004  -0.083688  -0.173524  0.003479  3.961311  0.004
C  C67  1  0.15881465  0.71795435  0.46669985  1  -0.162557  -0.008496  3.73188  -0.009  -0.177564  -0.003362  3.974004  -0.004  -0.184261  -0.003158  3.993343  -0.004  -0.083699  -0.173493  -0.003479  3.961288  -0.004
C  C68  1  0.58787311  0.03162741  0.62901245  1  -0.333056  0.000559  3.721062  0.0  -0.415821  0.000523  3.95512  0.0  -0.417787  0.000343  3.965686  0.0  -0.237082  -0.414061  0.000611  3.948193  0.001
C  C69  1  0.41212255  0.96837330  0.37098937  1  -0.333017  -0.000557  3.72113  0.0  -0.415766  -0.000528  3.955206  0.0  -0.417731  -0.000341  3.965773  0.0  -0.237052  -0.414016  -0.000611  3.94827  -0.001
N  N70  1  0.75023342  0.21261843  0.13208589  1  -0.283227  0.082593  3.348161  0.1  -0.23713  0.055357  3.644546  0.072  -0.267754  0.045714  3.666958  0.063  -0.346249  -0.21944  0.059991  3.631569  0.076
N  N71  1  0.24976860  0.78738234  0.86791433  1  -0.283353  -0.082591  3.348163  -0.1  -0.237257  -0.055352  3.644562  -0.072  -0.267875  -0.04572  3.666959  -0.063  -0.346299  -0.219577  -0.059991  3.6316  -0.076
N  N72  1  0.75963677  0.20360584  0.77063804  1  -0.279882  0.072223  3.344556  0.088  -0.231683  0.050068  3.640867  0.065  -0.260752  0.041768  3.662743  0.057  -0.342313  -0.214692  0.054141  3.627199  0.068
N  N73  1  0.24036207  0.79639489  0.22936388  1  -0.279853  -0.072246  3.344571  -0.088  -0.231617  -0.050063  3.640839  -0.065  -0.260676  -0.041772  3.662706  -0.057  -0.342309  -0.214633  -0.054142  3.627183  -0.068
O  O74  1  0.99701909  0.30613568  0.88601727  1  -0.207785  -0.000829  2.461038  0.001  -0.148958  -0.001003  2.699815  0.0  -0.164711  -0.000979  2.70501  0.0  -0.117434  -0.138398  -0.001042  2.696319  0.0
O  O75  1  0.00298012  0.69386394  0.11398045  1  -0.207754  0.000829  2.46102  -0.001  -0.148939  0.001007  2.699811  0.0  -0.164692  0.00098  2.705004  0.0  -0.117427  -0.138381  0.001042  2.696316  0.0
O  O76  1  0.72770737  0.67169749  0.80928189  1  -0.58701  0.021793  1.909708  0.027  -0.54902  0.009658  2.12123  0.013  -0.575519  0.004869  2.113596  0.007  -0.321712  -0.528996  0.015003  2.124761  0.019
O  O77  1  0.27229213  0.32830098  0.19071980  1  -0.58702  -0.021791  1.90975  -0.027  -0.549028  -0.009662  2.121273  -0.013  -0.575527  -0.004872  2.113636  -0.007  -0.321722  -0.529003  -0.015001  2.124802  -0.019
O  O78  1  0.69577856  0.44045986  0.87641765  1  -0.591181  0.084464  2.095482  0.109  -0.569321  0.05168  2.383226  0.073  -0.611631  0.038358  2.376168  0.057  -0.323184  -0.539604  0.061087  2.386792  0.084
O  O79  1  0.30421812  0.55954083  0.12358844  1  -0.591143  -0.084463  2.095405  -0.109  -0.569288  -0.051666  2.383164  -0.073  -0.611591  -0.038358  2.376094  -0.057  -0.323158  -0.539573  -0.061081  2.386742  -0.084
O  O80  1  0.16333630  0.01297591  0.98048382  1  -0.583282  -0.097825  2.109893  -0.126  -0.568432  -0.061444  2.412138  -0.088  -0.609687  -0.046489  2.402251  -0.07  -0.31943  -0.540725  -0.071218  2.418593  -0.098
O  O81  1  0.83666703  0.98702030  0.01951866  1  -0.583316  0.097825  2.109934  0.126  -0.568488  0.061447  2.412164  0.088  -0.609751  0.046483  2.402287  0.07  -0.319464  -0.540781  0.071218  2.418614  0.098
O  O82  1  0.37193164  0.08615413  0.92816556  1  -0.597581  -9.5e-05  2.024409  -0.001  -0.552662  4.4e-05  2.252632  -0.001  -0.57829  0.000633  2.244553  0.0  -0.305341  -0.534596  -0.000643  2.257824  -0.001
O  O83  1  0.62807041  0.91384666  0.07183194  1  -0.597593  9.5e-05  2.024415  0.001  -0.552684  -4.7e-05  2.252612  0.001  -0.578314  -0.000636  2.244532  0.0  -0.305357  -0.534617  0.000644  2.257806  0.001
O  O84  1  0.48627470  0.26424405  0.98454271  1  -0.848534  -0.000907  1.881373  0.0  -0.814374  -0.000454  2.069774  0.0  -0.83513  -0.000604  2.033262  0.0  -0.60522  -0.799759  -0.000443  2.095035  0.0
O  O85  1  0.51372626  0.73575671  0.01545778  1  -0.848519  0.000907  1.881391  0.0  -0.814341  0.000454  2.069837  0.0  -0.835085  0.000605  2.033301  0.0  -0.605201  -0.799727  0.000443  2.095101  0.0
