# generated using pymatgen
data_CuH3C7N2
_symmetry_space_group_name_H-M   'P 1'
_cell_length_a   28.64745406
_cell_length_b   28.67990414
_cell_length_c   28.64874257
_cell_angle_alpha   90.03366192
_cell_angle_beta   89.97719286
_cell_angle_gamma   89.88873760
_symmetry_Int_Tables_number   1
_chemical_formula_structural   CuH3C7N2
_chemical_formula_sum   'Cu12 H36 C84 N24'
_cell_volume   23537.93523857
_cell_formula_units_Z   12
loop_
 _symmetry_equiv_pos_site_id
 _symmetry_equiv_pos_as_xyz
  1  'x, y, z'
loop_
 _atom_site_type_symbol
 _atom_site_label
 _atom_site_symmetry_multiplicity
 _atom_site_fract_x
 _atom_site_fract_y
 _atom_site_fract_z
 _atom_site_occupancy
 _atom_site_pbe_bader_charge
 _atom_site_pbe_bader_spin_density
 _atom_site_pbe_cm5_charge
 _atom_site_pbe_ddec_charge
 _atom_site_pbe_ddec_spin_density
 _atom_site_pbe_ddec_sum_bond_order
 _atom_site_pbe_magmom
Cu  Cu0  1  0.37498519  0.58105655  0.66896436  1  0.545676  0  0.489462  0.209893  0  2.102245  0
Cu  Cu1  1  0.32931867  0.62581114  0.57874715  1  0.544597  0  0.488371  0.211874  0  2.091481  0
Cu  Cu2  1  0.42068096  0.67125392  0.62411912  1  0.544366  0  0.491344  0.210443  0  2.106458  0
Cu  Cu3  1  0.62520643  0.91935513  0.16914721  1  0.545252  0  0.492195  0.208927  0  2.11701  0
Cu  Cu4  1  0.67083087  0.87448676  0.07889840  1  0.551332  0  0.49145  0.210282  0  2.107956  0
Cu  Cu5  1  0.57964732  0.82936049  0.12432194  1  0.5483  0  0.490563  0.210968  0  2.103118  0
Cu  Cu6  1  0.87487909  0.41885604  0.83107924  1  0.546364  0  0.489006  0.210059  0  2.101732  0
Cu  Cu7  1  0.82893902  0.37399363  0.92100639  1  0.54651  0  0.489524  0.211685  0  2.097188  0
Cu  Cu8  1  0.92043674  0.32832623  0.87566374  1  0.542629  0  0.490599  0.211224  0  2.101543  0
Cu  Cu9  1  0.12472237  0.08056175  0.33101717  1  0.546828  0  0.490424  0.210006  0  2.108195  0
Cu  Cu10  1  0.17061027  0.12557405  0.42114586  1  0.547227  0  0.491053  0.210699  0  2.105617  0
Cu  Cu11  1  0.07893278  0.17067464  0.37583778  1  0.552349  0  0.488697  0.211208  0  2.09344  0
H  H12  1  0.30639390  0.49576940  0.68638795  1  0.097188  0  0.126299  0.120569  0  0.980706  0
H  H13  1  0.24369647  0.55622654  0.56271637  1  0.108827  0  0.126366  0.12036  0  0.980409  0
H  H14  1  0.50605938  0.68742799  0.69369669  1  0.115683  0  0.126526  0.120658  0  0.979631  0
H  H15  1  0.44356070  0.56398028  0.75438753  1  0.098385  0  0.126212  0.120406  0  0.981074  0
H  H16  1  0.31305165  0.69513552  0.49372062  1  0.125496  0  0.126295  0.120353  0  0.981914  0
H  H17  1  0.43693438  0.75617765  0.55504618  1  0.106383  0  0.126401  0.120641  0  0.981293  0
H  H18  1  0.69362579  0.00444766  0.18651144  1  0.089773  0  0.126517  0.120852  0  0.979791  0
H  H19  1  0.75637253  0.94376258  0.06279358  1  0.10812  0  0.126694  0.120581  0  0.979733  0
H  H20  1  0.49400756  0.81350390  0.19395049  1  0.110872  0  0.126348  0.120199  0  0.980565  0
H  H21  1  0.55664843  0.93698289  0.25447525  1  0.106951  0  0.126168  0.120154  0  0.979741  0
H  H22  1  0.68707586  0.80558079  0.99361183  1  0.095684  0  0.126649  0.121044  0  0.979733  0
H  H23  1  0.56314838  0.74456749  0.05500013  1  0.118358  0  0.126197  0.119597  0  0.981368  0
H  H24  1  0.80623081  0.50433242  0.81372601  1  0.096944  0  0.126197  0.120287  0  0.980932  0
H  H25  1  0.74319522  0.44369518  0.93708471  1  0.104275  0  0.126207  0.119953  0  0.979911  0
H  H26  1  0.00620799  0.31223670  0.80615079  1  0.113861  0  0.126275  0.120256  0  0.979253  0
H  H27  1  0.94380192  0.43616897  0.74596889  1  0.105734  0  0.126278  0.120286  0  0.980908  0
H  H28  1  0.81234988  0.30466571  0.00579750  1  0.123651  0  0.126377  0.120375  0  0.980673  0
H  H29  1  0.93639447  0.24317840  0.94460326  1  0.086728  0  0.126562  0.120688  0  0.980618  0
H  H30  1  0.19357716  0.99543341  0.31357741  1  0.087999  0  0.126411  0.12059  0  0.979755  0
H  H31  1  0.25650686  0.05632729  0.43689570  1  0.103047  0  0.126455  0.120262  0  0.979888  0
H  H32  1  0.99310740  0.18651746  0.30625928  1  0.087913  0  0.126458  0.120395  0  0.979916  0
H  H33  1  0.05598547  0.06284986  0.24582012  1  0.099853  0  0.126396  0.120478  0  0.979433  0
H  H34  1  0.18697807  0.19483061  0.50600564  1  0.101385  0  0.126376  0.120829  0  0.980909  0
H  H35  1  0.06265778  0.25583594  0.44508641  1  0.128342  0  0.126472  0.120635  0  0.981177  0
H  H36  1  0.81302860  0.12430075  0.06419401  1  0.076196  0  0.109404  0.119526  0  0.984924  0
H  H37  1  0.93629394  0.18528864  0.12518024  1  0.087512  0  0.109638  0.119882  0  0.986423  0
H  H38  1  0.87462715  0.06275565  0.18702618  1  0.074284  0  0.109693  0.120227  0  0.98533  0
H  H39  1  0.18674071  0.37548000  0.56416125  1  0.070087  0  0.109426  0.119847  0  0.984471  0
H  H40  1  0.06363218  0.31438390  0.62540775  1  0.079595  0  0.109524  0.119766  0  0.985476  0
H  H41  1  0.12507561  0.43693633  0.68727887  1  0.072804  0  0.10958  0.120502  0  0.984786  0
H  H42  1  0.37543050  0.93728067  0.31305654  1  0.073959  0  0.109598  0.120118  0  0.985334  0
H  H43  1  0.43715913  0.81461100  0.37469863  1  0.068528  0  0.109491  0.119808  0  0.98505  0
H  H44  1  0.31340363  0.87544457  0.43554812  1  0.078313  0  0.109562  0.119923  0  0.98523  0
H  H45  1  0.68659808  0.62519177  0.93550366  1  0.079174  0  0.10952  0.12011  0  0.985398  0
H  H46  1  0.56337615  0.68650162  0.87446233  1  0.100153  0  0.109359  0.119413  0  0.98538  0
H  H47  1  0.62454125  0.56317766  0.81310471  1  0.084847  0  0.109584  0.11988  0  0.986193  0
C  C48  1  0.29702656  0.51653379  0.65615942  1  0.443697  0  0.01532  -0.049467  0  3.929658  0
C  C49  1  0.25970622  0.51049066  0.62473435  1  0.090612  0  -0.028624  0.04711  0  4.194697  0
C  C50  1  0.26498827  0.54743263  0.59275700  1  0.440302  0  0.016538  -0.046889  0  3.923391  0
C  C51  1  0.48481269  0.65743980  0.70255411  1  0.434089  0  0.016369  -0.04786  0  3.924575  0
C  C52  1  0.49008150  0.62560255  0.73961363  1  0.094365  0  -0.028357  0.047575  0  4.198488  0
C  C53  1  0.45288303  0.59413829  0.73356834  1  0.439028  0  0.01569  -0.049526  0  3.928786  0
C  C54  1  0.34322549  0.70403973  0.51472835  1  0.41421  0  0.015722  -0.048619  0  3.928993  0
C  C55  1  0.37499941  0.74101453  0.50900656  1  0.105124  0  -0.028789  0.047623  0  4.197855  0
C  C56  1  0.40676982  0.73522270  0.54605307  1  0.433414  0  0.015395  -0.049511  0  3.930204  0
C  C57  1  0.70303169  0.98366036  0.15628420  1  0.439989  0  0.015529  -0.050034  0  3.929815  0
C  C58  1  0.74029045  0.98959683  0.12479192  1  0.101122  0  -0.028632  0.048228  0  4.201679  0
C  C59  1  0.73507963  0.95263089  0.09284116  1  0.438464  0  0.016184  -0.047625  0  3.924338  0
C  C60  1  0.51526951  0.84350208  0.20270677  1  0.418701  0  0.016381  -0.04702  0  3.92514  0
C  C61  1  0.50998983  0.87548638  0.23967571  1  0.13424  0  -0.028556  0.047104  0  4.199907  0
C  C62  1  0.54728984  0.90681164  0.23366604  1  0.399173  0  0.015808  -0.048151  0  3.928254  0
C  C63  1  0.65690061  0.79662045  0.01462502  1  0.437443  0  0.015421  -0.050029  0  3.929589  0
C  C64  1  0.62507329  0.75971357  0.00884576  1  0.159085  0  -0.028909  0.047739  0  4.19975  0
C  C65  1  0.59335373  0.76544087  0.04598477  1  0.418686  0  0.01594  -0.046978  0  3.926643  0
C  C66  1  0.79676558  0.48352356  0.84387240  1  0.443501  0  0.015855  -0.048792  0  3.928179  0
C  C67  1  0.75933769  0.48954316  0.87522412  1  0.106535  0  -0.02853  0.047736  0  4.195165  0
C  C68  1  0.76456888  0.45251739  0.90711683  1  0.447425  0  0.016482  -0.047055  0  3.922674  0
C  C69  1  0.98494833  0.34233689  0.79741323  1  0.431413  0  0.016253  -0.04784  0  3.923551  0
C  C70  1  0.99035486  0.37438752  0.76056282  1  0.092483  0  -0.028508  0.047888  0  4.196404  0
C  C71  1  0.95307184  0.40589040  0.76667805  1  0.443644  0  0.015645  -0.048444  0  3.928664  0
C  C72  1  0.84257092  0.29562631  0.98482956  1  0.419021  0  0.015747  -0.048686  0  3.928242  0
C  C73  1  0.87431394  0.25850661  0.99056710  1  0.098485  0  -0.02879  0.048494  0  4.198174  0
C  C74  1  0.90619921  0.26421529  0.95359266  1  0.455951  0  0.015608  -0.049251  0  3.927237  0
C  C75  1  0.20296971  0.01631113  0.34370736  1  0.440295  0  0.015829  -0.048971  0  3.929807  0
C  C76  1  0.24040667  0.01043960  0.37500560  1  0.15974  0  -0.029416  0.046513  0  4.201037  0
C  C77  1  0.23513728  0.04743005  0.40695409  1  0.390338  0  0.016779  -0.046552  0  3.922961  0
C  C78  1  0.01443358  0.15647567  0.29749629  1  0.427981  0  0.016519  -0.046924  0  3.924342  0
C  C79  1  0.00917727  0.12446044  0.26056168  1  0.148954  0  -0.029013  0.046406  0  4.198919  0
C  C80  1  0.04655313  0.09306490  0.26660379  1  0.43354  0  0.015733  -0.048226  0  3.927454  0
C  C81  1  0.15668643  0.20373334  0.48511137  1  0.44191  0  0.01553  -0.050142  0  3.92895  0
C  C82  1  0.12483346  0.24076734  0.49089851  1  0.101652  0  -0.028851  0.047694  0  4.195698  0
C  C83  1  0.09292686  0.23488722  0.45397082  1  0.406755  0  0.015481  -0.049371  0  3.929045  0
C  C84  1  0.83981207  0.08950122  0.12560876  1  0.080244  0  -0.001699  0.148381  0  4.153151  0
C  C85  1  0.83998093  0.12423375  0.09097586  1  -0.030354  0  -0.07391  -0.166736  0  3.853394  0
C  C86  1  0.87467429  0.15886198  0.09064149  1  0.091318  0  -0.00176  0.147612  0  4.151076  0
C  C87  1  0.90938628  0.15854027  0.12535930  1  0.013684  0  -0.074399  -0.167355  0  3.854312  0
C  C88  1  0.90959227  0.12403523  0.16025673  1  0.095047  0  -0.001322  0.147252  0  4.151888  0
C  C89  1  0.87468565  0.08960139  0.16016168  1  0.012711  0  -0.074179  -0.167885  0  3.854266  0
C  C90  1  0.16004865  0.41037271  0.62571785  1  0.091044  0  -0.00049  0.148384  0  4.145214  0
C  C91  1  0.15985254  0.37557374  0.59104187  1  -0.009446  0  -0.074432  -0.167411  0  3.850924  0
C  C92  1  0.12520084  0.34087000  0.59072316  1  0.089186  0  -0.001464  0.147928  0  4.148265  0
C  C93  1  0.09053148  0.34115013  0.62551980  1  0.007648  0  -0.074274  -0.167283  0  3.853546  0
C  C94  1  0.09029161  0.37565552  0.66045303  1  0.092403  0  -0.001168  0.148263  0  4.149131  0
C  C95  1  0.12515153  0.41016076  0.66032013  1  0.02023  0  -0.074606  -0.168689  0  3.852265  0
C  C96  1  0.34031853  0.91046835  0.37431841  1  0.092115  0  -0.001578  0.148193  0  4.152405  0
C  C97  1  0.37534376  0.91042306  0.33990287  1  0.018085  0  -0.073764  -0.167307  0  3.854031  0
C  C98  1  0.41031466  0.87593387  0.33983695  1  0.087584  0  -0.00177  0.14718  0  4.153529  0
C  C99  1  0.41011223  0.84133005  0.37460705  1  -0.006693  0  -0.074311  -0.167004  0  3.853333  0
C  C100  1  0.37526607  0.84094866  0.40921525  1  0.091985  0  -0.00156  0.147365  0  4.150582  0
C  C101  1  0.34045932  0.87560893  0.40884675  1  0.003759  0  -0.073788  -0.167128  0  3.853539  0
C  C102  1  0.65970484  0.58999374  0.87430103  1  0.100194  0  -0.001117  0.14774  0  4.147831  0
C  C103  1  0.65964595  0.62499726  0.90872453  1  0.000358  0  -0.074651  -0.168429  0  3.854241  0
C  C104  1  0.62499569  0.65981361  0.90896666  1  0.085321  0  -0.001596  0.147792  0  4.151928  0
C  C105  1  0.59022232  0.65956907  0.87433278  1  -0.064554  0  -0.073799  -0.16607  0  3.853234  0
C  C106  1  0.58989656  0.62485411  0.83962289  1  0.094854  0  -0.001463  0.147448  0  4.150739  0
C  C107  1  0.62470422  0.59016206  0.83985072  1  0.026778  0  -0.07431  -0.167284  0  3.852261  0
C  C108  1  0.77481527  0.02440832  0.12521535  1  -0.364182  0  -0.053852  -0.097239  0  4.181141  0
C  C109  1  0.80479587  0.05452764  0.12556760  1  0.009221  0  -0.055054  -0.126247  0  4.142829  0
C  C110  1  0.22511934  0.47560797  0.62523835  1  -0.35671  0  -0.053872  -0.097109  0  4.173129  0
C  C111  1  0.19511360  0.44545471  0.62564702  1  0.010898  0  -0.055322  -0.126034  0  4.134176  0
C  C112  1  0.27506577  0.97560575  0.37452641  1  -0.35116  0  -0.054015  -0.096933  0  4.179433  0
C  C113  1  0.30516408  0.94546969  0.37429604  1  0.007362  0  -0.055125  -0.126224  0  4.141682  0
C  C114  1  0.72472409  0.52450680  0.87479927  1  -0.33367  0  -0.053939  -0.097087  0  4.175295  0
C  C115  1  0.69471063  0.55475182  0.87442690  1  -0.004395  0  -0.055302  -0.126075  0  4.135403  0
C  C116  1  0.97462279  0.12405968  0.22560412  1  -0.34656  0  -0.053809  -0.097141  0  4.177229  0
C  C117  1  0.94464956  0.12398950  0.19536088  1  0.003042  0  -0.055344  -0.125841  0  4.138787  0
C  C118  1  0.52466457  0.62524532  0.77450762  1  -0.357153  0  -0.053824  -0.096904  0  4.176584  0
C  C119  1  0.55476442  0.62492426  0.80461574  1  0.012773  0  -0.05505  -0.125768  0  4.138048  0
C  C120  1  0.02506468  0.37494729  0.72570973  1  -0.345899  0  -0.053834  -0.097281  0  4.174564  0
C  C121  1  0.05519033  0.37549706  0.69558821  1  0.007093  0  -0.055123  -0.125925  0  4.135811  0
C  C122  1  0.47545089  0.87592801  0.27461769  1  -0.369327  0  -0.054478  -0.098257  0  4.179315  0
C  C123  1  0.44544602  0.87599929  0.30482777  1  0.024975  0  -0.05473  -0.125113  0  4.141037  0
C  C124  1  0.87432731  0.22383021  0.02534208  1  -0.3836  0  -0.053763  -0.097852  0  4.176986  0
C  C125  1  0.87458230  0.19386244  0.05554007  1  0.03264  0  -0.055082  -0.125448  0  4.138042  0
C  C126  1  0.37507445  0.77574980  0.47428460  1  -0.38791  0  -0.053838  -0.097584  0  4.174789  0
C  C127  1  0.37519074  0.80587108  0.44424045  1  0.039235  0  -0.054901  -0.125077  0  4.136793  0
C  C128  1  0.62504991  0.72503916  0.97404823  1  -0.278529  0  -0.053659  -0.097377  0  4.177811  0
C  C129  1  0.62505710  0.69493379  0.94396063  1  -0.127569  0  -0.055461  -0.12619  0  4.138799  0
C  C130  1  0.12493277  0.27561859  0.52557094  1  -0.39363  0  -0.054036  -0.097299  0  4.174046  0
C  C131  1  0.12514990  0.30581219  0.55559168  1  0.050141  0  -0.055005  -0.125664  0  4.136126  0
N  N132  1  0.30244742  0.57321977  0.60443392  1  -0.763556  0  -0.334925  -0.141496  0  3.768315  0
N  N133  1  0.32231527  0.55402676  0.64369072  1  -0.78592  0  -0.335051  -0.138655  0  3.773247  0
N  N134  1  0.42763448  0.60646202  0.69591754  1  -0.78303  0  -0.335156  -0.138449  0  3.772745  0
N  N135  1  0.44744507  0.64562743  0.67668437  1  -0.769106  0  -0.336415  -0.14006  0  3.777233  0
N  N136  1  0.39467553  0.69777768  0.57161741  1  -0.79047  0  -0.335599  -0.139107  0  3.778573  0
N  N137  1  0.35532475  0.67840315  0.55219453  1  -0.766464  0  -0.334076  -0.139862  0  3.771508  0
N  N138  1  0.69765348  0.92688972  0.10461209  1  -0.76147  0  -0.336103  -0.140156  0  3.77757  0
N  N139  1  0.67780114  0.94613668  0.14384467  1  -0.784518  0  -0.336902  -0.138532  0  3.781577  0
N  N140  1  0.57260090  0.89425647  0.19611487  1  -0.770517  0  -0.337004  -0.139069  0  3.78287  0
N  N141  1  0.55276266  0.85509100  0.17690233  1  -0.772803  0  -0.335388  -0.140232  0  3.775413  0
N  N142  1  0.60555049  0.80278322  0.07168207  1  -0.78256  0  -0.33564  -0.140778  0  3.777148  0
N  N143  1  0.64488043  0.82212409  0.05222083  1  -0.784225  0  -0.335159  -0.137823  0  3.778871  0
N  N144  1  0.80211784  0.42670115  0.89546314  1  -0.773692  0  -0.334968  -0.140238  0  3.770006  0
N  N145  1  0.82208298  0.44594922  0.85631506  1  -0.778302  0  -0.335288  -0.13966  0  3.772526  0
N  N146  1  0.92766159  0.39340948  0.80416038  1  -0.782084  0  -0.33541  -0.140201  0  3.773517  0
N  N147  1  0.94744179  0.35406853  0.82323397  1  -0.771458  0  -0.335306  -0.13986  0  3.773628  0
N  N148  1  0.89420073  0.30175489  0.92805641  1  -0.782798  0  -0.33544  -0.139389  0  3.775915  0
N  N149  1  0.85480501  0.32125555  0.94743633  1  -0.769575  0  -0.335071  -0.140675  0  3.775332  0
N  N150  1  0.19751619  0.07311460  0.39536128  1  -0.76084  0  -0.335831  -0.140596  0  3.776144  0
N  N151  1  0.17757580  0.05381544  0.35623504  1  -0.783228  0  -0.336133  -0.139305  0  3.777975  0
N  N152  1  0.07187073  0.10561226  0.30411185  1  -0.786398  0  -0.336303  -0.139842  0  3.776868  0
N  N153  1  0.05195973  0.14485904  0.32329779  1  -0.766208  0  -0.334298  -0.140328  0  3.769608  0
N  N154  1  0.10501805  0.19736528  0.42837991  1  -0.778827  0  -0.334046  -0.139005  0  3.772322  0
N  N155  1  0.14449801  0.17804329  0.44772502  1  -0.792252  0  -0.33565  -0.138828  0  3.77722  0
