# generated using pymatgen
data_Zn2H27C34N6(O4F3)2
_symmetry_space_group_name_H-M   'P 1'
_cell_length_a   10.97440782
_cell_length_b   18.42404682
_cell_length_c   20.45137127
_cell_angle_alpha   90.00000018
_cell_angle_beta   90.00000262
_cell_angle_gamma   105.33966369
_symmetry_Int_Tables_number   1
_chemical_formula_structural   Zn2H27C34N6(O4F3)2
_chemical_formula_sum   'Zn8 H108 C136 N24 O32 F24'
_cell_volume   3987.80839156
_cell_formula_units_Z   4
loop_
 _symmetry_equiv_pos_site_id
 _symmetry_equiv_pos_as_xyz
  1  'x, y, z'
loop_
 _atom_site_type_symbol
 _atom_site_label
 _atom_site_symmetry_multiplicity
 _atom_site_fract_x
 _atom_site_fract_y
 _atom_site_fract_z
 _atom_site_occupancy
 _atom_site_pbe_bader_charge
 _atom_site_pbe_bader_spin_density
 _atom_site_pbe_cm5_charge
 _atom_site_pbe_ddec_charge
 _atom_site_pbe_ddec_spin_density
 _atom_site_pbe_ddec_sum_bond_order
 _atom_site_pbe_magmom
Zn  Zn0  1  0.95296706  0.57963138  0.89756819  1  1.28424  0  0.687217  0.858404  0  2.312354  0
Zn  Zn1  1  0.04703396  0.92037118  0.39756699  1  1.284188  0  0.687161  0.858312  0  2.312407  0
Zn  Zn2  1  0.04704022  0.42036941  0.10243274  1  1.284069  0  0.687138  0.858272  0  2.312477  0
Zn  Zn3  1  0.95295786  0.07962965  0.60243199  1  1.284082  0  0.68717  0.858349  0  2.312409  0
Zn  Zn4  1  0.04658742  0.16303700  0.35090508  1  1.256666  0  0.707749  0.783504  0  2.410771  0
Zn  Zn5  1  0.95340442  0.33696434  0.85090481  1  1.256418  0  0.707691  0.783465  0  2.410657  0
Zn  Zn6  1  0.95340935  0.83696270  0.64909536  1  1.256501  0  0.707735  0.783473  0  2.410775  0
Zn  Zn7  1  0.04659336  0.66303760  0.14909416  1  1.256518  0  0.707748  0.783525  0  2.410729  0
H  H8  1  0.91115680  0.46159096  0.77037525  1  0.185762  0  0.12877  0.099787  0  1.057356  0
H  H9  1  0.08884545  0.03840922  0.27037258  1  0.185956  0  0.128745  0.099736  0  1.057397  0
H  H10  1  0.08884594  0.53840984  0.22962666  1  0.18593  0  0.128739  0.099695  0  1.05744  0
H  H11  1  0.91115333  0.96158483  0.72962591  1  0.185846  0  0.128779  0.099819  0  1.057265  0
H  H12  1  0.09621701  0.69163113  0.79510512  1  0.161933  0  0.122728  0.131274  0  1.012701  0
H  H13  1  0.90377738  0.80837089  0.29510541  1  0.161785  0  0.122748  0.131339  0  1.012624  0
H  H14  1  0.90377582  0.30837196  0.20489434  1  0.161795  0  0.122744  0.131358  0  1.012628  0
H  H15  1  0.09621710  0.19162374  0.70489112  1  0.162207  0  0.122715  0.13143  0  1.012564  0
H  H16  1  0.09322946  0.65616739  0.66225242  1  0.115917  0  0.11073  0.110937  0  1.045289  0
H  H17  1  0.90677183  0.84383178  0.16225270  1  0.115896  0  0.110729  0.110918  0  1.045326  0
H  H18  1  0.90676676  0.34383512  0.33774851  1  0.11592  0  0.110728  0.110922  0  1.045283  0
H  H19  1  0.09323265  0.15616282  0.83774480  1  0.116049  0  0.110746  0.111006  0  1.045284  0
H  H20  1  0.00097440  0.54281258  0.59850266  1  0.041346  0  0.103081  0.080514  0  1.015484  0
H  H21  1  0.99902325  0.95718661  0.09850246  1  0.041302  0  0.103078  0.080511  0  1.015511  0
H  H22  1  0.99902702  0.45718936  0.40149730  1  0.041353  0  0.103103  0.080514  0  1.015471  0
H  H23  1  0.00097756  0.04281195  0.90149554  1  0.041269  0  0.103128  0.080538  0  1.015476  0
H  H24  1  0.88082861  0.47086962  0.63476136  1  0.083196  0  0.10182  0.078081  0  1.025965  0
H  H25  1  0.11917104  0.02912888  0.13476016  1  0.083215  0  0.101819  0.078095  0  1.025993  0
H  H26  1  0.11917165  0.52913175  0.36524006  1  0.08317  0  0.101812  0.078057  0  1.026048  0
H  H27  1  0.88082980  0.97086574  0.86524077  1  0.083266  0  0.101818  0.078077  0  1.026013  0
H  H28  1  0.04036892  0.40688551  0.67502222  1  0.05361  0  0.09529  0.097437  0  0.997246  0
H  H29  1  0.95962410  0.09311244  0.17502153  1  0.053675  0  0.095302  0.097445  0  0.997298  0
H  H30  1  0.95962653  0.59311531  0.32497871  1  0.053637  0  0.095282  0.097414  0  0.997219  0
H  H31  1  0.04037867  0.90688442  0.82497989  1  0.053649  0  0.095288  0.097434  0  0.99724  0
H  H32  1  0.16377084  0.48000323  0.64233884  1  0.039701  0  0.090484  0.089542  0  0.984134  0
H  H33  1  0.83622805  0.01999358  0.14233423  1  0.03933  0  0.090461  0.089488  0  0.984244  0
H  H34  1  0.83623022  0.51999589  0.35766454  1  0.039662  0  0.090474  0.089503  0  0.98421  0
H  H35  1  0.16377407  0.98000385  0.85766474  1  0.039656  0  0.090465  0.089488  0  0.984229  0
H  H36  1  0.94628720  0.38216026  0.56027980  1  0.067806  0  0.087681  0.088367  0  1.012584  0
H  H37  1  0.05370996  0.11783881  0.06027762  1  0.067835  0  0.087695  0.088407  0  1.01262  0
H  H38  1  0.05370941  0.61784113  0.43972211  1  0.067826  0  0.087688  0.088391  0  1.012636  0
H  H39  1  0.94629201  0.88216031  0.93972331  1  0.067822  0  0.087681  0.088392  0  1.012579  0
H  H40  1  0.07823374  0.45146118  0.53029256  1  0.037297  0  0.086025  0.079823  0  1.000609  0
H  H41  1  0.92176459  0.04853845  0.03029138  1  0.03718  0  0.086065  0.079927  0  1.00052  0
H  H42  1  0.92176495  0.54854077  0.46970886  1  0.037204  0  0.086039  0.079863  0  1.00061  0
H  H43  1  0.07823855  0.95146123  0.96970955  1  0.037167  0  0.086037  0.079889  0  1.000538  0
H  H44  1  0.07748115  0.29941670  0.59258325  1  0.129768  0  0.121698  0.120163  0  0.979029  0
H  H45  1  0.92251667  0.20058180  0.09258402  1  0.129781  0  0.121717  0.120183  0  0.978987  0
H  H46  1  0.92251445  0.70058243  0.40741573  1  0.129762  0  0.121697  0.120147  0  0.97904  0
H  H47  1  0.07748671  0.79941844  0.90741642  1  0.129802  0  0.121706  0.120153  0  0.979055  0
H  H48  1  0.21854380  0.37166366  0.57971468  1  0.051398  0  0.110107  0.096851  0  0.96241  0
H  H49  1  0.78145427  0.12833541  0.07971594  1  0.051354  0  0.110111  0.096854  0  0.962387  0
H  H50  1  0.78145336  0.62833491  0.42028332  1  0.05133  0  0.110121  0.09688  0  0.962376  0
H  H51  1  0.21854871  0.87166596  0.92028499  1  0.051329  0  0.110108  0.096886  0  0.962348  0
H  H52  1  0.00133807  0.21344157  0.50027697  1  0.209478  0  0.14017  0.121542  0  1.026535  0
H  H53  1  0.99866036  0.28656031  0.00028019  1  0.209579  0  0.140176  0.12155  0  1.026559  0
H  H54  1  0.99865986  0.78655869  0.49972054  1  0.209598  0  0.140197  0.121602  0  1.026514  0
H  H55  1  0.00134444  0.71344105  0.99972123  1  0.209591  0  0.140197  0.12161  0  1.026526  0
H  H56  1  0.20430941  0.33540781  0.34084952  1  0.133581  0  0.129162  0.133876  0  0.976316  0
H  H57  1  0.79569502  0.16459519  0.84085023  1  0.133634  0  0.129141  0.13385  0  0.976365  0
H  H58  1  0.79568968  0.66459301  0.65914897  1  0.133631  0  0.129153  0.1339  0  0.976298  0
H  H59  1  0.20430691  0.83540787  0.15915070  1  0.133593  0  0.129167  0.133885  0  0.976329  0
H  H60  1  0.24922524  0.42447647  0.45315544  1  0.135141  0  0.115794  0.122736  0  1.028761  0
H  H61  1  0.75077662  0.07552485  0.95315566  1  0.135185  0  0.115783  0.122759  0  1.028757  0
H  H62  1  0.75077022  0.57552436  0.54684256  1  0.135123  0  0.11581  0.122737  0  1.028722  0
H  H63  1  0.24922870  0.92447764  0.04684430  1  0.135102  0  0.115791  0.122734  0  1.028695  0
H  H64  1  0.84485464  0.03265585  0.42207538  1  0.203759  0  0.143432  0.125046  0  1.006692  0
H  H65  1  0.15514368  0.46734773  0.92207656  1  0.203647  0  0.143498  0.125214  0  1.006411  0
H  H66  1  0.15514427  0.96735060  0.57792702  1  0.203678  0  0.143482  0.125087  0  1.006523  0
H  H67  1  0.84485672  0.53265195  0.07792242  1  0.20363  0  0.143491  0.125164  0  1.006408  0
H  H68  1  0.79415030  0.18040030  0.27240766  1  0.131958  0  0.125879  0.128425  0  0.989797  0
H  H69  1  0.20585063  0.31960102  0.77240982  1  0.131978  0  0.125875  0.128436  0  0.989832  0
H  H70  1  0.20584788  0.81960052  0.72759034  1  0.131911  0  0.1259  0.128476  0  0.989771  0
H  H71  1  0.79415029  0.68039979  0.22758817  1  0.132019  0  0.12589  0.128484  0  0.989821  0
H  H72  1  0.55779486  0.09120780  0.31227589  1  0.151329  0  0.128909  0.129991  0  0.998525  0
H  H73  1  0.44220152  0.40879353  0.81227904  1  0.151475  0  0.128881  0.129983  0  0.998629  0
H  H74  1  0.44220165  0.90879133  0.68772211  1  0.151471  0  0.128889  0.129965  0  0.998614  0
H  H75  1  0.55779797  0.59120616  0.18771896  1  0.151487  0  0.128863  0.129996  0  0.998567  0
H  H76  1  0.61377723  0.94395322  0.42589126  1  0.10228  0  0.114363  0.097123  0  0.977165  0
H  H77  1  0.38621808  0.55604879  0.92589147  1  0.102179  0  0.114359  0.097089  0  0.9772  0
H  H78  1  0.38621782  0.05604873  0.57410967  1  0.102174  0  0.114364  0.097072  0  0.977219  0
H  H79  1  0.61378385  0.44395427  0.07410506  1  0.102289  0  0.11438  0.097109  0  0.977152  0
H  H80  1  0.49281573  0.97442098  0.38562012  1  0.101632  0  0.118804  0.110032  0  0.960418  0
H  H81  1  0.50718139  0.52558103  0.88562131  1  0.101695  0  0.118797  0.11  0  0.960454  0
H  H82  1  0.50718089  0.02558041  0.61437886  1  0.101706  0  0.118817  0.110054  0  0.960418  0
H  H83  1  0.49282160  0.47442034  0.11437669  1  0.101771  0  0.11877  0.109923  0  0.960389  0
H  H84  1  0.51563656  0.07805591  0.46905706  1  0.02619  0  0.087182  0.082695  0  1.014264  0
H  H85  1  0.48435892  0.42194542  0.96905679  1  0.026274  0  0.087203  0.082752  0  1.014248  0
H  H86  1  0.48435641  0.92194548  0.53094289  1  0.026316  0  0.087177  0.08272  0  1.014224  0
H  H87  1  0.51563977  0.57805652  0.03094219  1  0.026296  0  0.0872  0.082721  0  1.01424  0
H  H88  1  0.63755980  0.04674571  0.50850039  1  0.070901  0  0.095124  0.101206  0  1.000592  0
H  H89  1  0.36243681  0.45325618  0.00850066  1  0.07089  0  0.095129  0.101223  0  1.000508  0
H  H90  1  0.36243434  0.95325625  0.49150006  1  0.070835  0  0.095161  0.10126  0  1.000559  0
H  H91  1  0.63756355  0.54674745  0.99149685  1  0.070826  0  0.095121  0.101209  0  1.000533  0
H  H92  1  0.63838234  0.36669027  0.84708648  1  0.081433  0  0.106868  0.113784  0  0.9953  0
H  H93  1  0.36161703  0.13331161  0.34708627  1  0.081439  0  0.106843  0.113768  0  0.995336  0
H  H94  1  0.36162265  0.63330546  0.15291494  1  0.081322  0  0.106833  0.113737  0  0.995337  0
H  H95  1  0.63838308  0.86669145  0.65291466  1  0.081396  0  0.106852  0.113788  0  0.995319  0
H  H96  1  0.45861191  0.25745144  0.86709248  1  0.110046  0  0.098926  0.104953  0  1.01977  0
H  H97  1  0.54139074  0.24254761  0.36709275  1  0.110003  0  0.098894  0.104919  0  1.019797  0
H  H98  1  0.54139815  0.74254540  0.13291139  1  0.109886  0  0.098871  0.10487  0  1.01982  0
H  H99  1  0.45860653  0.75745321  0.63290769  1  0.109963  0  0.098896  0.104906  0  1.01976  0
H  H100  1  0.59433324  0.24481461  0.06452429  1  0.127575  0  0.104438  0.117358  0  1.01465  0
H  H101  1  0.40566520  0.25518728  0.56452352  1  0.127599  0  0.104453  0.117354  0  1.014641  0
H  H102  1  0.40567379  0.75518562  0.93548007  1  0.127468  0  0.104482  0.117417  0  1.01458  0
H  H103  1  0.59432858  0.74481186  0.43547741  1  0.12759  0  0.10446  0.117368  0  1.014651  0
H  H104  1  0.38007687  0.08235914  0.10100252  1  0.058625  0  0.093774  0.103824  0  1.028192  0
H  H105  1  0.61991473  0.41763769  0.60100078  1  0.058633  0  0.093786  0.103807  0  1.028246  0
H  H106  1  0.61992302  0.91763942  0.89900036  1  0.058502  0  0.093781  0.103766  0  1.028249  0
H  H107  1  0.38007880  0.58236089  0.39899917  1  0.058671  0  0.093775  0.103803  0  1.028247  0
H  H108  1  0.28100421  0.10243133  0.20452516  1  0.084015  0  0.105985  0.107632  0  1.003782  0
H  H109  1  0.71898795  0.39756268  0.70452441  1  0.084112  0  0.106002  0.107688  0  1.003696  0
H  H110  1  0.71899481  0.89756328  0.79547577  1  0.084133  0  0.106002  0.107726  0  1.003694  0
H  H111  1  0.28100740  0.60243589  0.29547408  1  0.084057  0  0.105976  0.107637  0  1.003798  0
H  H112  1  0.31486703  0.28864127  0.02715320  1  0.076506  0  0.102296  0.11346  0  1.013031  0
H  H113  1  0.68512886  0.21135499  0.52714999  1  0.076437  0  0.102339  0.113482  0  1.012998  0
H  H114  1  0.68513731  0.71135503  0.97284822  1  0.076302  0  0.102351  0.113549  0  1.012993  0
H  H115  1  0.31486244  0.78864472  0.47284556  1  0.0764  0  0.102328  0.113523  0  1.012943  0
C  C116  1  0.96181172  0.51952529  0.75998866  1  0.920108  0  0.137496  0.091459  0  3.891036  0
C  C117  1  0.03819802  0.98047442  0.25998648  1  0.919588  0  0.137515  0.091532  0  3.891217  0
C  C118  1  0.03820102  0.48047548  0.24001276  1  0.919541  0  0.137547  0.091579  0  3.891019  0
C  C119  1  0.96179984  0.01951963  0.74001201  1  0.919752  0  0.137571  0.091582  0  3.890619  0
C  C120  1  0.05921763  0.63898076  0.76973910  1  0.37872  0  0.003377  -0.00149  0  3.97767  0
C  C121  1  0.94077806  0.86102013  0.26973987  1  0.378777  0  0.003383  -0.001523  0  3.977573  0
C  C122  1  0.94077989  0.36102063  0.23026086  1  0.379033  0  0.003377  -0.00157  0  3.977602  0
C  C123  1  0.05921667  0.13897507  0.73025812  1  0.37875  0  0.003408  -0.001639  0  3.977767  0
C  C124  1  0.05880102  0.62183723  0.70463882  1  0.37019  0  -0.009288  -0.119885  0  3.947535  0
C  C125  1  0.94119259  0.87816310  0.20463813  1  0.370325  0  -0.009299  -0.119868  0  3.94742  0
C  C126  1  0.94119585  0.37816472  0.29536211  1  0.369666  0  -0.009318  -0.11995  0  3.947447  0
C  C127  1  0.05880214  0.12183210  0.79535889  1  0.369683  0  -0.009387  -0.1201  0  3.947799  0
C  C128  1  0.98038612  0.50245901  0.63901487  1  0.317696  0  -0.057403  -0.06707  0  3.914312  0
C  C129  1  0.01961426  0.99754017  0.13901269  1  0.317715  0  -0.057425  -0.067147  0  3.914402  0
C  C130  1  0.01961894  0.49754292  0.36098753  1  0.317708  0  -0.057449  -0.067147  0  3.914308  0
C  C131  1  0.98038669  0.00245669  0.86098580  1  0.317371  0  -0.057459  -0.067104  0  3.914365  0
C  C132  1  0.06436583  0.44846300  0.63522489  1  -0.042752  0  -0.163968  -0.167957  0  3.940229  0
C  C133  1  0.93563291  0.05153550  0.13522420  1  -0.042819  0  -0.163978  -0.167886  0  3.94034  0
C  C134  1  0.93563341  0.55153612  0.36477506  1  -0.043121  0  -0.163959  -0.167838  0  3.939985  0
C  C135  1  0.06436906  0.94846362  0.86477527  1  -0.042771  0  -0.16396  -0.167877  0  3.940211  0
C  C136  1  0.04707203  0.40900432  0.56902199  1  -0.047271  0  -0.165966  -0.16288  0  3.946588  0
C  C137  1  0.95292721  0.09099531  0.06902032  1  -0.046838  0  -0.166005  -0.163094  0  3.946733  0
C  C138  1  0.95292732  0.59099706  0.43098041  1  -0.046824  0  -0.165969  -0.162994  0  3.946575  0
C  C139  1  0.04707450  0.90900325  0.93098012  1  -0.046765  0  -0.166029  -0.163114  0  3.946598  0
C  C140  1  0.12033869  0.34953287  0.56324585  1  0.297945  0  -0.048334  -0.06325  0  3.851707  0
C  C141  1  0.87965873  0.15046677  0.06324663  1  0.297959  0  -0.048322  -0.063189  0  3.851598  0
C  C142  1  0.87965742  0.65046740  0.43675166  1  0.297916  0  -0.048321  -0.063209  0  3.851517  0
C  C143  1  0.12034556  0.84953347  0.93675333  1  0.297916  0  -0.04826  -0.063142  0  3.851571  0
C  C144  1  0.06273093  0.25720285  0.47073518  1  0.95911  0  0.147957  0.102505  0  3.871396  0
C  C145  1  0.93726689  0.24279960  0.97073737  1  0.959157  0  0.147925  0.102515  0  3.871497  0
C  C146  1  0.93726609  0.74279741  0.52926232  1  0.958664  0  0.147931  0.102482  0  3.871508  0
C  C147  1  0.06273504  0.75720346  0.02926405  1  0.958813  0  0.147937  0.102436  0  3.87146  0
C  C148  1  0.16922207  0.32335929  0.39032102  1  0.382759  0  0.001572  -0.024789  0  3.994182  0
C  C149  1  0.83078003  0.17664259  0.89032222  1  0.383044  0  0.001487  -0.024921  0  3.994481  0
C  C150  1  0.83077716  0.67663984  0.60967698  1  0.38306  0  0.001526  -0.024904  0  3.994317  0
C  C151  1  0.16922099  0.82336047  0.10967871  1  0.382749  0  0.001588  -0.024795  0  3.994282  0
C  C152  1  0.19117064  0.36786240  0.44508409  1  0.326286  0  -0.006649  -0.120024  0  3.944713  0
C  C153  1  0.80882965  0.13213949  0.94508480  1  0.325713  0  -0.006603  -0.119943  0  3.944697  0
C  C154  1  0.80882638  0.63213786  0.55491390  1  0.325641  0  -0.006659  -0.12  0  3.944717  0
C  C155  1  0.19117385  0.86786301  0.05491613  1  0.326243  0  -0.006659  -0.120014  0  3.944596  0
C  C156  1  0.80044821  0.06179150  0.38689583  1  0.947435  0  0.153156  0.111933  0  3.842862  0
C  C157  1  0.19954803  0.43821152  0.88689652  1  0.947374  0  0.15305  0.111686  0  3.8424  0
C  C158  1  0.19954993  0.93821326  0.61310559  1  0.947685  0  0.153051  0.111869  0  3.842494  0
C  C159  1  0.80045197  0.56178929  0.11310245  1  0.947396  0  0.153092  0.111837  0  3.842408  0
C  C160  1  0.76906260  0.13701697  0.30955529  1  0.395702  0  -0.002938  -0.038717  0  4.015124  0
C  C161  1  0.23093403  0.36298493  0.80955697  1  0.395935  0  -0.002989  -0.038885  0  4.015419  0
C  C162  1  0.23093477  0.86298611  0.69044466  1  0.395891  0  -0.002993  -0.03888  0  4.01534  0
C  C163  1  0.76906663  0.63701532  0.19044152  1  0.395984  0  -0.003029  -0.038979  0  4.015384  0
C  C164  1  0.65254785  0.09357374  0.32870902  1  0.280132  0  0.001937  -0.113506  0  3.941875  0
C  C165  1  0.34744813  0.40642872  0.82871021  1  0.279496  0  0.001947  -0.113445  0  3.941869  0
C  C166  1  0.34744902  0.90642821  0.67129093  1  0.279533  0  0.001938  -0.113426  0  3.941805  0
C  C167  1  0.65255147  0.59357322  0.17128632  1  0.279432  0  0.00196  -0.11346  0  3.941714  0
C  C168  1  0.57803131  0.99321858  0.41598385  1  0.253935  0  -0.044072  -0.056924  0  3.852134  0
C  C169  1  0.42196349  0.50678231  0.91598406  1  0.253656  0  -0.04407  -0.056909  0  3.852237  0
C  C170  1  0.42196283  0.00678338  0.58401561  1  0.253631  0  -0.044068  -0.056899  0  3.852261  0
C  C171  1  0.57803768  0.49321906  0.08401247  1  0.253568  0  -0.044066  -0.056795  0  3.851965  0
C  C172  1  0.54961915  0.02823547  0.48006904  1  -0.040739  0  -0.164153  -0.168017  0  3.92938  0
C  C173  1  0.45037659  0.47176643  0.98006876  1  -0.012099  0  -0.164177  -0.16808  0  3.929421  0
C  C174  1  0.45037110  0.97176594  0.51992994  1  -0.012097  0  -0.164241  -0.168164  0  3.929459  0
C  C175  1  0.54962275  0.52823495  0.01992923  1  -0.040848  0  -0.164203  -0.168104  0  3.929419  0
C  C176  1  0.82421194  0.43528854  0.92772998  1  1.593023  0  0.224286  0.612093  0  4.165422  0
C  C177  1  0.17578536  0.06471279  0.42772780  1  1.593797  0  0.224236  0.612058  0  4.165534  0
C  C178  1  0.17579418  0.56471169  0.07227144  1  1.592871  0  0.224197  0.612045  0  4.165544  0
C  C179  1  0.82420776  0.93528692  0.57227020  1  1.593617  0  0.224173  0.611974  0  4.165682  0
C  C180  1  0.71692411  0.36806423  0.94379687  1  -0.08297  0  -0.002535  -0.035627  0  3.938272  0
C  C181  1  0.28307254  0.13193766  0.44379567  1  -0.083318  0  -0.002525  -0.035752  0  3.938454  0
C  C182  1  0.28308579  0.63193430  0.05620455  1  -0.082805  0  -0.002469  -0.035572  0  3.938212  0
C  C183  1  0.71692069  0.86806430  0.55620135  1  -0.082878  0  -0.002572  -0.035722  0  3.938306  0
C  C184  1  0.62651562  0.34046435  0.89524902  1  -0.03949  0  -0.086181  -0.099364  0  3.979918  0
C  C185  1  0.37348572  0.15953584  0.39524881  1  -0.039169  0  -0.086168  -0.099362  0  3.980024  0
C  C186  1  0.37349600  0.65953192  0.10475288  1  -0.039424  0  -0.086073  -0.099255  0  3.979922  0
C  C187  1  0.62650947  0.84046442  0.60475212  1  -0.039478  0  -0.086117  -0.099391  0  3.979997  0
C  C188  1  0.52483195  0.27804617  0.90673040  1  -0.006937  0  -0.093516  -0.130102  0  3.989719  0
C  C189  1  0.47517071  0.22195289  0.40673019  1  -0.006949  0  -0.093477  -0.12998  0  3.989706  0
C  C190  1  0.47517876  0.72195011  0.09327297  1  -0.007156  0  -0.093562  -0.130047  0  3.989888  0
C  C191  1  0.52482616  0.77804906  0.59327074  1  -0.007008  0  -0.093569  -0.13001  0  3.989806  0
C  C192  1  0.50973924  0.24333183  0.96824902  1  -0.086578  0  -0.024821  0.069265  0  3.976709  0
C  C193  1  0.49026433  0.25666722  0.46824929  1  -0.086406  0  -0.024809  0.069174  0  3.976739  0
C  C194  1  0.49026976  0.75666670  0.03175436  1  -0.086165  0  -0.024781  0.069145  0  3.976764  0
C  C195  1  0.50973542  0.74333303  0.53175115  1  -0.086422  0  -0.024772  0.069166  0  3.976853  0
C  C196  1  0.60049592  0.27072219  0.01633045  1  0.006656  0  -0.084301  -0.13367  0  3.945309  0
C  C197  1  0.39950473  0.22927856  0.51633066  1  0.006351  0  -0.084271  -0.133568  0  3.94521  0
C  C198  1  0.39951202  0.72927804  0.98367243  1  0.007515  0  -0.084301  -0.133593  0  3.94517  0
C  C199  1  0.60048930  0.77072115  0.48366978  1  0.006382  0  -0.084308  -0.133671  0  3.945381  0
C  C200  1  0.70514192  0.33132851  0.00452929  1  0.011999  0  -0.016727  -0.053259  0  3.967877  0
C  C201  1  0.29485782  0.16867224  0.50452950  1  0.012006  0  -0.016758  -0.053188  0  3.967869  0
C  C202  1  0.29486576  0.66867116  0.99547213  1  0.010844  0  -0.016835  -0.053466  0  3.968053  0
C  C203  1  0.70513763  0.83132858  0.49547045  1  0.011987  0  -0.016694  -0.053082  0  3.967699  0
C  C204  1  0.80676332  0.34999945  0.05613757  1  1.565957  0  0.191359  0.541288  0  4.280153  0
C  C205  1  0.19323719  0.15000299  0.55613777  1  1.565973  0  0.191304  0.541168  0  4.280391  0
C  C206  1  0.19324669  0.65000133  0.94386287  1  1.565956  0  0.191434  0.541507  0  4.280021  0
C  C207  1  0.80675801  0.84999727  0.44386169  1  1.565949  0  0.191289  0.541249  0  4.280255  0
C  C208  1  0.40278220  0.17360781  0.98597888  1  0.067238  0  -0.009784  -0.265707  0  3.860092  0
C  C209  1  0.59721849  0.32639295  0.48597769  1  0.067349  0  -0.009859  -0.265843  0  3.860254  0
C  C210  1  0.59722548  0.82639185  0.01402352  1  0.067189  0  -0.009741  -0.265511  0  3.859758  0
C  C211  1  0.40277565  0.67360901  0.51402177  1  0.067338  0  -0.009766  -0.265541  0  3.859821  0
C  C212  1  0.28909584  0.15998994  0.93766231  1  1.698024  0  0.304524  0.672284  0  3.958693  0
C  C213  1  0.71090627  0.34001193  0.43766211  1  1.697967  0  0.304558  0.672104  0  3.958744  0
C  C214  1  0.71091079  0.84001141  0.06233911  1  1.698264  0  0.304569  0.672176  0  3.958757  0
C  C215  1  0.28909257  0.65998832  0.56233736  1  1.697994  0  0.304553  0.67204  0  3.958866  0
C  C216  1  0.45817254  0.10409301  0.98124179  1  1.689751  0  0.302853  0.67738  0  3.961925  0
C  C217  1  0.54182259  0.39590551  0.48124207  1  1.689457  0  0.302917  0.677609  0  3.961657  0
C  C218  1  0.54183322  0.89590441  0.01876110  1  1.690332  0  0.302891  0.677571  0  3.961562  0
C  C219  1  0.45817130  0.60409588  0.51875838  1  1.690407  0  0.302874  0.677523  0  3.961766  0
C  C220  1  0.35082115  0.18282697  0.05457141  1  -0.086943  0  -0.019261  0.086916  0  3.975912  0
C  C221  1  0.64917626  0.31717266  0.55457065  1  -0.086986  0  -0.019259  0.086971  0  3.975879  0
C  C222  1  0.64918264  0.81717214  0.94543197  1  -0.087089  0  -0.019322  0.086774  0  3.975938  0
C  C223  1  0.35081711  0.68282761  0.44542882  1  -0.086909  0  -0.019191  0.08692  0  3.975763  0
C  C224  1  0.34355701  0.13144019  0.10578264  1  -0.015293  0  -0.107225  -0.161235  0  4.016029  0
C  C225  1  0.65644067  0.36856001  0.60578090  1  -0.01506  0  -0.107155  -0.161157  0  4.016325  0
C  C226  1  0.65644638  0.86856005  0.89422073  1  -0.014774  0  -0.10716  -0.160987  0  4.016253  0
C  C227  1  0.34355493  0.63143913  0.39421954  1  -0.015028  0  -0.107194  -0.161159  0  4.016276  0
C  C228  1  0.28695408  0.14243041  0.16462320  1  -0.043598  0  -0.086892  -0.087342  0  3.998972  0
C  C229  1  0.71303803  0.35756755  0.66462048  1  -0.044086  0  -0.086942  -0.087436  0  3.999266  0
C  C230  1  0.71304192  0.85756760  0.83538018  1  -0.044056  0  -0.086934  -0.087609  0  3.99923  0
C  C231  1  0.28695913  0.64243102  0.33537801  1  -0.04412  0  -0.086909  -0.087378  0  3.999367  0
C  C232  1  0.23167776  0.20204735  0.17322702  1  -0.000373  0  -0.009574  -0.044014  0  3.920205  0
C  C233  1  0.76831319  0.29795005  0.67322528  1  8.1e-05  0  -0.009605  -0.043988  0  3.920362  0
C  C234  1  0.76831682  0.79794954  0.82677538  1  0.000201  0  -0.009569  -0.043929  0  3.920201  0
C  C235  1  0.23168761  0.70204851  0.32677174  1  0.000188  0  -0.009597  -0.044027  0  3.920379  0
C  C236  1  0.15014808  0.20175272  0.23220155  1  1.551597  0  0.198043  0.556201  0  4.238227  0
C  C237  1  0.84983975  0.29824581  0.73219884  1  1.551874  0  0.198118  0.556382  0  4.238147  0
C  C238  1  0.84984763  0.79824867  0.76780232  1  1.551973  0  0.198134  0.556438  0  4.238017  0
C  C239  1  0.15016146  0.70175162  0.26779818  1  1.551713  0  0.198053  0.556214  0  4.238198  0
C  C240  1  0.24421636  0.25586193  0.12310031  1  0.017017  0  0.004672  0.002445  0  3.900046  0
C  C241  1  0.75577590  0.24413434  0.62309906  1  0.01701  0  0.004683  0.002427  0  3.89998  0
C  C242  1  0.75578652  0.74413719  0.87690258  1  0.01667  0  0.00466  0.002407  0  3.900056  0
C  C243  1  0.24421646  0.75586368  0.37689894  1  0.016855  0  0.004659  0.002475  0  3.899882  0
C  C244  1  0.19999732  0.32654833  0.12891312  1  1.622694  0  0.198691  0.583502  0  4.242989  0
C  C245  1  0.80000714  0.17345072  0.62891138  1  1.62269  0  0.198822  0.583597  0  4.24279  0
C  C246  1  0.80001255  0.67345415  0.87109075  1  1.623591  0  0.198694  0.583489  0  4.242721  0
C  C247  1  0.19998963  0.82654897  0.37108466  1  1.622698  0  0.198813  0.58352  0  4.242826  0
C  C248  1  0.30527145  0.24608010  0.06514576  1  -0.022066  0  -0.091902  -0.163523  0  3.934623  0
C  C249  1  0.69472247  0.25391785  0.56514255  1  -0.022141  0  -0.091947  -0.163532  0  3.934495  0
C  C250  1  0.69473208  0.75391845  0.93485908  1  -0.021893  0  -0.091967  -0.16359  0  3.934492  0
C  C251  1  0.30526726  0.74608243  0.43485495  1  -0.022021  0  -0.091978  -0.16364  0  3.934442  0
N  N252  1  0.99861095  0.57477700  0.80358916  1  -1.219059  0  -0.358002  -0.29296  0  3.628286  0
N  N253  1  0.00139476  0.92522386  0.30358747  1  -1.218929  0  -0.358038  -0.293088  0  3.628523  0
N  N254  1  0.00139725  0.42522379  0.19641275  1  -1.21899  0  -0.358012  -0.293011  0  3.6284  0
N  N255  1  0.99860154  0.07477077  0.69641004  1  -1.21909  0  -0.358005  -0.292966  0  3.628398  0
N  N256  1  0.99717939  0.54621447  0.69916536  1  -1.252583  0  -0.246094  0.042545  0  3.78431  0
N  N257  1  0.00282151  0.95378584  0.19916415  1  -1.252304  0  -0.246046  0.04265  0  3.784263  0
N  N258  1  0.00282724  0.45378689  0.30083557  1  -1.251855  0  -0.246064  0.042707  0  3.783943  0
N  N259  1  0.99717439  0.04620992  0.80083384  1  -1.252145  0  -0.246102  0.042565  0  3.784096  0
N  N260  1  0.12405104  0.32506209  0.49535750  1  -1.238016  0  -0.237346  0.055934  0  3.764763  0
N  N261  1  0.87594561  0.17493981  0.99535919  1  -1.23798  0  -0.237404  0.055841  0  3.764844  0
N  N262  1  0.87594325  0.67493818  0.50464050  1  -1.237696  0  -0.237388  0.055895  0  3.764689  0
N  N263  1  0.12405828  0.82506156  0.00464175  1  -1.237739  0  -0.237395  0.055871  0  3.764763  0
N  N264  1  0.08888993  0.25445020  0.40699716  1  -1.253896  0  -0.366413  -0.305575  0  3.639532  0
N  N265  1  0.91111178  0.24555281  0.90699885  1  -1.253881  0  -0.366258  -0.30543  0  3.639643  0
N  N266  1  0.91111007  0.74555062  0.59300133  1  -1.253537  0  -0.366331  -0.305508  0  3.639606  0
N  N267  1  0.08888859  0.75445082  0.09300306  1  -1.25392  0  -0.36642  -0.305549  0  3.639582  0
N  N268  1  0.86043274  0.11653525  0.34621005  1  -1.253257  0  -0.363193  -0.294694  0  3.62348  0
N  N269  1  0.13956273  0.38346608  0.84621123  1  -1.252773  0  -0.363133  -0.294583  0  3.62349  0
N  N270  1  0.13956398  0.88346839  0.65379039  1  -1.253074  0  -0.363138  -0.294633  0  3.62355  0
N  N271  1  0.86043651  0.61653305  0.15378872  1  -1.252813  0  -0.363135  -0.294567  0  3.623654  0
N  N272  1  0.67420631  0.04640867  0.37737519  1  -1.213545  0  -0.233718  0.053721  0  3.762035  0
N  N273  1  0.32579059  0.45359379  0.87737540  1  -1.213301  0  -0.23367  0.053833  0  3.761856  0
N  N274  1  0.32579107  0.95359441  0.62262525  1  -1.213271  0  -0.233663  0.053777  0  3.761784  0
N  N275  1  0.67420992  0.54640815  0.12262162  1  -1.213283  0  -0.233645  0.053741  0  3.761834  0
O  O276  1  0.92181425  0.42640243  0.89856568  1  -1.182048  0  -0.311799  -0.546832  0  2.388759  0
O  O277  1  0.07818280  0.07359833  0.39856301  1  -1.182421  0  -0.311846  -0.546875  0  2.388741  0
O  O278  1  0.07819340  0.57360118  0.10143428  1  -1.182168  0  -0.311775  -0.546848  0  2.388894  0
O  O279  1  0.92180891  0.92640025  0.60143597  1  -1.182258  0  -0.311767  -0.546804  0  2.388816  0
O  O280  1  0.80852366  0.50011090  0.93856642  1  -1.14562  0  -0.299816  -0.511911  0  2.277409  0
O  O281  1  0.19147801  0.99989110  0.43856571  1  -1.146091  0  -0.299766  -0.511799  0  2.277334  0
O  O282  1  0.19148013  0.49988822  0.06143500  1  -1.145515  0  -0.299767  -0.511829  0  2.27732  0
O  O283  1  0.80852082  0.00010915  0.56143131  1  -1.14611  0  -0.299767  -0.511832  0  2.277462  0
O  O284  1  0.89839185  0.40941187  0.04400049  1  -1.166265  0  -0.326546  -0.553592  0  2.336252  0
O  O285  1  0.10160997  0.09058944  0.54400020  1  -1.166173  0  -0.326535  -0.553628  0  2.336345  0
O  O286  1  0.10161816  0.59058892  0.95599947  1  -1.166122  0  -0.326549  -0.553674  0  2.336381  0
O  O287  1  0.89838523  0.90941082  0.45599975  1  -1.166144  0  -0.32655  -0.553653  0  2.33631  0
O  O288  1  0.79983714  0.30704176  0.10388644  1  -1.164338  0  -0.32109  -0.540404  0  2.136803  0
O  O289  1  0.20016560  0.19295955  0.60388665  1  -1.164406  0  -0.321058  -0.540335  0  2.136956  0
O  O290  1  0.20017535  0.69295846  0.89611351  1  -1.164322  0  -0.321198  -0.54057  0  2.136758  0
O  O291  1  0.79983207  0.80704014  0.39611379  1  -1.164377  0  -0.321056  -0.540398  0  2.136982  0
O  O292  1  0.17327055  0.16333303  0.28214539  1  -1.175589  0  -0.339252  -0.569232  0  2.338149  0
O  O293  1  0.82672274  0.33666549  0.78214219  1  -1.175464  0  -0.339357  -0.56945  0  2.338193  0
O  O294  1  0.82672909  0.83666496  0.71785750  1  -1.175523  0  -0.33935  -0.569404  0  2.338186  0
O  O295  1  0.17327923  0.66333363  0.21785337  1  -1.175383  0  -0.339275  -0.569347  0  2.338185  0
O  O296  1  0.06133720  0.23234157  0.23084125  1  -1.158443  0  -0.309907  -0.537092  0  2.142448  0
O  O297  1  0.93865052  0.26765471  0.73083609  1  -1.158809  0  -0.309829  -0.537098  0  2.142299  0
O  O298  1  0.93866174  0.76766093  0.76916751  1  -1.158893  0  -0.309847  -0.537127  0  2.142285  0
O  O299  1  0.06134953  0.73234216  0.26916044  1  -1.158819  0  -0.309882  -0.53704  0  2.142317  0
O  O300  1  0.25672374  0.37751612  0.16624705  1  -1.160667  0  -0.339634  -0.554176  0  2.050445  0
O  O301  1  0.74327232  0.12247844  0.66624482  1  -1.160629  0  -0.339722  -0.554234  0  2.050168  0
O  O302  1  0.74328264  0.62248467  0.83375682  1  -1.16137  0  -0.339645  -0.554202  0  2.050324  0
O  O303  1  0.25671761  0.87751620  0.33374975  1  -1.1607  0  -0.339663  -0.554159  0  2.050359  0
O  O304  1  0.10819245  0.32868227  0.08932017  1  -1.173909  0  -0.337056  -0.576999  0  2.300845  0
O  O305  1  0.89182142  0.17132351  0.58932480  1  -1.174014  0  -0.337148  -0.577091  0  2.300902  0
O  O306  1  0.89182389  0.67132244  0.91067929  1  -1.174292  0  -0.337106  -0.577045  0  2.300647  0
O  O307  1  0.10817727  0.82867843  0.41067369  1  -1.174101  0  -0.337139  -0.577048  0  2.300837  0
F  F308  1  0.24965359  0.22325819  0.92763218  1  -0.623  0  -0.081895  -0.192033  0  1.351451  0
F  F309  1  0.75034776  0.27674200  0.42763539  1  -0.622968  0  -0.081938  -0.192013  0  1.351469  0
F  F310  1  0.75034929  0.77674093  0.07236289  1  -0.622997  0  -0.081895  -0.191979  0  1.351547  0
F  F311  1  0.24964992  0.72325769  0.57236358  1  -0.622955  0  -0.081937  -0.191968  0  1.35149  0
F  F312  1  0.18694028  0.10668733  0.96124362  1  -0.625341  0  -0.090261  -0.207264  0  1.371725  0
F  F313  1  0.81306638  0.39331454  0.46124048  1  -0.625254  0  -0.090309  -0.207245  0  1.371724  0
F  F314  1  0.81307050  0.89331514  0.03875976  1  -0.625324  0  -0.090292  -0.207249  0  1.371734  0
F  F315  1  0.18693832  0.60668457  0.53875703  1  -0.625278  0  -0.090272  -0.207195  0  1.371785  0
F  F316  1  0.31498902  0.13559962  0.87763358  1  -0.616672  0  -0.091989  -0.204359  0  1.343197  0
F  F317  1  0.68500868  0.36440058  0.37763435  1  -0.616749  0  -0.091917  -0.204233  0  1.343208  0
F  F318  1  0.68501958  0.86440004  0.12236833  1  -0.616716  0  -0.091977  -0.204354  0  1.343262  0
F  F319  1  0.31498611  0.63560082  0.62236756  1  -0.61673  0  -0.091959  -0.204317  0  1.343251  0
F  F320  1  0.51361241  0.10001012  0.92257775  1  -0.613173  0  -0.096755  -0.202869  0  1.34215  0
F  F321  1  0.48638555  0.39999064  0.42257754  1  -0.612798  0  -0.096767  -0.202928  0  1.342098  0
F  F322  1  0.48639284  0.89998617  0.07742562  1  -0.613194  0  -0.096769  -0.202854  0  1.342002  0
F  F323  1  0.51360859  0.60001131  0.57742339  1  -0.61318  0  -0.096759  -0.202878  0  1.342086  0
F  F324  1  0.36792092  0.03711893  0.98935518  1  -0.617006  0  -0.103285  -0.222789  0  1.347582  0
F  F325  1  0.63207406  0.46288128  0.48935790  1  -0.616967  0  -0.103294  -0.2228  0  1.347416  0
F  F326  1  0.63208640  0.96287792  0.01064771  1  -0.617358  0  -0.103245  -0.222834  0  1.347595  0
F  F327  1  0.36791957  0.53711955  0.51064352  1  -0.617376  0  -0.103278  -0.222836  0  1.34753  0
F  F328  1  0.54789618  0.10647847  0.02782161  1  -0.61371  0  -0.084739  -0.196523  0  1.365635  0
F  F329  1  0.45209658  0.39351892  0.52782036  1  -0.613786  0  -0.084781  -0.196632  0  1.365631  0
F  F330  1  0.45210878  0.89352120  0.97218127  1  -0.613847  0  -0.084879  -0.196759  0  1.365496  0
F  F331  1  0.54789523  0.60648192  0.47217862  1  -0.613944  0  -0.084823  -0.19666  0  1.365739  0
