# generated using pymatgen
data_ZnH28C30NO6
_symmetry_space_group_name_H-M   'P 1'
_cell_length_a   14.45474230
_cell_length_b   18.25297896
_cell_length_c   19.57546856
_cell_angle_alpha   90.00195750
_cell_angle_beta   89.92678107
_cell_angle_gamma   89.99833056
_symmetry_Int_Tables_number   1
_chemical_formula_structural   ZnH28C30NO6
_chemical_formula_sum   'Zn2 H56 C60 N2 O12'
_cell_volume   5164.82865189
_cell_formula_units_Z   2
loop_
 _symmetry_equiv_pos_site_id
 _symmetry_equiv_pos_as_xyz
  1  'x, y, z'
loop_
 _atom_site_type_symbol
 _atom_site_label
 _atom_site_symmetry_multiplicity
 _atom_site_fract_x
 _atom_site_fract_y
 _atom_site_fract_z
 _atom_site_occupancy
 _atom_site_pbe_bader_charge
 _atom_site_pbe_bader_spin_density
 _atom_site_pbe_cm5_charge
 _atom_site_pbe_ddec_charge
 _atom_site_pbe_ddec_spin_density
 _atom_site_pbe_ddec_sum_bond_order
 _atom_site_pbe_magmom
Zn  Zn0  1  0.50000758  0.42273473  0.50000102  1  1.289563  0  0.674495  0.81711  0  2.424292  0
Zn  Zn1  1  0.50000837  0.57689532  0.49999416  1  1.26809  0  0.673884  0.815913  0  2.43811  0
H  H2  1  0.61720971  0.57498651  0.84181554  1  0.053519  0  0.10597  0.122828  0  1.003448  0
H  H3  1  0.40943123  0.82892982  0.41203512  1  0.085303  0  0.113935  0.119955  0  0.991619  0
H  H4  1  0.40631584  0.17028778  0.41388472  1  0.073891  0  0.113594  0.118816  0  0.992412  0
H  H5  1  0.59056627  0.82893032  0.58796592  1  0.08548  0  0.113927  0.119895  0  0.991693  0
H  H6  1  0.48984618  0.06710026  0.39011087  1  0.053959  0  0.108084  0.107429  0  0.994667  0
H  H7  1  0.50999131  0.93230243  0.60987912  1  0.10658  0  0.107849  0.106693  0  0.994545  0
H  H8  1  0.51016163  0.06711161  0.60989217  1  0.053816  0  0.108036  0.107383  0  0.99458  0
H  H9  1  0.49001201  0.93229437  0.39012658  1  0.106417  0  0.107867  0.106749  0  0.994539  0
H  H10  1  0.72390557  0.58352569  0.63518152  1  0.069547  0  0.098157  0.071881  0  0.987555  0
H  H11  1  0.69684688  0.49760622  0.67273416  1  0.029385  0  0.097278  0.064925  0  0.978196  0
H  H12  1  0.79476612  0.62457860  0.74589193  1  0.0413  0  0.088208  0.080806  0  0.975082  0
H  H13  1  0.61566524  0.42652959  0.15745224  1  0.034889  0  0.106492  0.122923  0  1.002882  0
H  H14  1  0.77280429  0.53746806  0.78201502  1  0.01444  0  0.087642  0.079093  0  0.985982  0
H  H15  1  0.87693019  0.47818718  0.69398817  1  -0.010477  0  0.084514  0.109081  0  1.003625  0
H  H16  1  0.93766537  0.54712414  0.73940381  1  0.000216  0  0.08599  0.111591  0  1.01365  0
H  H17  1  0.89680040  0.56463368  0.65555968  1  0.040042  0  0.084097  0.11022  0  1.010322  0
H  H18  1  0.72119372  0.41497592  0.36419673  1  0.038997  0  0.100395  0.077602  0  0.977591  0
H  H19  1  0.69365207  0.50183724  0.32860805  1  0.076289  0  0.097533  0.065676  0  0.977558  0
H  H20  1  0.79385983  0.37743957  0.25315691  1  0.024291  0  0.088978  0.08199  0  0.974938  0
H  H21  1  0.76989515  0.46478192  0.21825698  1  0.023188  0  0.087426  0.078799  0  0.986311  0
H  H22  1  0.87298976  0.52417877  0.30659229  1  0.006122  0  0.084554  0.109261  0  1.003854  0
H  H23  1  0.93497095  0.45679155  0.25999673  1  0.025499  0  0.084816  0.10993  0  1.014493  0
H  H24  1  0.38273652  0.57498996  0.15820385  1  0.05344  0  0.105931  0.122575  0  1.00371  0
H  H25  1  0.89514414  0.43748348  0.34382851  1  0.014457  0  0.08409  0.110039  0  1.011179  0
H  H26  1  0.27607055  0.58360250  0.36482078  1  0.070826  0  0.098114  0.071816  0  0.987425  0
H  H27  1  0.30315315  0.49764866  0.32732991  1  0.029521  0  0.097304  0.064886  0  0.978506  0
H  H28  1  0.20522241  0.62454059  0.25407431  1  0.041767  0  0.088382  0.080927  0  0.975096  0
H  H29  1  0.22721863  0.53741053  0.21800428  1  0.013964  0  0.087563  0.079096  0  0.985961  0
H  H30  1  0.12309957  0.47818693  0.30607686  1  -0.010765  0  0.084625  0.109335  0  1.003473  0
H  H31  1  0.06234586  0.54706856  0.26059025  1  0.000591  0  0.085993  0.111654  0  1.013833  0
H  H32  1  0.10317362  0.56467658  0.34443081  1  0.039982  0  0.084133  0.110266  0  1.010146  0
H  H33  1  0.27877502  0.41498539  0.63578002  1  0.038283  0  0.100316  0.077525  0  0.97759  0
H  H34  1  0.30630498  0.50185406  0.67137082  1  0.075912  0  0.097624  0.065794  0  0.977614  0
H  H35  1  0.38426463  0.42655014  0.84252434  1  0.079603  0  0.106688  0.123037  0  1.002751  0
H  H36  1  0.20611780  0.37744359  0.74681667  1  0.024164  0  0.088973  0.081921  0  0.974826  0
H  H37  1  0.23007144  0.46478286  0.78172384  1  0.023303  0  0.087494  0.078879  0  0.986344  0
H  H38  1  0.12696707  0.52418360  0.69339952  1  0.006087  0  0.084582  0.109399  0  1.00363  0
H  H39  1  0.06500172  0.45679172  0.73999151  1  0.025699  0  0.084801  0.109835  0  1.014674  0
H  H40  1  0.10481882  0.43749021  0.65616068  1  0.014326  0  0.084224  0.110217  0  1.01107  0
H  H41  1  0.56208767  0.32554127  0.95638908  1  0.018612  0  0.088136  0.120763  0  1.004631  0
H  H42  1  0.44920260  0.33116391  0.92263701  1  0.055953  0  0.088486  0.117671  0  0.998774  0
H  H43  1  0.54287584  0.36861709  0.87620534  1  0.048708  0  0.089671  0.12882  0  1.015526  0
H  H44  1  0.56124625  0.67615519  0.04413831  1  0.014036  0  0.088415  0.121075  0  1.003813  0
H  H45  1  0.44785574  0.67036345  0.07721041  1  0.025402  0  0.087977  0.116886  0  0.999289  0
H  H46  1  0.58705697  0.30723677  0.58375062  1  0.143458  0  0.131419  0.108666  0  0.965559  0
H  H47  1  0.54106330  0.63285807  0.12409385  1  0.045611  0  0.089898  0.129059  0  1.015021  0
H  H48  1  0.43785973  0.32553362  0.04358394  1  0.018297  0  0.088257  0.121045  0  1.004831  0
H  H49  1  0.55074720  0.33115901  0.07732597  1  0.056496  0  0.088453  0.117832  0  0.998497  0
H  H50  1  0.45706919  0.36860100  0.12377511  1  0.049178  0  0.089685  0.128959  0  1.015452  0
H  H51  1  0.43866448  0.67615702  0.95587442  1  0.013234  0  0.088478  0.121213  0  1.003927  0
H  H52  1  0.55206575  0.67036983  0.92280981  1  0.026148  0  0.088036  0.116988  0  0.99909  0
H  H53  1  0.45885947  0.63286773  0.87592524  1  0.046231  0  0.089893  0.129019  0  1.01496  0
H  H54  1  0.41601341  0.69213466  0.41434818  1  0.142079  0  0.132319  0.111858  0  0.966875  0
H  H55  1  0.41295946  0.30723807  0.41624946  1  0.142973  0  0.131454  0.108765  0  0.965554  0
H  H56  1  0.58399861  0.69213453  0.58565179  1  0.141721  0  0.132331  0.11182  0  0.966831  0
H  H57  1  0.59369643  0.17028327  0.58611990  1  0.073448  0  0.113547  0.118745  0  0.992301  0
C  C58  1  0.49898621  0.49918274  0.36898596  1  1.535906  0  0.220588  0.634977  0  4.16449  0
C  C59  1  0.45271876  0.72516996  0.45207518  1  0.533366  0  0.063856  0.112004  0  3.907696  0
C  C60  1  0.45094156  0.27410936  0.45313929  1  0.40297  0  0.063508  0.111884  0  3.915414  0
C  C61  1  0.54729230  0.72516789  0.54792681  1  0.533281  0  0.063819  0.112105  0  3.907525  0
C  C62  1  0.55109986  0.19809174  0.54825418  1  0.043804  0  -0.077927  -0.178099  0  3.947771  0
C  C63  1  0.45069113  0.80120081  0.45073647  1  -0.07544  0  -0.078832  -0.179372  0  3.946281  0
C  C64  1  0.44891252  0.19809325  0.45174720  1  0.043794  0  -0.077999  -0.178072  0  3.947775  0
C  C65  1  0.54931318  0.80119879  0.54926322  1  -0.075578  0  -0.078864  -0.179394  0  3.946316  0
C  C66  1  0.50000796  0.15801137  0.49999753  1  -0.046366  0  0.016433  0.112027  0  3.995623  0
C  C67  1  0.49999970  0.84129600  0.50000020  1  0.038429  0  0.015839  0.11171  0  3.995478  0
C  C68  1  0.49284641  0.03775858  0.43858175  1  -0.14724  0  -0.083928  -0.120023  0  3.981532  0
C  C69  1  0.50101111  0.49918615  0.63100971  1  1.535097  0  0.220521  0.634968  0  4.164091  0
C  C70  1  0.50706717  0.96163370  0.56141031  1  -0.032929  0  -0.082945  -0.117305  0  3.980191  0
C  C71  1  0.50716209  0.03775875  0.56142193  1  -0.14725  0  -0.083867  -0.119895  0  3.981181  0
C  C72  1  0.49293961  0.96162915  0.43859270  1  -0.032444  0  -0.082938  -0.117332  0  3.98001  0
C  C73  1  0.50000583  0.92209432  0.50000091  1  -0.013715  0  -0.004342  0.061039  0  3.998338  0
C  C74  1  0.50000182  0.07725414  0.49999886  1  0.142758  0  -0.003598  0.063054  0  3.998228  0
C  C75  1  0.31992519  0.50081254  0.49930837  1  1.766504  0  0.217318  0.634292  0  4.293578  0
C  C76  1  0.68009347  0.50081116  0.50068633  1  1.766665  0  0.217323  0.634383  0  4.292959  0
C  C77  1  0.22012162  0.50049925  0.49916715  1  0.077668  0  -0.007057  -0.129146  0  3.861946  0
C  C78  1  0.77990330  0.50049605  0.50081938  1  0.078115  0  -0.007034  -0.129164  0  3.862283  0
C  C79  1  0.13523536  0.50037607  0.49940523  1  -0.241114  0  -0.024431  -0.001959  0  4.298197  0
C  C80  1  0.50308335  0.43379339  0.96407919  1  -0.101718  0  -0.017953  0.057258  0  3.94575  0
C  C81  1  0.86477849  0.50036504  0.50058843  1  -0.241558  0  -0.024469  -0.001991  0  4.298722  0
C  C82  1  0.04267931  0.50021618  0.49977157  1  0.046526  0  -0.011928  -0.016625  0  4.235359  0
C  C83  1  0.95733599  0.50023182  0.50020115  1  -0.186383  0  -0.011866  -0.016379  0  4.235148  0
C  C84  1  0.56454146  0.54315206  0.74399054  1  0.443438  0  0.079972  0.249376  0  4.076776  0
C  C85  1  0.56278813  0.45698190  0.25558799  1  0.47821  0  0.081017  0.250793  0  4.082408  0
C  C86  1  0.43542160  0.54314604  0.25601461  1  0.441306  0  0.079919  0.249336  0  4.076457  0
C  C87  1  0.43717554  0.45699309  0.74439821  1  0.477436  0  0.080763  0.250361  0  4.082729  0
C  C88  1  0.56553576  0.54223249  0.81527523  1  0.050797  0  -0.105087  -0.26352  0  3.978366  0
C  C89  1  0.56383942  0.45888323  0.18432878  1  0.010543  0  -0.105098  -0.263525  0  3.97865  0
C  C90  1  0.43441281  0.54222920  0.18473959  1  0.051074  0  -0.10496  -0.263031  0  3.978414  0
C  C91  1  0.50246632  0.56786865  0.03593237  1  -0.073768  0  -0.017899  0.057686  0  3.945907  0
C  C92  1  0.43609437  0.45890375  0.81565440  1  -0.039248  0  -0.105315  -0.263553  0  3.97838  0
C  C93  1  0.50079076  0.50070908  0.85210359  1  -0.0651  0  -0.008005  0.120144  0  4.035762  0
C  C94  1  0.49914764  0.50069165  0.14789771  1  -0.07031  0  -0.007945  0.120307  0  4.035749  0
C  C95  1  0.50107299  0.49973549  0.70758327  1  0.089564  0  -0.031532  -0.23984  0  3.949169  0
C  C96  1  0.49891392  0.49972857  0.29241394  1  0.08932  0  -0.031464  -0.240163  0  3.949446  0
C  C97  1  0.70908037  0.55601059  0.68394813  1  0.414834  0  -0.070384  0.037858  0  3.875747  0
C  C98  1  0.78887129  0.56582961  0.73377722  1  -0.038488  0  -0.172238  -0.136801  0  3.999838  0
C  C99  1  0.87994104  0.53740729  0.70414502  1  -0.019297  0  -0.244061  -0.350856  0  3.984091  0
C  C100  1  0.70663227  0.44381961  0.31611793  1  0.393909  0  -0.068638  0.040817  0  3.864706  0
C  C101  1  0.78673266  0.43589494  0.26607222  1  -0.024482  0  -0.172911  -0.139582  0  4.000192  0
C  C102  1  0.49684114  0.43379301  0.03590731  1  -0.013139  0  -0.018328  0.057139  0  3.9452  0
C  C103  1  0.87730089  0.46516846  0.29570168  1  -0.031099  0  -0.244274  -0.350838  0  3.985638  0
C  C104  1  0.29091354  0.55603892  0.31608042  1  0.413523  0  -0.070099  0.038335  0  3.875509  0
C  C105  1  0.21113098  0.56580191  0.26622813  1  -0.038317  0  -0.172467  -0.13709  0  3.999732  0
C  C106  1  0.12005976  0.53739844  0.29586815  1  -0.019449  0  -0.244148  -0.351179  0  3.984141  0
C  C107  1  0.29333511  0.44383420  0.68386225  1  0.394885  0  -0.068753  0.040551  0  3.865042  0
C  C108  1  0.21324221  0.43590064  0.73390619  1  -0.024712  0  -0.172884  -0.139397  0  3.999986  0
C  C109  1  0.12266498  0.46517263  0.70428068  1  -0.030773  0  -0.244474  -0.351138  0  3.985535  0
C  C110  1  0.51487540  0.36135026  0.92776763  1  -0.087293  0  -0.242126  -0.398016  0  3.9992  0
C  C111  1  0.51367459  0.64026027  0.07241346  1  -0.048568  0  -0.241905  -0.39752  0  3.99863  0
C  C112  1  0.48505838  0.36134034  0.07221158  1  -0.088585  0  -0.242054  -0.398544  0  3.998872  0
C  C113  1  0.49745831  0.56787233  0.96407862  1  0.023499  0  -0.017925  0.057395  0  3.946087  0
C  C114  1  0.48624973  0.64026968  0.92760636  1  -0.049204  0  -0.241919  -0.397547  0  3.998443  0
C  C115  1  0.49934147  0.50082167  0.07195159  1  0.080879  0  -0.017819  -0.06077  0  3.969393  0
C  C116  1  0.50058309  0.50082614  0.92804562  1  0.080934  0  -0.017788  -0.060483  0  3.969614  0
C  C117  1  0.54907236  0.27410780  0.54686183  1  0.402372  0  0.063536  0.112108  0  3.915231  0
N  N118  1  0.50000391  0.31143673  0.50000087  1  -1.225328  0  -0.320742  -0.196827  0  3.524046  0
N  N119  1  0.50000789  0.68791720  0.49999941  1  -1.230794  0  -0.322861  -0.200436  0  3.529097  0
O  O120  1  0.47545401  0.43980891  0.39827416  1  -1.162277  0  -0.313422  -0.547729  0  2.317626  0
O  O121  1  0.62270592  0.41095440  0.28957597  1  -1.078632  0  -0.216758  -0.254331  0  2.48366  0
O  O122  1  0.37552370  0.58898038  0.29074542  1  -1.077692  0  -0.218013  -0.259894  0  2.490095  0
O  O123  1  0.37727141  0.41097589  0.71039709  1  -1.079438  0  -0.216482  -0.254021  0  2.484031  0
O  O124  1  0.47719105  0.55817433  0.60131236  1  -1.160089  0  -0.314684  -0.54445  0  2.314581  0
O  O125  1  0.52456135  0.43981279  0.60171972  1  -1.162259  0  -0.313395  -0.547786  0  2.317463  0
O  O126  1  0.52281939  0.55816983  0.39868305  1  -1.160817  0  -0.31468  -0.544364  0  2.314586  0
O  O127  1  0.35878396  0.44079358  0.51559278  1  -1.134567  0  -0.303357  -0.53121  0  2.275172  0
O  O128  1  0.64158968  0.56103071  0.51681414  1  -1.143083  0  -0.303846  -0.53253  0  2.278534  0
O  O129  1  0.64122994  0.44078944  0.48440419  1  -1.134501  0  -0.303297  -0.531209  0  2.275082  0
O  O130  1  0.35842124  0.56103360  0.48318544  1  -1.143314  0  -0.303778  -0.532426  0  2.278565  0
O  O131  1  0.62446237  0.58896468  0.70927287  1  -1.078141  0  -0.217636  -0.259483  0  2.490273  0
