# generated using pymatgen
data_ZnH15C22(NO2)3
_symmetry_space_group_name_H-M   'P 1'
_cell_length_a   14.05564014
_cell_length_b   15.20847372
_cell_length_c   17.39588667
_cell_angle_alpha   83.28127332
_cell_angle_beta   97.18201408
_cell_angle_gamma   89.26100145
_symmetry_Int_Tables_number   1
_chemical_formula_structural   ZnH15C22(NO2)3
_chemical_formula_sum   'Zn2 H30 C44 N6 O12'
_cell_volume   3662.68513988
_cell_formula_units_Z   2
loop_
 _symmetry_equiv_pos_site_id
 _symmetry_equiv_pos_as_xyz
  1  'x, y, z'
loop_
 _atom_site_type_symbol
 _atom_site_label
 _atom_site_symmetry_multiplicity
 _atom_site_fract_x
 _atom_site_fract_y
 _atom_site_fract_z
 _atom_site_occupancy
 _atom_site_pbe_bader_charge
 _atom_site_pbe_bader_spin_density
 _atom_site_pbe_cm5_charge
 _atom_site_pbe_ddec_charge
 _atom_site_pbe_ddec_spin_density
 _atom_site_pbe_ddec_sum_bond_order
 _atom_site_pbe_magmom
Zn  Zn0  1  0.60766677  0.49880124  0.50798743  1  1.288134  0  0.674056  0.837886  0  2.367869  0
Zn  Zn1  1  0.39973401  0.50361731  0.49589947  1  1.295811  0  0.676301  0.841209  0  2.369551  0
H  H2  1  0.37350895  0.41229810  0.73572346  1  0.077111  0  0.101457  0.108171  0  1.013246  0
H  H3  1  0.63219142  0.53150183  0.25549886  1  0.087892  0  0.103449  0.112703  0  0.998003  0
H  H4  1  0.10017096  0.44075911  0.62098186  1  0.070357  0  0.105623  0.116184  0  1.00904  0
H  H5  1  0.91646934  0.64276628  0.45137125  1  0.056557  0  0.109498  0.122757  0  1.000858  0
H  H6  1  0.27402143  0.44233536  0.60392762  1  0.134377  0  0.120982  0.098282  0  1.01076  0
H  H7  1  0.74114276  0.62540872  0.45740872  1  0.120221  0  0.12449  0.102548  0  0.992654  0
H  H8  1  0.04154308  0.58287992  0.38916904  1  0.083428  0  0.109351  0.125476  0  0.999447  0
H  H9  1  0.95948846  0.37556882  0.56807673  1  0.057678  0  0.10906  0.125417  0  1.000931  0
H  H10  1  0.33200325  0.48336314  0.25817608  1  0.099157  0  0.101447  0.10932  0  1.016436  0
H  H11  1  0.66351194  0.49990976  0.75776180  1  0.080167  0  0.105944  0.123712  0  0.999076  0
H  H12  1  0.61336318  0.51740204  0.11331210  1  0.046721  0  0.096607  0.089145  0  1.009963  0
H  H13  1  0.37807603  0.39699617  0.88093012  1  0.059714  0  0.103973  0.108081  0  0.988607  0
H  H14  1  0.64314194  0.04962426  0.50724741  1  0.073765  0  0.106565  0.109303  0  0.992164  0
H  H15  1  0.36710890  0.94894376  0.51325614  1  0.07526  0  0.107314  0.1108  0  0.990019  0
H  H16  1  0.64723222  0.21010747  0.52226807  1  0.0672  0  0.105483  0.103503  0  1.006916  0
H  H17  1  0.36910394  0.78346207  0.53190936  1  0.119192  0  0.111976  0.117811  0  0.983396  0
H  H18  1  0.35299574  0.24238190  0.41874807  1  0.122635  0  0.114633  0.124152  0  0.993085  0
H  H19  1  0.62635382  0.77833793  0.42246679  1  0.140052  0  0.111348  0.11743  0  1.003989  0
H  H20  1  0.29632667  0.57859682  0.36085209  1  0.539306  0  0.301661  0.327919  0  0.99793  0
H  H21  1  0.17926530  0.61708456  0.32324257  1  0.451734  0  0.322493  0.319326  0  0.922541  0
H  H22  1  0.81724926  0.30002322  0.59582757  1  0.440366  0  0.32031  0.316433  0  0.923803  0
H  H23  1  0.70188540  0.34479323  0.56507291  1  0.507765  0  0.30122  0.323489  0  0.998437  0
H  H24  1  0.42691654  0.57859423  0.91463296  1  0.06381  0  0.107086  0.04713  0  0.966527  0
H  H25  1  0.63082902  0.32861666  0.99097732  1  0.065286  0  0.094731  0.032423  0  0.971896  0
H  H26  1  0.67808998  0.51257536  0.96534523  1  0.432878  0  0.302994  0.293038  0  0.965045  0
H  H27  1  0.73878001  0.52146932  0.88641089  1  0.434674  0  0.313909  0.31019  0  0.929532  0
H  H28  1  0.23860300  0.46036940  0.14329657  1  0.428382  0  0.30662  0.29737  0  0.941219  0
H  H29  1  0.27634149  0.48261686  0.05295854  1  0.503831  0  0.28855  0.293478  0  1.019446  0
H  H30  1  0.33626060  0.01141098  0.36269897  1  0.051266  0  0.097603  0.03222  0  0.977852  0
H  H31  1  0.62204767  0.02209657  0.35850564  1  0.061037  0  0.100117  0.036755  0  0.973438  0
C  C32  1  0.49949935  0.33154961  0.48818552  1  1.582124  0  0.219823  0.598676  0  4.164758  0
C  C33  1  0.50336036  0.67128360  0.49584620  1  1.557253  0  0.214501  0.591343  0  4.183718  0
C  C34  1  0.58006124  0.09237546  0.48633841  1  -0.001148  0  -0.08659  -0.137982  0  3.998441  0
C  C35  1  0.42256671  0.91126639  0.49155472  1  -0.069692  0  -0.086089  -0.138635  0  3.995829  0
C  C36  1  0.58196048  0.18172836  0.49614359  1  -0.078286  0  -0.072013  -0.062435  0  3.962967  0
C  C37  1  0.42439014  0.81921187  0.50351826  1  -0.050911  0  -0.06987  -0.063205  0  3.950374  0
C  C38  1  0.49941352  0.23612145  0.47410494  1  0.012167  0  -0.010934  -0.031192  0  3.956431  0
C  C39  1  0.49933350  0.77050060  0.48072114  1  0.037314  0  -0.012033  -0.027228  0  3.960559  0
C  C40  1  0.41674796  0.20027367  0.43855853  1  0.021674  0  -0.059967  -0.077826  0  3.885174  0
C  C41  1  0.56929806  0.81523084  0.44270270  1  -0.01561  0  -0.064077  -0.084935  0  3.90516  0
C  C42  1  0.41442178  0.11069628  0.42679506  1  -0.048105  0  -0.020273  -0.040011  0  3.977041  0
C  C43  1  0.56664501  0.90783873  0.42810908  1  -0.044419  0  -0.0229  -0.04311  0  3.9892  0
C  C44  1  0.49620681  0.05472865  0.45303631  1  -0.028996  0  0.006314  0.043919  0  3.982726  0
C  C45  1  0.49384229  0.95731824  0.45467296  1  -0.033566  0  0.004369  0.041539  0  3.986339  0
C  C46  1  0.12317780  0.47101309  0.56680312  1  0.00588  0  -0.109334  -0.234582  0  4.016117  0
C  C47  1  0.88969440  0.58082237  0.47724590  1  0.057585  0  -0.106315  -0.233626  0  4.003976  0
C  C48  1  0.21930911  0.47194606  0.55787245  1  0.441046  0  0.046015  0.115337  0  3.981008  0
C  C49  1  0.79264129  0.57173740  0.48069503  1  0.428782  0  0.049654  0.120175  0  3.970108  0
C  C50  1  0.19049732  0.54984630  0.43283793  1  1.003494  0  0.235506  0.466331  0  4.08293  0
C  C51  1  0.81346297  0.42785441  0.54503243  1  1.007315  0  0.234065  0.465873  0  4.080384  0
C  C52  1  0.09092596  0.55220502  0.43866667  1  0.080899  0  -0.097497  -0.295619  0  3.89779  0
C  C53  1  0.91362482  0.43314499  0.54425050  1  -0.014913  0  -0.097923  -0.297629  0  3.903678  0
C  C54  1  0.51547343  0.47118276  0.65178936  1  1.597027  0  0.217449  0.595367  0  4.163189  0
C  C55  1  0.49261524  0.51579513  0.35034283  1  1.553597  0  0.220476  0.599957  0  4.149817  0
C  C56  1  0.05657075  0.51193286  0.50510045  1  -0.148346  0  0.009295  0.128221  0  4.027609  0
C  C57  1  0.95236633  0.50906976  0.50964365  1  0.018191  0  0.010294  0.130229  0  4.024606  0
C  C58  1  0.51870091  0.45716522  0.73895035  1  -0.021078  0  -0.016706  -0.005768  0  3.992951  0
C  C59  1  0.48235031  0.50879640  0.26479913  1  -0.015453  0  -0.013942  0.000603  0  4.008462  0
C  C60  1  0.43756389  0.42806424  0.77297227  1  -0.036664  0  -0.102942  -0.12728  0  4.020103  0
C  C61  1  0.56285067  0.51793870  0.22433430  1  0.020781  0  -0.101709  -0.130341  0  4.013048  0
C  C62  1  0.44026705  0.42052271  0.85357623  1  -0.040056  0  -0.092372  -0.120219  0  4.041779  0
C  C63  1  0.55170885  0.50941693  0.14553379  1  -0.008531  0  -0.087047  -0.09433  0  4.048501  0
C  C64  1  0.52244632  0.44169601  0.90189137  1  -0.068996  0  -0.024461  -0.05471  0  4.032582  0
C  C65  1  0.46284708  0.49076895  0.10428358  1  -0.044954  0  -0.017082  -0.033928  0  3.943163  0
C  C66  1  0.60501443  0.46969260  0.86729665  1  0.402591  0  0.093668  0.251951  0  4.096793  0
C  C67  1  0.38116889  0.48164132  0.14544463  1  0.444502  0  0.105775  0.276559  0  4.062245  0
C  C68  1  0.60185757  0.47657968  0.78592226  1  0.020341  0  -0.098717  -0.213305  0  3.938088  0
C  C69  1  0.39359982  0.49116254  0.22572191  1  -0.046382  0  -0.101666  -0.22328  0  3.945347  0
C  C70  1  0.52518070  0.43540469  0.98780905  1  -0.072597  0  -0.01632  -0.068976  0  3.936218  0
C  C71  1  0.46063881  0.48415979  0.02027946  1  -0.010954  0  0.007653  -0.002555  0  3.887653  0
C  C72  1  0.39294276  0.54366076  0.96364129  1  0.941954  0  0.10369  0.269395  0  3.957955  0
C  C73  1  0.59179422  0.36386393  0.03104055  1  0.913679  0  0.084118  0.252233  0  3.995555  0
C  C74  1  0.32762858  0.07782337  0.38256989  1  0.930832  0  0.091033  0.265758  0  3.99466  0
C  C75  1  0.63768854  0.95104686  0.38091108  1  0.92691  0  0.090888  0.265861  0  3.994181  0
N  N76  1  0.25334791  0.50955917  0.49278639  1  -1.256523  0  -0.337024  -0.322956  0  3.429437  0
N  N77  1  0.75425128  0.49740167  0.51309064  1  -1.25647  0  -0.336029  -0.321614  0  3.433118  0
N  N78  1  0.22534512  0.58695033  0.36799212  1  -1.296329  0  -0.575641  -0.637607  0  3.31278  0
N  N79  1  0.77405772  0.35408179  0.57800409  1  -1.26613  0  -0.579597  -0.638935  0  3.300826  0
N  N80  1  0.68723837  0.49007803  0.91407871  1  -1.216138  0  -0.593409  -0.620204  0  3.327781  0
N  N81  1  0.29324340  0.45838419  0.11058983  1  -1.260362  0  -0.595885  -0.610721  0  3.312563  0
O  O82  1  0.57849673  0.36205203  0.51772056  1  -1.18935  0  -0.314598  -0.568261  0  2.360947  0
O  O83  1  0.42797484  0.63330204  0.51436710  1  -1.171002  0  -0.318999  -0.549436  0  2.30253  0
O  O84  1  0.42100140  0.37530939  0.46984966  1  -1.164481  0  -0.307896  -0.531054  0  2.309392  0
O  O85  1  0.58231317  0.63319276  0.48833863  1  -1.16826  0  -0.313123  -0.547135  0  2.346894  0
O  O86  1  0.59231251  0.49425457  0.62424493  1  -1.167802  0  -0.318269  -0.544347  0  2.315588  0
O  O87  1  0.41839867  0.54004767  0.37943083  1  -1.191407  0  -0.316128  -0.568439  0  2.374719  0
O  O88  1  0.43510450  0.45989836  0.61179458  1  -1.173508  0  -0.315436  -0.552972  0  2.358062  0
O  O89  1  0.57413430  0.49583775  0.38893927  1  -1.154343  0  -0.30822  -0.531362  0  2.310686  0
O  O90  1  0.30734564  0.55755157  0.96764182  1  -1.094582  0  -0.261945  -0.356421  0  2.146108  0
O  O91  1  0.60152821  0.33922136  0.10126390  1  -1.059562  0  -0.262262  -0.339207  0  2.121666  0
O  O92  1  0.25119800  0.11962917  0.36619017  1  -1.077087  0  -0.277344  -0.362243  0  2.080172  0
O  O93  1  0.70855991  0.91268653  0.36475664  1  -1.078708  0  -0.280854  -0.367368  0  2.079788  0
