# generated using pymatgen
data_Al2H11C22N2Cl3O10
_symmetry_space_group_name_H-M   'P 1'
_cell_length_a   6.64633748
_cell_length_b   11.12534671
_cell_length_c   16.86669980
_cell_angle_alpha   84.07499130
_cell_angle_beta   84.03238875
_cell_angle_gamma   73.02016997
_symmetry_Int_Tables_number   1
_chemical_formula_structural   Al2H11C22N2Cl3O10
_chemical_formula_sum   'Al2 H11 C22 N2 Cl3 O10'
_cell_volume   1182.85430103
_cell_formula_units_Z   1
loop_
 _symmetry_equiv_pos_site_id
 _symmetry_equiv_pos_as_xyz
  1  'x, y, z'
loop_
 _atom_site_type_symbol
 _atom_site_label
 _atom_site_symmetry_multiplicity
 _atom_site_fract_x
 _atom_site_fract_y
 _atom_site_fract_z
 _atom_site_occupancy
 _atom_site_pbe_bader_charge
 _atom_site_pbe_bader_spin_density
 _atom_site_pbe_cm5_charge
 _atom_site_pbe_ddec_charge
 _atom_site_pbe_ddec_spin_density
 _atom_site_pbe_ddec_sum_bond_order
 _atom_site_pbe_magmom
Al  Al0  1  0.50300628  0.49347958  0.50273662  1  2.502927  0  0.393912  1.644538  0  2.574585  0
Al  Al1  1  0.00132107  0.49657532  0.50455745  1  2.501454  0  0.396857  1.641705  0  2.575514  0
H  H2  1  0.23838682  0.57374996  0.40864603  1  0.642625  0  0.335228  0.413328  0  0.894934  0
H  H3  1  0.81902142  0.34205321  0.54348647  1  0.615687  0  0.347806  0.423471  0  0.867743  0
H  H4  1  0.93106616  0.42825427  0.73892361  1  0.115886  0  0.112025  0.12045  0  0.995595  0
H  H5  1  0.85796918  0.42555683  0.88787360  1  0.119289  0  0.108829  0.116035  0  1.004292  0
H  H6  1  0.36173381  0.59221469  0.89980947  1  0.104727  0  0.11171  0.128294  0  0.997838  0
H  H7  1  0.54663221  0.59555979  0.09835576  1  0.095204  0  0.11332  0.131397  0  0.99077  0
H  H8  1  0.20805817  0.41591482  0.12160514  1  0.072197  0  0.11025  0.117819  0  1.000411  0
H  H9  1  0.14099238  0.41536096  0.27073353  1  0.101068  0  0.110681  0.116085  0  0.993783  0
H  H10  1  0.84410801  0.87838123  0.55515133  1  0.11139  0  0.114164  0.123428  0  0.982265  0
H  H11  1  0.28947122  0.87063925  0.44786555  1  0.122398  0  0.113987  0.132416  0  0.995737  0
H  H12  1  0.71077718  0.11420129  0.54997608  1  0.086837  0  0.106359  0.108023  0  1.007924  0
C  C13  1  0.64560415  0.72033087  0.50560894  1  1.550569  0  0.270486  0.636372  0  4.104261  0
C  C14  1  0.78302202  0.49901715  0.35805499  1  1.557264  0  0.262761  0.648311  0  4.106089  0
C  C15  1  0.35873137  0.26603362  0.49927787  1  1.583742  0  0.267386  0.657471  0  4.084033  0
C  C16  1  0.21715199  0.50424056  0.64636666  1  1.589188  0  0.270224  0.650996  0  4.091065  0
C  C17  1  0.18443371  0.51178070  0.73500178  1  0.027672  0  -0.012437  -0.099167  0  3.90656  0
C  C18  1  0.02391604  0.46391579  0.77524190  1  0.003601  0  -0.076253  -0.064746  0  3.983016  0
C  C19  1  0.98263939  0.46248684  0.85742717  1  -0.051558  0  -0.086241  -0.15597  0  3.96597  0
C  C20  1  0.10640968  0.50911206  0.90218225  1  0.339185  0  0.090796  0.190736  0  4.050082  0
C  C21  1  0.26800479  0.55625997  0.86398356  1  0.00579  0  -0.086318  -0.216428  0  3.933729  0
C  C22  1  0.30433721  0.56046851  0.78088245  1  0.071558  0  0.026273  0.148217  0  4.01537  0
C  C23  1  0.67603867  0.55547539  0.13661254  1  0.092717  0  -0.084402  -0.213259  0  3.928101  0
C  C24  1  0.88054729  0.50619385  0.10160763  1  0.308504  0  0.09109  0.190463  0  4.049077  0
C  C25  1  0.05023603  0.45484580  0.14968535  1  0.050638  0  -0.083844  -0.15058  0  3.955242  0
C  C26  1  0.01226144  0.45468436  0.23205917  1  -0.038366  0  -0.077332  -0.070571  0  3.98654  0
C  C27  1  0.80861915  0.50473516  0.26877412  1  0.029616  0  -0.01282  -0.092697  0  3.915958  0
C  C28  1  0.64083465  0.55673599  0.21946310  1  0.071558  0  0.024384  0.146806  0  4.005722  0
C  C29  1  0.42792922  0.12591076  0.49588356  1  0.046132  0  -0.014172  -0.100625  0  3.91946  0
C  C30  1  0.57221410  0.86084577  0.50303911  1  -0.02841  0  -0.00459  -0.01123  0  3.970902  0
C  C31  1  0.31077090  0.05592582  0.46542904  1  0.061868  0  0.023222  0.137767  0  4.006954  0
C  C32  1  0.69406516  0.92879554  0.53096436  1  -0.03902  0  -0.080288  -0.0999  0  3.973185  0
C  C33  1  0.38139514  0.92454526  0.47037260  1  -0.011866  0  -0.084721  -0.165218  0  3.948642  0
C  C34  1  0.62021324  0.05932447  0.52774517  1  0.042776  0  -0.079662  -0.076858  0  3.989833  0
N  N35  1  0.08220365  0.51093249  0.98636176  1  -0.473243  0  -0.141063  -0.124064  0  3.256042  0
N  N36  1  0.90011219  0.51112505  0.01712994  1  -0.482644  0  -0.141264  -0.12469  0  3.250936  0
Cl  Cl37  1  0.49458679  0.63106368  0.73951155  1  -0.180307  0  0.014867  -0.04724  0  1.526346  0
Cl  Cl38  1  0.38630033  0.63139844  0.25673905  1  -0.203624  0  0.013767  -0.059277  0  1.511664  0
Cl  Cl39  1  0.08114181  0.12466999  0.41781135  1  -0.193939  0  0.006484  -0.061626  0  1.520617  0
O  O40  1  0.51009877  0.66457170  0.49457811  1  -1.259663  0  -0.229309  -0.580796  0  2.366022  0
O  O41  1  0.93597460  0.51207622  0.39285376  1  -1.257922  0  -0.237006  -0.5979  0  2.33904  0
O  O42  1  0.16312328  0.32204018  0.49631380  1  -1.261726  0  -0.238469  -0.60605  0  2.411993  0
O  O43  1  0.39246092  0.51029354  0.61107884  1  -1.257664  0  -0.229757  -0.582291  0  2.394269  0
O  O44  1  0.50148067  0.31843466  0.50779754  1  -1.257726  0  -0.238413  -0.597491  0  2.338311  0
O  O45  1  0.06521200  0.48802141  0.61269805  1  -1.256982  0  -0.231413  -0.581257  0  2.355446  0
O  O46  1  0.83854746  0.66706654  0.51707813  1  -1.253283  0  -0.228707  -0.574779  0  2.332283  0
O  O47  1  0.61361885  0.48053630  0.39191502  1  -1.25076  0  -0.239753  -0.603468  0  2.388945  0
O  O48  1  0.23550963  0.54923776  0.46562313  1  -1.446725  0  -0.450001  -0.985  0  2.202402  0
O  O49  1  0.77351933  0.43349459  0.53723780  1  -1.418638  0  -0.448631  -0.980949  0  2.182238  0
