# generated using pymatgen
data_CuH16C22(NO2)2
_symmetry_space_group_name_H-M   'P 1'
_cell_length_a   9.94040502
_cell_length_b   10.17136702
_cell_length_c   19.05390228
_cell_angle_alpha   89.99842834
_cell_angle_beta   89.40557199
_cell_angle_gamma   89.99992690
_symmetry_Int_Tables_number   1
_chemical_formula_structural   CuH16C22(NO2)2
_chemical_formula_sum   'Cu4 H64 C88 N8 O16'
_cell_volume   1926.38889589
_cell_formula_units_Z   4
loop_
 _symmetry_equiv_pos_site_id
 _symmetry_equiv_pos_as_xyz
  1  'x, y, z'
loop_
 _atom_site_type_symbol
 _atom_site_label
 _atom_site_symmetry_multiplicity
 _atom_site_fract_x
 _atom_site_fract_y
 _atom_site_fract_z
 _atom_site_occupancy
 _atom_site_pbe_bader_charge
 _atom_site_pbe_bader_spin_density
 _atom_site_pbe_cm5_charge
 _atom_site_pbe_ddec_charge
 _atom_site_pbe_ddec_spin_density
 _atom_site_pbe_ddec_sum_bond_order
 _atom_site_pbe_magmom
Cu  Cu0  1  0.24914468  0.72227664  0.04856110  1  1.045645  0.547127  0.727858  0.741206  0.712796  2.212522  0.547
Cu  Cu1  1  0.25083041  0.22235899  0.45144618  1  1.046012  0.547132  0.727915  0.741089  0.712871  2.212628  0.547
Cu  Cu2  1  0.75089627  0.27768643  0.95144247  1  1.045784  0.547137  0.727871  0.741012  0.712779  2.212846  0.547
Cu  Cu3  1  0.74909420  0.77766109  0.54855285  1  1.045683  0.54713  0.727919  0.741106  0.712773  2.212583  0.547
H  H4  1  0.02906620  0.04085377  0.92890651  1  0.108124  8.4e-05  0.104026  0.141239  0.000132  1.009603  0.0
H  H5  1  0.47091464  0.54092884  0.57109252  1  0.107898  8.5e-05  0.103873  0.14115  0.000133  1.009569  0.0
H  H6  1  0.97100300  0.95912011  0.07108608  1  0.107527  8.4e-05  0.103935  0.140979  0.000132  1.00968  0.0
H  H7  1  0.52903036  0.45909911  0.42890378  1  0.107724  8.5e-05  0.103937  0.141177  0.000133  1.0094  0.0
H  H8  1  0.16157490  0.03574408  0.86406029  1  0.037479  0.00283  0.096492  0.113557  0.001395  0.989195  0.002
H  H9  1  0.33842929  0.53581178  0.63595146  1  0.03643  0.002831  0.096434  0.113371  0.001395  0.98923  0.002
H  H10  1  0.83845981  0.96420522  0.13591424  1  0.03691  0.002829  0.09652  0.113512  0.001394  0.989091  0.002
H  H11  1  0.66155981  0.46422403  0.36406783  1  0.036931  0.002829  0.096442  0.113395  0.001394  0.98911  0.002
H  H12  1  0.82592470  0.93792283  0.90277784  1  0.094126  -4.5e-05  0.103038  0.115962  -9.7e-05  1.015306  0.0
H  H13  1  0.67406938  0.43794699  0.59719419  1  0.093863  -4.5e-05  0.103015  0.115739  -9.7e-05  1.015378  0.0
H  H14  1  0.17410366  0.06209529  0.09721022  1  0.094598  -4.5e-05  0.103065  0.115953  -9.7e-05  1.015257  0.0
H  H15  1  0.32589985  0.56207407  0.40279106  1  0.094579  -4.5e-05  0.103032  0.115833  -9.7e-05  1.015231  0.0
H  H16  1  0.69226304  0.77700650  0.83522779  1  0.022668  -3.4e-05  0.098107  0.101152  -5.5e-05  1.028886  0.0
H  H17  1  0.80771756  0.27699410  0.66473476  1  0.02264  -3.4e-05  0.098182  0.101156  -5.5e-05  1.028655  0.0
H  H18  1  0.30773810  0.22305193  0.16475024  1  0.022346  -3.4e-05  0.098213  0.101188  -5.5e-05  1.028877  0.0
H  H19  1  0.19225483  0.72302893  0.33524898  1  0.022169  -3.4e-05  0.098179  0.101181  -5.5e-05  1.028938  0.0
H  H20  1  0.05309429  0.63089708  0.73700606  1  0.040281  4.7e-05  0.101021  0.105802  1.6e-05  0.991515  0.0
H  H21  1  0.44689179  0.13098816  0.76301055  1  0.040368  4.7e-05  0.101168  0.105969  1.6e-05  0.991645  0.0
H  H22  1  0.94688308  0.36906008  0.26298882  1  0.040064  4.7e-05  0.101063  0.105795  1.6e-05  0.991652  0.0
H  H23  1  0.55310123  0.86906240  0.23699937  1  0.040723  4.7e-05  0.101041  0.105741  1.6e-05  0.991568  0.0
H  H24  1  0.18693193  0.79848803  0.80103310  1  0.031075  -4e-06  0.097953  0.103487  -2.4e-05  1.001736  0.0
H  H25  1  0.31307225  0.29859110  0.69898134  1  0.03098  -4e-06  0.097945  0.103421  -2.4e-05  1.001801  0.0
H  H26  1  0.81307729  0.20144849  0.19896559  1  0.031134  -4e-06  0.097975  0.103637  -2.4e-05  1.001719  0.0
H  H27  1  0.68691067  0.70145160  0.30102889  1  0.031247  -4e-06  0.097894  0.103539  -2.4e-05  1.001703  0.0
H  H28  1  0.68948085  0.56653808  0.77012225  1  0.062114  0.002402  0.095916  0.119721  0.001146  1.00399  0.001
H  H29  1  0.81049542  0.06654762  0.72987075  1  0.062112  0.002402  0.09588  0.119697  0.001146  1.003818  0.001
H  H30  1  0.31049118  0.43348397  0.22987567  1  0.062832  0.002402  0.095826  0.11952  0.001147  1.003839  0.001
H  H31  1  0.18948662  0.93347247  0.27011739  1  0.062349  0.002402  0.095935  0.119746  0.001147  1.003909  0.001
H  H32  1  0.83766539  0.50847050  0.72645376  1  0.065467  0.000151  0.101351  0.128366  0.0001  0.98484  0.0
H  H33  1  0.66230293  0.00850101  0.77353386  1  0.065438  0.00015  0.101382  0.128406  0.0001  0.984853  0.0
H  H34  1  0.16228560  0.49154565  0.27353269  1  0.065768  0.00015  0.101354  0.128367  0.0001  0.984875  0.0
H  H35  1  0.33767413  0.99152596  0.22645366  1  0.065333  0.00015  0.101386  0.128439  9.9e-05  0.984847  0.0
H  H36  1  0.03768598  0.66417147  0.93147893  1  0.145588  0.002199  0.118495  0.090685  0.001043  1.030902  0.002
H  H37  1  0.46234675  0.16428102  0.56851724  1  0.144928  0.002201  0.118509  0.090737  0.001044  1.030771  0.002
H  H38  1  0.96237920  0.33575030  0.06852409  1  0.145082  0.002201  0.118456  0.090596  0.001044  1.031088  0.002
H  H39  1  0.53760102  0.83575085  0.43147124  1  0.144992  0.002202  0.118394  0.090554  0.001044  1.031026  0.002
H  H40  1  0.97767818  0.46027166  0.86285820  1  0.111033  0.000946  0.112657  0.127341  0.000457  1.004145  0.001
H  H41  1  0.52241083  0.96037091  0.63712359  1  0.111598  0.000945  0.112739  0.127518  0.000457  1.004134  0.001
H  H42  1  0.02241915  0.53965011  0.13713498  1  0.112518  0.000945  0.112777  0.127574  0.000457  1.004327  0.001
H  H43  1  0.47755347  0.03966294  0.36286050  1  0.115072  0.000942  0.112787  0.127661  0.000457  1.004158  0.001
H  H44  1  0.09886974  0.25331930  0.88496559  1  0.133837  0.000164  0.115738  0.124322  7e-05  1.005047  0.0
H  H45  1  0.40124272  0.75340815  0.61502819  1  0.134851  0.000163  0.115837  0.124537  7e-05  1.00497  0.0
H  H46  1  0.90125085  0.74660542  0.11503701  1  0.134532  0.000164  0.115795  0.124398  7e-05  1.005159  0.0
H  H47  1  0.59873218  0.24661979  0.38496085  1  0.134266  0.000164  0.115844  0.124482  7e-05  1.005051  0.0
H  H48  1  0.29613802  0.13610026  0.95103596  1  0.116691  0.000542  0.109219  0.119689  0.000281  1.019718  0.0
H  H49  1  0.20392773  0.63617690  0.54899583  1  0.116973  0.000542  0.109156  0.11954  0.00028  1.019698  0.0
H  H50  1  0.70395527  0.86384806  0.04898866  1  0.116733  0.000542  0.109229  0.119564  0.00028  1.019811  0.0
H  H51  1  0.79603877  0.36383827  0.45100723  1  0.116668  0.000542  0.109239  0.119564  0.00028  1.019773  0.0
H  H52  1  0.47597433  0.14892914  0.03869414  1  0.156923  0.000597  0.117276  0.144497  0.000328  0.996045  0.0
H  H53  1  0.02408474  0.64900153  0.46133795  1  0.158208  0.000596  0.117332  0.14452  0.000328  0.995994  0.0
H  H54  1  0.52413665  0.85104474  0.96132455  1  0.157792  0.000596  0.117331  0.144674  0.000328  0.995853  0.0
H  H55  1  0.97588287  0.35100774  0.53866408  1  0.158428  0.000596  0.11734  0.14461  0.000328  0.996007  0.0
H  H56  1  0.60196334  0.28250080  0.12948292  1  0.1598  6.9e-05  0.114355  0.127878  -6e-06  1.009393  0.0
H  H57  1  0.89807227  0.78255448  0.37055603  1  0.159824  6.8e-05  0.11433  0.127606  -6e-06  1.009384  0.0
H  H58  1  0.39813363  0.71750159  0.87053495  1  0.159816  6.9e-05  0.114407  0.12768  -6e-06  1.009103  0.0
H  H59  1  0.10186845  0.21745282  0.62945332  1  0.160232  6.9e-05  0.11436  0.12757  -6e-06  1.008944  0.0
H  H60  1  0.63096522  0.50189226  0.19020175  1  0.086631  0.0011  0.111156  0.118292  0.000582  0.987866  0.0
H  H61  1  0.86903761  0.00192479  0.30982381  1  0.087106  0.001099  0.111185  0.118437  0.000582  0.987728  0.0
H  H62  1  0.36909642  0.49812487  0.80981696  1  0.086987  0.0011  0.111225  0.118364  0.000582  0.988049  0.0
H  H63  1  0.13089408  0.99807268  0.69017484  1  0.08733  0.001099  0.111223  0.118485  0.000582  0.988029  0.0
H  H64  1  0.48427092  0.69097172  0.15497671  1  0.145626  0.00217  0.118945  0.090098  0.001002  1.032668  0.002
H  H65  1  0.01571944  0.19101648  0.34502334  1  0.145426  0.002169  0.118958  0.090272  0.001001  1.032974  0.002
H  H66  1  0.51574587  0.30902477  0.84503738  1  0.14541  0.00217  0.118839  0.089902  0.001002  1.032875  0.002
H  H67  1  0.98422507  0.80898787  0.65495719  1  0.144948  0.00217  0.118877  0.089984  0.001002  1.033068  0.002
C  C68  1  0.18790559  0.89968108  0.94830745  1  1.564935  -0.000672  0.197439  0.613245  -0.001344  4.180286  -0.003
C  C69  1  0.31206314  0.39975138  0.55170922  1  1.567037  -0.00067  0.19733  0.612749  -0.001342  4.180303  -0.003
C  C70  1  0.81216960  0.10030951  0.05167528  1  1.565893  -0.000675  0.196906  0.612572  -0.001349  4.180389  -0.003
C  C71  1  0.68784361  0.60030410  0.44830783  1  1.566092  -0.000676  0.19695  0.612698  -0.001347  4.180645  -0.003
C  C72  1  0.09672864  0.97633808  0.89871239  1  -0.058808  0.01026  -0.1656  -0.354651  0.007518  3.931075  0.008
C  C73  1  0.40324262  0.47641201  0.60128802  1  -0.057897  0.010254  -0.165317  -0.354075  0.007514  3.930429  0.008
C  C74  1  0.90332188  0.02362597  0.10127561  1  -0.05821  0.010259  -0.165488  -0.35414  0.007516  3.930482  0.008
C  C75  1  0.59669982  0.52361986  0.39871401  1  -0.058807  0.010253  -0.16539  -0.354258  0.007513  3.930382  0.008
C  C76  1  0.01543217  0.88030872  0.85624638  1  -0.026625  0.001306  -0.013138  0.136189  0.00077  3.973261  0.001
C  C77  1  0.48456505  0.38036788  0.64375199  1  -0.026864  0.001305  -0.013103  0.135951  0.000769  3.972966  0.001
C  C78  1  0.98459307  0.11966515  0.14375318  1  -0.026802  0.001304  -0.012961  0.136344  0.000769  3.973249  0.001
C  C79  1  0.51540015  0.61965417  0.35624369  1  -0.026938  0.001305  -0.013029  0.136345  0.000769  3.9731  0.001
C  C80  1  0.87612852  0.87126295  0.86618759  1  -0.049897  0.000858  -0.092803  -0.132005  0.000557  3.960333  0.0
C  C81  1  0.62386197  0.37129244  0.63379305  1  -0.049972  0.00086  -0.092813  -0.131872  0.000558  3.959978  0.0
C  C82  1  0.12388637  0.12873747  0.13380439  1  -0.049811  0.000861  -0.092892  -0.132149  0.000558  3.960308  0.0
C  C83  1  0.37610686  0.62872665  0.36619640  1  -0.050124  0.00086  -0.092802  -0.131829  0.000558  3.960144  0.0
C  C84  1  0.80116555  0.77961573  0.82882921  1  -0.062869  0.001282  -0.095251  -0.134938  0.000841  3.983295  0.001
C  C85  1  0.69882007  0.27962409  0.67115229  1  -0.063105  0.001281  -0.095228  -0.134774  0.00084  3.982824  0.001
C  C86  1  0.19883653  0.22040632  0.17115987  1  -0.06345  0.001281  -0.095341  -0.134838  0.00084  3.983327  0.001
C  C87  1  0.30115328  0.72039599  0.32884251  1  -0.062718  0.001281  -0.095367  -0.135111  0.00084  3.983508  0.001
C  C88  1  0.86307209  0.69123056  0.78239271  1  -0.004181  0.001062  -0.014391  0.126713  0.000571  3.979615  0.0
C  C89  1  0.63690924  0.19127195  0.71760166  1  -0.003498  0.001062  -0.014285  0.126937  0.000571  3.979467  0.0
C  C90  1  0.13690789  0.30876789  0.21759591  1  -0.003642  0.001063  -0.014347  0.126519  0.000572  3.979917  0.0
C  C91  1  0.36306953  0.80876386  0.28239955  1  -0.003892  0.001062  -0.014301  0.126876  0.000571  3.979424  0.0
C  C92  1  0.00308877  0.69934237  0.77294987  1  -0.040128  0.001599  -0.099301  -0.152091  0.001069  4.026494  0.001
C  C93  1  0.49689971  0.19941140  0.72705859  1  -0.039895  0.001596  -0.099712  -0.152672  0.001068  4.026606  0.001
C  C94  1  0.99689272  0.30062561  0.22704405  1  -0.039766  0.001596  -0.099487  -0.152159  0.001067  4.02677  0.001
C  C95  1  0.50308251  0.80062835  0.27294847  1  -0.040862  0.001597  -0.099413  -0.152024  0.001068  4.026209  0.001
C  C96  1  0.07799263  0.79353595  0.80873049  1  -0.033525  0.000919  -0.101788  -0.161733  0.000588  4.018265  0.0
C  C97  1  0.42200525  0.29360449  0.69128028  1  -0.033623  0.000918  -0.101692  -0.161425  0.000587  4.018069  0.0
C  C98  1  0.92200964  0.20642416  0.19126701  1  -0.033721  0.000919  -0.101781  -0.161905  0.000588  4.018586  0.0
C  C99  1  0.57797301  0.70642247  0.30872618  1  -0.033121  0.000919  -0.101684  -0.161932  0.000588  4.018302  0.0
C  C100  1  0.77954035  0.59637108  0.74043858  1  -0.03866  0.010659  -0.163335  -0.340647  0.007846  3.925672  0.008
C  C101  1  0.72043629  0.09640079  0.75955728  1  -0.038364  0.010654  -0.163345  -0.340625  0.007843  3.925422  0.008
C  C102  1  0.22042047  0.40364114  0.25956068  1  -0.039587  0.010659  -0.163164  -0.34016  0.007844  3.925262  0.008
C  C103  1  0.27954550  0.90362814  0.24043349  1  -0.038592  0.010657  -0.163436  -0.340803  0.007845  3.925496  0.008
C  C104  1  0.73333430  0.66722809  0.67381601  1  1.564653  -0.000985  0.194542  0.616409  -0.001929  4.168557  -0.003
C  C105  1  0.76665082  0.16725630  0.82617964  1  1.564404  -0.000986  0.194416  0.615967  -0.00193  4.168103  -0.003
C  C106  1  0.26660834  0.33277626  0.32618393  1  1.564844  -0.000988  0.194448  0.616178  -0.00193  4.168622  -0.003
C  C107  1  0.23335155  0.83274707  0.17381681  1  1.564165  -0.000985  0.19453  0.616306  -0.001928  4.168272  -0.003
C  C108  1  0.09116475  0.57182592  0.93888978  1  0.428898  -0.001694  0.056866  0.112393  -0.002162  3.918261  -0.002
C  C109  1  0.40887205  0.07193066  0.56110904  1  0.428468  -0.001695  0.056821  0.112204  -0.002162  3.918566  -0.002
C  C110  1  0.90889631  0.42809585  0.06111420  1  0.428601  -0.001701  0.056899  0.112274  -0.002165  3.918163  -0.002
C  C111  1  0.59108170  0.92809827  0.43888009  1  0.42854  -0.0017  0.057162  0.112507  -0.002163  3.918356  -0.002
C  C112  1  0.05863453  0.45787642  0.90087225  1  -0.025679  0.005497  -0.079002  -0.127455  0.003737  3.961261  0.005
C  C113  1  0.44143953  0.95797598  0.59912136  1  -0.026266  0.005497  -0.079101  -0.127474  0.003738  3.961712  0.005
C  C114  1  0.94145285  0.54205125  0.09913019  1  -0.028069  0.005501  -0.079114  -0.127532  0.003739  3.961559  0.005
C  C115  1  0.55852131  0.04205787  0.40086739  1  -0.030355  0.005503  -0.079307  -0.12778  0.003739  3.961639  0.005
C  C116  1  0.12730793  0.34197411  0.91324309  1  0.018519  -0.003436  -0.05327  -0.05948  -0.003923  3.878619  -0.002
C  C117  1  0.37277542  0.84207366  0.58676023  1  0.017781  -0.003436  -0.053183  -0.059718  -0.003923  3.878437  -0.002
C  C118  1  0.87279085  0.65795258  0.08676641  1  0.018391  -0.003437  -0.053111  -0.05952  -0.003923  3.878449  -0.002
C  C119  1  0.62718924  0.15796018  0.41323070  1  0.017967  -0.003436  -0.053068  -0.059639  -0.003923  3.87845  -0.002
C  C120  1  0.23110859  0.33991716  0.96342825  1  -0.005436  0.003027  0.002295  0.047777  0.002196  4.001821  0.003
C  C121  1  0.26894507  0.84000923  0.53658187  1  -0.002841  0.003024  0.002126  0.047619  0.002195  4.001687  0.003
C  C122  1  0.76896622  0.66002427  0.03658969  1  -0.003607  0.003028  0.00204  0.047865  0.002196  4.001483  0.003
C  C123  1  0.73101150  0.16001970  0.46340942  1  -0.003652  0.003028  0.001987  0.048047  0.002196  4.001314  0.003
C  C124  1  0.31271370  0.22772671  0.97925371  1  -0.091954  0.001033  -0.076113  -0.106258  0.000711  3.92976  0.001
C  C125  1  0.18734232  0.72780015  0.52077219  1  -0.094737  0.001034  -0.076186  -0.106186  0.000711  3.929802  0.001
C  C126  1  0.68737060  0.77222259  0.02077020  1  -0.094977  0.001032  -0.076275  -0.106424  0.000711  3.930469  0.001
C  C127  1  0.81261650  0.27220911  0.47922703  1  -0.094104  0.001032  -0.076121  -0.106256  0.000711  3.929929  0.001
C  C128  1  0.41269194  0.23385154  0.02796606  1  0.002328  0.000907  -0.072086  -0.111168  0.000506  3.928451  0.001
C  C129  1  0.08736459  0.73392060  0.47206413  1  0.000711  0.000907  -0.072085  -0.111309  0.000506  3.928639  0.001
C  C130  1  0.58739668  0.76611939  0.97205479  1  0.001349  0.000908  -0.072007  -0.111239  0.000507  3.928369  0.001
C  C131  1  0.91259895  0.26609063  0.52793834  1  0.000714  0.000908  -0.072057  -0.111311  0.000506  3.92843  0.001
C  C132  1  0.43868936  0.35319241  0.06560269  1  0.040816  0.003112  0.004393  0.044611  0.002223  4.003454  0.003
C  C133  1  0.06135541  0.85325463  0.43441975  1  0.041355  0.003111  0.004125  0.044474  0.002225  4.003758  0.003
C  C134  1  0.56139549  0.64678344  0.93441546  1  -0.017145  0.003205  0.003915  0.044022  0.002224  4.004017  0.003
C  C135  1  0.93859955  0.14675463  0.56557781  1  -0.016706  0.003205  0.003836  0.044077  0.002224  4.00445  0.003
C  C136  1  0.53873394  0.36696310  0.11742488  1  -0.07206  -0.003883  -0.055064  -0.065322  -0.004417  3.884229  -0.002
C  C137  1  0.96129781  0.86701147  0.38260534  1  -0.070218  -0.003884  -0.054804  -0.064388  -0.00442  3.883353  -0.002
C  C138  1  0.46135298  0.63303831  0.88259278  1  -0.070368  -0.003882  -0.054805  -0.064466  -0.004417  3.883673  -0.002
C  C139  1  0.03864689  0.13299387  0.61739411  1  -0.071366  -0.003883  -0.054744  -0.064083  -0.004419  3.883397  -0.002
C  C140  1  0.55505791  0.48736345  0.15011208  1  -0.027541  0.005904  -0.078815  -0.122674  0.004017  3.96072  0.005
C  C141  1  0.94495487  0.98741355  0.34991125  1  -0.028354  0.005903  -0.078902  -0.123163  0.004015  3.961052  0.005
C  C142  1  0.44500695  0.51263992  0.84990460  1  -0.027331  0.005903  -0.078992  -0.123116  0.004018  3.960956  0.005
C  C143  1  0.05498531  0.01259080  0.65008285  1  -0.027913  0.005903  -0.078958  -0.123579  0.004018  3.96089  0.005
C  C144  1  0.47331866  0.59432451  0.13113355  1  0.504139  -0.001571  0.062193  0.117173  -0.002031  3.916198  -0.002
C  C145  1  0.02667539  0.09437600  0.36887662  1  0.504054  -0.001573  0.06218  0.117073  -0.002028  3.916663  -0.002
C  C146  1  0.52671993  0.40566116  0.86888416  1  0.504517  -0.00157  0.062429  0.117593  -0.00203  3.915728  -0.002
C  C147  1  0.97326264  0.90562442  0.63110850  1  0.505331  -0.001574  0.062408  0.117605  -0.002031  3.915673  -0.002
C  C148  1  0.35965422  0.46528366  0.05087560  1  0.421949  0.001506  0.112046  0.116545  0.000834  3.99595  0.001
C  C149  1  0.14038120  0.96535941  0.44914090  1  0.421982  0.001501  0.112044  0.116085  0.000831  3.996521  0.001
C  C150  1  0.64041034  0.53467547  0.94914422  1  0.480344  0.001412  0.112089  0.116572  0.000833  3.996323  0.001
C  C151  1  0.85956501  0.03465478  0.55085332  1  0.480245  0.001411  0.112011  0.116572  0.000834  3.996124  0.001
C  C152  1  0.25642370  0.45909972  0.99935275  1  0.46135  0.001478  0.110546  0.111035  0.000916  4.008505  0.001
C  C153  1  0.24361599  0.95918205  0.50066218  1  0.461797  0.001477  0.1106  0.111432  0.000916  4.008669  0.001
C  C154  1  0.74363895  0.54084270  0.00066599  1  0.461758  0.001475  0.110617  0.111001  0.000915  4.008385  0.001
C  C155  1  0.75633635  0.04082918  0.49933112  1  0.462575  0.001473  0.110609  0.110572  0.000915  4.008988  0.001
N  N156  1  0.18745320  0.57203880  0.98703616  1  -1.205409  0.075707  -0.34402  -0.281806  0.050974  3.639035  0.066
N  N157  1  0.31257241  0.07213463  0.51297398  1  -1.205719  0.075698  -0.344002  -0.281689  0.05097  3.638777  0.066
N  N158  1  0.81260197  0.42789772  0.01297663  1  -1.205468  0.075706  -0.34399  -0.281554  0.050974  3.638595  0.066
N  N159  1  0.68737627  0.92789135  0.48701557  1  -1.205432  0.075702  -0.344057  -0.281442  0.050971  3.639093  0.066
N  N160  1  0.37780486  0.58314164  0.08304975  1  -1.210582  0.078999  -0.341538  -0.272388  0.053303  3.619692  0.069
N  N161  1  0.12220602  0.08320789  0.41696214  1  -1.211626  0.079011  -0.341439  -0.272268  0.053304  3.619446  0.069
N  N162  1  0.62223659  0.41682928  0.91696959  1  -1.211383  0.079015  -0.341516  -0.27238  0.053309  3.619355  0.069
N  N163  1  0.87773869  0.91680433  0.58302680  1  -1.212088  0.079015  -0.341535  -0.272403  0.053304  3.619018  0.069
O  O164  1  0.12757320  0.84757302  0.00228310  1  -1.114963  0.114289  -0.330789  -0.533229  0.073981  2.300381  0.103
O  O165  1  0.37237153  0.34768378  0.49771638  1  -1.116409  0.114268  -0.33083  -0.533089  0.073963  2.300065  0.103
O  O166  1  0.87250862  0.15237923  0.99769347  1  -1.115339  0.114285  -0.330639  -0.532958  0.073971  2.300569  0.103
O  O167  1  0.62751015  0.65234220  0.50229962  1  -1.115912  0.114265  -0.330672  -0.533017  0.073959  2.300467  0.103
O  O168  1  0.31005661  0.88520654  0.93385999  1  -1.198934  0.00102  -0.330955  -0.585288  -0.000367  2.151607  0.001
O  O169  1  0.18992236  0.38524358  0.56617727  1  -1.199571  0.001021  -0.330967  -0.585102  -0.000367  2.151627  0.001
O  O170  1  0.69002625  0.11485681  0.06613709  1  -1.199123  0.001019  -0.330571  -0.584875  -0.000368  2.151566  0.001
O  O171  1  0.80997931  0.61488367  0.43384020  1  -1.198665  0.001017  -0.330708  -0.585028  -0.000369  2.151779  0.001
O  O172  1  0.81218888  0.65204115  0.61952752  1  -1.10522  0.130363  -0.337504  -0.538021  0.08421  2.249472  0.117
O  O173  1  0.68781001  0.15206383  0.88047357  1  -1.105061  0.130326  -0.337499  -0.537878  0.084188  2.249497  0.117
O  O174  1  0.18774587  0.34798483  0.38047067  1  -1.105316  0.130368  -0.337587  -0.538058  0.084209  2.249527  0.117
O  O175  1  0.31220985  0.84791791  0.11952956  1  -1.104927  0.130335  -0.337536  -0.538046  0.084191  2.249506  0.117
O  O176  1  0.63138903  0.73920790  0.67481442  1  -1.198254  0.001145  -0.339163  -0.576229  -0.000337  2.089548  0.002
O  O177  1  0.86858315  0.23926696  0.82517265  1  -1.19821  0.001147  -0.339084  -0.576004  -0.000336  2.089086  0.002
O  O178  1  0.36853649  0.26076794  0.32518568  1  -1.19839  0.001143  -0.339058  -0.57613  -0.000338  2.089605  0.002
O  O179  1  0.13141425  0.76075312  0.17482317  1  -1.198145  0.001147  -0.339137  -0.57613  -0.000336  2.089352  0.002
