# generated using pymatgen
data_EuH13C13O9
_symmetry_space_group_name_H-M   'P 1'
_cell_length_a   11.91621698
_cell_length_b   12.36248040
_cell_length_c   12.67882154
_cell_angle_alpha   90.00036421
_cell_angle_beta   99.05479919
_cell_angle_gamma   90.00065831
_symmetry_Int_Tables_number   1
_chemical_formula_structural   EuH13C13O9
_chemical_formula_sum   'Eu4 H52 C52 O36'
_cell_volume   1844.49228306
_cell_formula_units_Z   4
loop_
 _symmetry_equiv_pos_site_id
 _symmetry_equiv_pos_as_xyz
  1  'x, y, z'
loop_
 _atom_site_type_symbol
 _atom_site_label
 _atom_site_symmetry_multiplicity
 _atom_site_fract_x
 _atom_site_fract_y
 _atom_site_fract_z
 _atom_site_occupancy
 _atom_site_hle17_bader_spin_density
 _atom_site_hle17_ddec_charge
 _atom_site_hle17_ddec_spin_density
 _atom_site_hle17_ddec_sum_bond_order
 _atom_site_hle17_magmom
 _atom_site_hse06_10hf_bader_spin_density
 _atom_site_hse06_10hf_ddec_charge
 _atom_site_hse06_10hf_ddec_spin_density
 _atom_site_hse06_10hf_ddec_sum_bond_order
 _atom_site_hse06_10hf_magmom
 _atom_site_hse06_bader_spin_density
 _atom_site_hse06_ddec_charge
 _atom_site_hse06_ddec_spin_density
 _atom_site_hse06_ddec_sum_bond_order
 _atom_site_hse06_magmom
 _atom_site_pbe_bader_spin_density
 _atom_site_pbe_cm5_charge
 _atom_site_pbe_ddec_charge
 _atom_site_pbe_ddec_spin_density
 _atom_site_pbe_ddec_sum_bond_order
 _atom_site_pbe_magmom
Eu  Eu0  1  0.37474514  0.44559349  0.13216250  1  0  2.270542  0  1.675933  0  0  2.136161  0  2.143786  0  0  2.245661  0  1.982304  0  0  1.531774  2.100803  0  2.175945  0
Eu  Eu1  1  0.62525447  0.94559318  0.86783756  1  0  2.270537  0  1.67598  0  0  2.136158  0  2.14384  0  0  2.24566  0  1.982357  0  0  1.531766  2.10079  0  2.176003  0
Eu  Eu2  1  0.63837507  0.22895251  0.18330237  1  0  2.325367  0  1.659746  0  0  2.255362  0  2.006353  0  0  2.299436  0  1.964631  0  0  1.530452  2.161815  0  2.15265  0
Eu  Eu3  1  0.36162444  0.72895300  0.81669750  1  0  2.32538  0  1.659756  0  0  2.255379  0  2.006364  0  0  2.299454  0  1.964641  0  0  1.530476  2.161826  0  2.152665  0
H  H4  1  0.31818276  0.40784376  0.47322386  1  0  0.140535  0  0.919734  0  0  0.150749  0  0.976455  0  0  0.155738  0  0.972589  0  0  0.117381  0.147186  0  0.979227  0
H  H5  1  0.68181998  0.90784350  0.52677749  1  0  0.140502  0  0.919709  0  0  0.150713  0  0.976439  0  0  0.155703  0  0.972573  0  0  0.117361  0.14715  0  0.979209  0
H  H6  1  0.48167712  0.33616591  0.79490378  1  0  0.119737  0  0.994322  0  0  0.130198  0  1.057612  0  0  0.133433  0  1.055609  0  0  0.111183  0.127911  0  1.05898  0
H  H7  1  0.51832118  0.83616582  0.20509617  1  0  0.119737  0  0.994337  0  0  0.130202  0  1.057617  0  0  0.133435  0  1.055621  0  0  0.111186  0.127917  0  1.058985  0
H  H8  1  0.66073263  0.28087213  0.53146423  1  0  0.122799  0  0.93902  0  0  0.134412  0  0.996826  0  0  0.139006  0  0.99308  0  0  0.112414  0.130961  0  0.999977  0
H  H9  1  0.33926576  0.78087095  0.46853527  1  0  0.122778  0  0.939033  0  0  0.134389  0  0.996842  0  0  0.138983  0  0.993096  0  0  0.112405  0.130938  0  0.999995  0
H  H10  1  0.30356717  0.29824373  0.79536914  1  0  0.064561  0  0.927167  0  0  0.072001  0  0.990459  0  0  0.073395  0  0.989225  0  0  0.114458  0.071041  0  0.991259  0
H  H11  1  0.69643049  0.79824399  0.20462970  1  0  0.064553  0  0.927137  0  0  0.071992  0  0.990434  0  0  0.073388  0  0.989202  0  0  0.114464  0.071032  0  0.991234  0
H  H12  1  0.10300736  0.34041278  0.73718352  1  0  0.126455  0  0.924382  0  0  0.146873  0  0.982001  0  0  0.14885  0  0.9814  0  0  0.100052  0.145422  0  0.982462  0
H  H13  1  0.89699086  0.84041482  0.26281567  1  0  0.126518  0  0.924397  0  0  0.14693  0  0.982007  0  0  0.148908  0  0.981406  0  0  0.100062  0.145477  0  0.98247  0
H  H14  1  0.12615162  0.48000798  0.77232353  1  0  0.11921  0  0.947169  0  0  0.141231  0  1.005296  0  0  0.143227  0  1.004273  0  0  0.096707  0.139583  0  1.006372  0
H  H15  1  0.87385014  0.98000954  0.22767682  1  0  0.119274  0  0.947179  0  0  0.14128  0  1.005312  0  0  0.143277  0  1.004289  0  0  0.096739  0.139637  0  1.00638  0
H  H16  1  0.14283262  0.37879894  0.87375062  1  0  0.13091  0  0.93416  0  0  0.151954  0  0.992362  0  0  0.153279  0  0.99301  0  0  0.104681  0.150996  0  0.991932  0
H  H17  1  0.85716611  0.87879804  0.12624889  1  0  0.130919  0  0.934159  0  0  0.151944  0  0.992387  0  0  0.153271  0  0.993032  0  0  0.104674  0.150987  0  0.991954  0
H  H18  1  0.65225200  0.37744437  0.85833022  1  0  0.056478  0  0.928737  0  0  0.066414  0  0.989648  0  0  0.067502  0  0.988917  0  0  0.112646  0.065554  0  0.990465  0
H  H19  1  0.34774963  0.87744441  0.14167167  1  0  0.056425  0  0.928772  0  0  0.066422  0  0.989614  0  0  0.067508  0  0.988882  0  0  0.112627  0.065563  0  0.990429  0
H  H20  1  0.85564672  0.36970188  0.85000018  1  0  0.122886  0  0.94451  0  0  0.142236  0  1.005003  0  0  0.144382  0  1.004021  0  0  0.096036  0.140673  0  1.005742  0
H  H21  1  0.14435551  0.86970134  0.15000086  1  0  0.122876  0  0.944487  0  0  0.142228  0  1.004974  0  0  0.144375  0  1.003993  0  0  0.096038  0.140664  0  1.005713  0
H  H22  1  0.85944463  0.22769082  0.87215167  1  0  0.111909  0  0.97593  0  0  0.132148  0  1.037481  0  0  0.132727  0  1.038882  0  0  0.091838  0.131698  0  1.036508  0
H  H23  1  0.14055209  0.72769011  0.12784659  1  0  0.111954  0  0.975895  0  0  0.132145  0  1.037494  0  0  0.132725  0  1.038896  0  0  0.091864  0.131695  0  1.036521  0
H  H24  1  0.83044817  0.31757263  0.97495366  1  0  0.114669  0  0.949868  0  0  0.134025  0  1.013981  0  0  0.135523  0  1.013862  0  0  0.098301  0.133078  0  1.013777  0
H  H25  1  0.16955239  0.81757238  0.02504614  1  0  0.114668  0  0.949908  0  0  0.134024  0  1.014014  0  0  0.135522  0  1.013896  0  0  0.098317  0.133077  0  1.013809  0
H  H26  1  0.00718713  0.53399291  0.91836083  1  0  0.11643  0  0.959656  0  0  0.125289  0  1.026089  0  0  0.129522  0  1.02285  0  0  0.108724  0.122199  0  1.028601  0
H  H27  1  0.99281244  0.03399326  0.08163823  1  0  0.116459  0  0.959634  0  0  0.125327  0  1.026053  0  0  0.12956  0  1.022816  0  0  0.108728  0.122238  0  1.028565  0
H  H28  1  0.70182039  0.60665656  0.04700033  1  0  0.129283  0  0.954024  0  0  0.140857  0  1.013376  0  0  0.144751  0  1.010703  0  0  0.113813  0.138069  0  1.01539  0
H  H29  1  0.29818125  0.10665644  0.95300093  1  0  0.129276  0  0.953986  0  0  0.140871  0  1.013324  0  0  0.144765  0  1.010653  0  0  0.113822  0.138083  0  1.015336  0
H  H30  1  0.01953715  0.56398404  0.25970870  1  0  0.138202  0  0.91707  0  0  0.147326  0  0.975057  0  0  0.152251  0  0.971259  0  0  0.116667  0.14383  0  0.977753  0
H  H31  1  0.98046212  0.06398444  0.74029140  1  0  0.138219  0  0.917067  0  0  0.147348  0  0.975049  0  0  0.152272  0  0.971254  0  0  0.116665  0.143853  0  0.977745  0
H  H32  1  0.63342723  0.62409086  0.19500312  1  0  0.060698  0  0.923008  0  0  0.067633  0  0.987689  0  0  0.069618  0  0.985874  0  0  0.110181  0.066083  0  0.989468  0
H  H33  1  0.36657380  0.12409217  0.80499829  1  0  0.060744  0  0.923048  0  0  0.067675  0  0.987727  0  0  0.069663  0  0.985913  0  0  0.110196  0.066129  0  0.989504  0
H  H34  1  0.68162560  0.66291973  0.39235498  1  0  0.120223  0  0.948312  0  0  0.140106  0  1.009523  0  0  0.141358  0  1.010163  0  0  0.094918  0.139185  0  1.009101  0
H  H35  1  0.31837524  0.16291762  0.60764754  1  0  0.120294  0  0.948245  0  0  0.14019  0  1.009437  0  0  0.141442  0  1.010076  0  0  0.094945  0.13927  0  1.009016  0
H  H36  1  0.71624045  0.52326921  0.41503858  1  0  0.122068  0  0.923544  0  0  0.143964  0  0.978039  0  0  0.145786  0  0.977557  0  0  0.099264  0.14258  0  0.978546  0
H  H37  1  0.28375911  0.02326658  0.58496119  1  0  0.122127  0  0.923565  0  0  0.144021  0  0.978056  0  0  0.145844  0  0.977573  0  0  0.099296  0.142637  0  0.978563  0
H  H38  1  0.57398228  0.56328450  0.36177799  1  0  0.121599  0  0.943368  0  0  0.140978  0  1.0049  0  0  0.141777  0  1.006364  0  0  0.101871  0.140216  0  1.004356  0
H  H39  1  0.42601781  0.06328458  0.63822211  1  0  0.121626  0  0.943385  0  0  0.141008  0  1.004911  0  0  0.141808  0  1.006375  0  0  0.101875  0.140246  0  1.004366  0
H  H40  1  0.62730006  0.54841080  0.87964039  1  0  0.061488  0  0.911023  0  0  0.069489  0  0.974289  0  0  0.071606  0  0.97188  0  0  0.114986  0.067982  0  0.975957  0
H  H41  1  0.37269886  0.04841102  0.12035879  1  0  0.06152  0  0.911047  0  0  0.069509  0  0.974318  0  0  0.071625  0  0.97191  0  0  0.114993  0.068002  0  0.975985  0
H  H42  1  0.67391901  0.50374144  0.69534167  1  0  0.120481  0  0.954142  0  0  0.141083  0  1.013661  0  0  0.142385  0  1.014282  0  0  0.096555  0.140012  0  1.013514  0
H  H43  1  0.32607918  0.00374151  0.30465634  1  0  0.120465  0  0.954198  0  0  0.14108  0  1.013697  0  0  0.142377  0  1.014322  0  0  0.096547  0.140008  0  1.01355  0
H  H44  1  0.70241922  0.64358888  0.67718675  1  0  0.123324  0  0.919275  0  0  0.14702  0  0.970605  0  0  0.148627  0  0.970417  0  0  0.101807  0.145764  0  0.970908  0
H  H45  1  0.29758194  0.14358956  0.32281401  1  0  0.12331  0  0.919303  0  0  0.147012  0  0.970627  0  0  0.148617  0  0.97044  0  0  0.101812  0.145755  0  0.97093  0
H  H46  1  0.56251677  0.60011305  0.69140725  1  0  0.114739  0  0.954742  0  0  0.131256  0  1.022986  0  0  0.132758  0  1.023199  0  0  0.099594  0.130983  0  1.021206  0
H  H47  1  0.43748381  0.10011520  0.30859316  1  0  0.114762  0  0.954695  0  0  0.131246  0  1.022983  0  0  0.132749  0  1.023196  0  0  0.099597  0.130974  0  1.021202  0
H  H48  1  0.82213310  0.11697646  0.07641892  1  0  0.448892  0  0.848448  0  0  0.416135  0  0.915671  0  0  0.427311  0  0.899498  0  0  0.301224  0.408226  0  0.92691  0
H  H49  1  0.17786687  0.61697722  0.92358162  1  0  0.448886  0  0.848455  0  0  0.416126  0  0.915685  0  0  0.427302  0  0.89951  0  0  0.301215  0.408218  0  0.926923  0
H  H50  1  0.89340580  0.20387876  0.15408852  1  0  0.453249  0  0.793028  0  0  0.44309  0  0.82783  0  0  0.450222  0  0.81791  0  0  0.346456  0.437607  0  0.835359  0
H  H51  1  0.10659461  0.70387742  0.84591355  1  0  0.453229  0  0.793029  0  0  0.443068  0  0.827856  0  0  0.450201  0  0.817936  0  0  0.346437  0.437585  0  0.835386  0
H  H52  1  0.73620113  0.06429245  0.35031032  1  0  0.432911  0  0.856753  0  0  0.399624  0  0.923123  0  0  0.410168  0  0.907588  0  0  0.307707  0.391989  0  0.934158  0
H  H53  1  0.26379801  0.56428998  0.64968899  1  0  0.432862  0  0.856828  0  0  0.399574  0  0.923199  0  0  0.410118  0  0.907664  0  0  0.307698  0.391939  0  0.934234  0
H  H54  1  0.69326584  0.16960863  0.40202483  1  0  0.432005  0  0.837528  0  0  0.40878  0  0.89641  0  0  0.418496  0  0.881941  0  0  0.315382  0.40183  0  0.906556  0
H  H55  1  0.30673386  0.66960710  0.59797535  1  0  0.432014  0  0.837546  0  0  0.408787  0  0.8964  0  0  0.418503  0  0.881931  0  0  0.315374  0.401838  0  0.906545  0
C  C56  1  0.48877575  0.34213303  0.49056290  1  0  -0.028625  0  3.799652  0  0  -0.003867  0  4.032337  0  0  -0.007277  0  4.053864  0  0  -0.017404  -0.001674  0  4.017891  0
C  C57  1  0.51122431  0.84213239  0.50943711  1  0  -0.02868  0  3.799651  0  0  -0.003941  0  4.032349  0  0  -0.007352  0  4.053878  0  0  -0.017418  -0.001746  0  4.0179  0
C  C58  1  0.39158092  0.37951346  0.52861140  1  0  -0.208006  0  3.704678  0  0  -0.24774  0  3.962334  0  0  -0.25177  0  3.978157  0  0  -0.10479  -0.244989  0  3.951619  0
C  C59  1  0.60842060  0.87951365  0.47138971  1  0  -0.207957  0  3.704591  0  0  -0.247697  0  3.962229  0  0  -0.251729  0  3.978054  0  0  -0.104771  -0.244944  0  3.951512  0
C  C60  1  0.38976431  0.37624909  0.63838608  1  0  0.288718  0  3.825555  0  0  0.279265  0  4.095695  0  0  0.291115  0  4.111114  0  0  0.079343  0.270985  0  4.085574  0
C  C61  1  0.61023619  0.87624940  0.36161420  1  0  0.288719  0  3.825546  0  0  0.279328  0  4.095599  0  0  0.29118  0  4.111016  0  0  0.079369  0.271048  0  4.085482  0
C  C62  1  0.48366037  0.33915776  0.70973145  1  0  -0.317457  0  3.727204  0  0  -0.350577  0  3.987563  0  0  -0.358757  0  4.006185  0  0  -0.119867  -0.345106  0  3.975311  0
C  C63  1  0.51633880  0.83915820  0.29026853  1  0  -0.317446  0  3.727145  0  0  -0.350577  0  3.987519  0  0  -0.358757  0  4.00614  0  0  -0.119864  -0.345108  0  3.975265  0
C  C64  1  0.58155907  0.30639938  0.67023808  1  0  0.30632  0  3.84251  0  0  0.297854  0  4.109497  0  0  0.310912  0  4.123408  0  0  0.089551  0.288837  0  4.099892  0
C  C65  1  0.41843869  0.80639899  0.32976083  1  0  0.306282  0  3.84247  0  0  0.297803  0  4.109515  0  0  0.310864  0  4.123426  0  0  0.089561  0.288792  0  4.099905  0
C  C66  1  0.58352396  0.30577376  0.56050753  1  0  -0.203736  0  3.72008  0  0  -0.243068  0  3.974756  0  0  -0.247357  0  3.991243  0  0  -0.10643  -0.240291  0  3.964229  0
C  C67  1  0.41647561  0.80577324  0.43949217  1  0  -0.203676  0  3.720071  0  0  -0.24299  0  3.974754  0  0  -0.247279  0  3.991242  0  0  -0.10643  -0.240218  0  3.964228  0
C  C68  1  0.49236027  0.34068474  0.37318969  1  0  0.724387  0  3.844853  0  0  0.681234  0  4.132528  0  0  0.715913  0  4.123552  0  0  0.239543  0.657557  0  4.137626  0
C  C69  1  0.50764131  0.84068320  0.62680950  1  0  0.724385  0  3.844758  0  0  0.681261  0  4.132391  0  0  0.715941  0  4.123414  0  0  0.239613  0.657583  0  4.137486  0
C  C70  1  0.27899569  0.38331952  0.78095256  1  0  0.105897  0  3.595356  0  0  0.087217  0  3.843251  0  0  0.090406  0  3.850416  0  0  0.008707  0.084859  0  3.838425  0
C  C71  1  0.72100323  0.88332014  0.21904778  1  0  0.105963  0  3.595263  0  0  0.087308  0  3.843125  0  0  0.090482  0  3.850316  0  0  0.008693  0.084947  0  3.838303  0
C  C72  1  0.35734071  0.45242366  0.86295060  1  0  0.710133  0  3.826939  0  0  0.66731  0  4.122158  0  0  0.701041  0  4.113355  0  0  0.238079  0.644074  0  4.127724  0
C  C73  1  0.64265914  0.95242208  0.13705032  1  0  0.71009  0  3.826948  0  0  0.667241  0  4.1222  0  0  0.700975  0  4.1134  0  0  0.238054  0.644006  0  4.127762  0
C  C74  1  0.15442487  0.39685660  0.79144573  1  0  -0.329217  0  3.660748  0  0  -0.415514  0  3.904192  0  0  -0.417805  0  3.911663  0  0  -0.238447  -0.413657  0  3.89918  0
C  C75  1  0.84557410  0.89685773  0.20855392  1  0  -0.32938  0  3.660801  0  0  -0.415658  0  3.904261  0  0  -0.417945  0  3.911736  0  0  -0.238483  -0.413807  0  3.899245  0
C  C76  1  0.69070428  0.29831803  0.84563333  1  0  0.106135  0  3.61619  0  0  0.08817  0  3.862196  0  0  0.090934  0  3.870097  0  0  0.010437  0.086054  0  3.857033  0
C  C77  1  0.30929532  0.79831692  0.15436711  1  0  0.106281  0  3.616066  0  0  0.088298  0  3.862086  0  0  0.091068  0  3.869987  0  0  0.010501  0.086178  0  3.856926  0
C  C78  1  0.62880202  0.21504980  0.90581566  1  0  0.715922  0  3.816572  0  0  0.672771  0  4.109406  0  0  0.706992  0  4.100438  0  0  0.240626  0.648974  0  4.115558  0
C  C79  1  0.37119634  0.71504899  0.09418330  1  0  0.715837  0  3.816619  0  0  0.672707  0  4.109444  0  0  0.706927  0  4.10048  0  0  0.240559  0.64891  0  4.1156  0
C  C80  1  0.81727715  0.30301938  0.88864170  1  0  -0.326954  0  3.667881  0  0  -0.413956  0  3.910134  0  0  -0.415812  0  3.918483  0  0  -0.24409  -0.412417  0  3.904487  0
C  C81  1  0.18272322  0.80301902  0.11135799  1  0  -0.326996  0  3.667868  0  0  -0.413948  0  3.910131  0  0  -0.415811  0  3.918486  0  0  -0.24412  -0.41241  0  3.904484  0
C  C82  1  0.02667463  0.54941526  0.09065931  1  0  -0.020829  0  3.825415  0  0  0.006031  0  4.057518  0  0  0.003183  0  4.078  0  0  -0.017921  0.008111  0  4.043222  0
C  C83  1  0.97332515  0.04941586  0.90933988  1  0  -0.020671  0  3.825351  0  0  0.006204  0  4.057444  0  0  0.003348  0  4.077924  0  0  -0.017851  0.008287  0  4.043148  0
C  C84  1  0.96596180  0.55132182  0.98718547  1  0  -0.214635  0  3.72729  0  0  -0.25426  0  3.985591  0  0  -0.258409  0  4.002212  0  0  -0.109665  -0.251435  0  3.974469  0
C  C85  1  0.03403799  0.05132245  0.01281374  1  0  -0.214779  0  3.727393  0  0  -0.254424  0  3.985669  0  0  -0.258566  0  4.002308  0  0  -0.109753  -0.251598  0  3.974541  0
C  C86  1  0.84940265  0.57186069  0.97143732  1  0  0.309052  0  3.82453  0  0  0.298989  0  4.092606  0  0  0.31138  0  4.10755  0  0  0.085644  0.29041  0  4.082454  0
C  C87  1  0.15059756  0.07186029  0.02856285  1  0  0.308838  0  3.824568  0  0  0.298854  0  4.092598  0  0  0.311231  0  4.107558  0  0  0.085599  0.290276  0  4.082448  0
C  C88  1  0.79273080  0.59054302  0.05863794  1  0  -0.310091  0  3.689259  0  0  -0.341098  0  3.943858  0  0  -0.348876  0  3.96117  0  0  -0.116189  -0.335869  0  3.932453  0
C  C89  1  0.20726966  0.09054344  0.94136239  1  0  -0.309992  0  3.689185  0  0  -0.341031  0  3.94377  0  0  -0.348807  0  3.961086  0  0  -0.116169  -0.335802  0  3.932366  0
C  C90  1  0.85587060  0.58845755  0.16215947  1  0  0.301626  0  3.811964  0  0  0.294057  0  4.080226  0  0  0.305542  0  4.096172  0  0  0.085462  0.285966  0  4.069866  0
C  C91  1  0.14412983  0.08845742  0.83784084  1  0  0.301646  0  3.811931  0  0  0.294093  0  4.080199  0  0  0.305578  0  4.096144  0  0  0.085508  0.286002  0  4.069843  0
C  C92  1  0.97236869  0.56802788  0.17897745  1  0  -0.18676  0  3.687983  0  0  -0.227584  0  3.94493  0  0  -0.231174  0  3.960286  0  0  -0.098038  -0.225108  0  3.934551  0
C  C93  1  0.02763146  0.06802797  0.82102269  1  0  -0.186857  0  3.688042  0  0  -0.227702  0  3.944991  0  0  -0.231288  0  3.960364  0  0  -0.098081  -0.225227  0  3.934615  0
C  C94  1  0.15040376  0.52485539  0.10646276  1  0  0.640258  0  3.912142  0  0  0.595003  0  4.200746  0  0  0.627241  0  4.199358  0  0  0.196435  0.572467  0  4.20564  0
C  C95  1  0.84959568  0.02485614  0.89353622  1  0  0.64021  0  3.912374  0  0  0.594966  0  4.20094  0  0  0.627211  0  4.199563  0  0  0.196385  0.572428  0  4.205833  0
C  C96  1  0.69215920  0.57232666  0.24897072  1  0  0.109496  0  3.626283  0  0  0.088103  0  3.884342  0  0  0.090891  0  3.891247  0  0  0.007611  0.085545  0  3.880465  0
C  C97  1  0.30784198  0.07232536  0.75103026  1  0  0.109386  0  3.626427  0  0  0.088  0  3.884513  0  0  0.090772  0  3.891444  0  0  0.007638  0.085443  0  3.880636  0
C  C98  1  0.67598791  0.45578107  0.20930266  1  0  0.661732  0  3.85659  0  0  0.61518  0  4.165851  0  0  0.64799  0  4.15863  0  0  0.209124  0.594209  0  4.163858  0
C  C99  1  0.32401088  0.95578097  0.79069668  1  0  0.661743  0  3.856796  0  0  0.615169  0  4.166115  0  0  0.64799  0  4.158891  0  0  0.209089  0.594194  0  4.16412  0
C  C100  1  0.66436326  0.58051940  0.36197379  1  0  -0.325697  0  3.655152  0  0  -0.408112  0  3.896844  0  0  -0.410647  0  3.905714  0  0  -0.2358  -0.406225  0  3.891058  0
C  C101  1  0.33563720  0.08051768  0.63802725  1  0  -0.325875  0  3.655236  0  0  -0.408302  0  3.896936  0  0  -0.410834  0  3.905807  0  0  -0.23589  -0.406419  0  3.891153  0
C  C102  1  0.68290554  0.59978659  0.83867797  1  0  0.117141  0  3.630782  0  0  0.091183  0  3.892562  0  0  0.094838  0  3.898663  0  0  0.011131  0.08895  0  3.887788  0
C  C103  1  0.31709491  0.09978645  0.16132163  1  0  0.116943  0  3.630828  0  0  0.09106  0  3.89259  0  0  0.094711  0  3.898688  0  0  0.011123  0.088829  0  3.887815  0
C  C104  1  0.66357298  0.71728403  0.86712709  1  0  0.652418  0  3.868718  0  0  0.611516  0  4.164743  0  0  0.64274  0  4.163167  0  0  0.208522  0.589183  0  4.168556  0
C  C105  1  0.33642793  0.21728312  0.13287189  1  0  0.652536  0  3.868699  0  0  0.611616  0  4.164731  0  0  0.642842  0  4.163152  0  0  0.208561  0.589278  0  4.168555  0
C  C106  1  0.65340801  0.58614072  0.71783467  1  0  -0.324493  0  3.65204  0  0  -0.407687  0  3.896101  0  0  -0.409949  0  3.904203  0  0  -0.23431  -0.405701  0  3.889822  0
C  C107  1  0.34659238  0.08614168  0.28216562  1  0  -0.324389  0  3.651983  0  0  -0.407572  0  3.896018  0  0  -0.409831  0  3.904127  0  0  -0.234254  -0.405586  0  3.889737  0
O  O108  1  0.56868229  0.28161358  0.34141491  1  0  -0.777858  0  2.073854  0  0  -0.730811  0  2.319329  0  0  -0.757354  0  2.309141  0  0  -0.398477  -0.703927  0  2.327795  0
O  O109  1  0.43131669  0.78161059  0.65858300  1  0  -0.777855  0  2.073761  0  0  -0.730806  0  2.319205  0  0  -0.757349  0  2.309014  0  0  -0.398522  -0.703923  0  2.327672  0
O  O110  1  0.42035366  0.39756513  0.31263607  1  0  -0.72493  0  2.010193  0  0  -0.676622  0  2.256132  0  0  -0.710347  0  2.241334  0  0  -0.394023  -0.65966  0  2.263398  0
O  O111  1  0.57964894  0.89756396  0.68736520  1  0  -0.724916  0  2.010201  0  0  -0.676617  0  2.256128  0  0  -0.710343  0  2.241329  0  0  -0.394061  -0.659655  0  2.263391  0
O  O112  1  0.29095772  0.41061554  0.67241017  1  0  -0.315335  0  2.297316  0  0  -0.240775  0  2.51388  0  0  -0.258433  0  2.514174  0  0  -0.172444  -0.228384  0  2.513698  0
O  O113  1  0.70904324  0.91061673  0.32759040  1  0  -0.315343  0  2.297301  0  0  -0.240817  0  2.513854  0  0  -0.258472  0  2.514152  0  0  -0.172453  -0.228424  0  2.513672  0
O  O114  1  0.38967194  0.54438264  0.83522567  1  0  -0.76022  0  2.057032  0  0  -0.725331  0  2.323203  0  0  -0.749173  0  2.30918  0  0  -0.416317  -0.698569  0  2.335334  0
O  O115  1  0.61032733  0.04438092  0.16477587  1  0  -0.760252  0  2.057084  0  0  -0.725337  0  2.323234  0  0  -0.749182  0  2.309219  0  0  -0.416305  -0.698578  0  2.335366  0
O  O116  1  0.38561460  0.41067764  0.95426794  1  0  -0.712901  0  2.025292  0  0  -0.670361  0  2.285822  0  0  -0.703801  0  2.270124  0  0  -0.401223  -0.654156  0  2.29484  0
O  O117  1  0.61438637  0.91067516  0.04573263  1  0  -0.712876  0  2.025285  0  0  -0.67034  0  2.28585  0  0  -0.703778  0  2.270153  0  0  -0.401201  -0.654133  0  2.294866  0
O  O118  1  0.68007650  0.27696752  0.73357032  1  0  -0.280802  0  2.299514  0  0  -0.21624  0  2.523165  0  0  -0.232885  0  2.523649  0  0  -0.169403  -0.204285  0  2.522229  0
O  O119  1  0.31992087  0.77696644  0.26642834  1  0  -0.280841  0  2.299512  0  0  -0.216344  0  2.523238  0  0  -0.232995  0  2.523725  0  0  -0.169453  -0.204389  0  2.522302  0
O  O120  1  0.62433903  0.23937613  0.00191036  1  0  -0.742002  0  2.074091  0  0  -0.707739  0  2.340239  0  0  -0.731844  0  2.326135  0  0  -0.413558  -0.68045  0  2.352508  0
O  O121  1  0.37566230  0.73937632  0.99808960  1  0  -0.741982  0  2.074098  0  0  -0.707746  0  2.340279  0  0  -0.731842  0  2.326155  0  0  -0.413558  -0.680453  0  2.352545  0
O  O122  1  0.58654496  0.13044827  0.85877558  1  0  -0.739623  0  2.024498  0  0  -0.696826  0  2.287961  0  0  -0.731238  0  2.271017  0  0  -0.406244  -0.680316  0  2.297876  0
O  O123  1  0.41345409  0.63044985  0.14122348  1  0  -0.739576  0  2.024517  0  0  -0.696787  0  2.287978  0  0  -0.731202  0  2.271036  0  0  -0.406183  -0.680278  0  2.297898  0
O  O124  1  0.20340610  0.49947353  0.19778919  1  0  -0.657883  0  1.926892  0  0  -0.616968  0  2.152431  0  0  -0.64581  0  2.140773  0  0  -0.374694  -0.60193  0  2.15942  0
O  O125  1  0.79659230  0.99947307  0.80220972  1  0  -0.657888  0  1.927014  0  0  -0.616982  0  2.152554  0  0  -0.645827  0  2.140894  0  0  -0.374645  -0.601944  0  2.159541  0
O  O126  1  0.20379185  0.52881013  0.02491180  1  0  -0.737011  0  2.036796  0  0  -0.675239  0  2.27066  0  0  -0.708767  0  2.263839  0  0  -0.370363  -0.656554  0  2.275322  0
O  O127  1  0.79620863  0.02881081  0.97508802  1  0  -0.736977  0  2.036853  0  0  -0.67522  0  2.270719  0  0  -0.708752  0  2.263899  0  0  -0.370361  -0.656536  0  2.27538  0
O  O128  1  0.79902057  0.56896098  0.86664657  1  0  -0.294182  0  2.319972  0  0  -0.224179  0  2.547949  0  0  -0.240899  0  2.548703  0  0  -0.172715  -0.212338  0  2.546882  0
O  O129  1  0.20097875  0.06895857  0.13335358  1  0  -0.293943  0  2.319853  0  0  -0.224065  0  2.547877  0  0  -0.24077  0  2.54863  0  0  -0.172698  -0.212223  0  2.546809  0
O  O130  1  0.74446376  0.78364581  0.88317015  1  0  -0.637031  0  1.948643  0  0  -0.598624  0  2.172733  0  0  -0.628265  0  2.164296  0  0  -0.358667  -0.58317  0  2.178116  0
O  O131  1  0.25553675  0.28364309  0.11683177  1  0  -0.637106  0  1.948604  0  0  -0.598699  0  2.172705  0  0  -0.628343  0  2.164265  0  0  -0.358705  -0.583244  0  2.178094  0
O  O132  1  0.56008949  0.74673143  0.86825044  1  0  -0.826561  0  2.16423  0  0  -0.783635  0  2.430542  0  0  -0.814401  0  2.419784  0  0  -0.44305  -0.756761  0  2.438997  0
O  O133  1  0.43991057  0.24673247  0.13174638  1  0  -0.826572  0  2.164197  0  0  -0.783645  0  2.430515  0  0  -0.814405  0  2.419744  0  0  -0.443063  -0.756772  0  2.438973  0
O  O134  1  0.80786657  0.60595730  0.25268816  1  0  -0.299427  0  2.262091  0  0  -0.234941  0  2.488254  0  0  -0.250705  0  2.48844  0  0  -0.179503  -0.223807  0  2.488222  0
O  O135  1  0.19213506  0.10595631  0.74731309  1  0  -0.299393  0  2.262041  0  0  -0.234926  0  2.488228  0  0  -0.250685  0  2.488415  0  0  -0.179554  -0.223793  0  2.488197  0
O  O136  1  0.75468582  0.38688844  0.23113928  1  0  -0.663045  0  1.920297  0  0  -0.629349  0  2.144339  0  0  -0.651637  0  2.134577  0  0  -0.372419  -0.606112  0  2.150958  0
O  O137  1  0.24531346  0.88688652  0.76885790  1  0  -0.663011  0  1.92045  0  0  -0.629302  0  2.144502  0  0  -0.651595  0  2.134739  0  0  -0.372379  -0.606064  0  2.151122  0
O  O138  1  0.57853933  0.42895160  0.15701696  1  0  -0.822332  0  2.125855  0  0  -0.778401  0  2.396819  0  0  -0.811951  0  2.382391  0  0  -0.428898  -0.755453  0  2.40332  0
O  O139  1  0.42145922  0.92895292  0.84298296  1  0  -0.822334  0  2.125847  0  0  -0.778395  0  2.396825  0  0  -0.811948  0  2.382393  0  0  -0.428887  -0.755454  0  2.403348  0
O  O140  1  0.82177150  0.16505197  0.14054749  1  0  -0.914509  0  1.838815  0  0  -0.879138  0  2.017529  0  0  -0.89717  0  1.987382  0  0  -0.623349  -0.857985  0  2.042976  0
O  O141  1  0.17822826  0.66505232  0.85945345  1  0  -0.914478  0  1.838817  0  0  -0.879103  0  2.017547  0  0  -0.897137  0  1.987406  0  0  -0.623322  -0.857948  0  2.042991  0
O  O142  1  0.74063965  0.14392618  0.35080398  1  0  -0.868748  0  1.815106  0  0  -0.83163  0  1.975841  0  0  -0.847393  0  1.944155  0  0  -0.619  -0.813115  0  2.002487  0
O  O143  1  0.25935970  0.64392365  0.64919599  1  0  -0.868713  0  1.815197  0  0  -0.831588  0  1.975917  0  0  -0.847352  0  1.944232  0  0  -0.618983  -0.813069  0  2.002557  0
