# generated using pymatgen
data_CdH24C21(NO)4
_symmetry_space_group_name_H-M   'P 1'
_cell_length_a   8.14868845
_cell_length_b   10.47463021
_cell_length_c   12.01739598
_cell_angle_alpha   80.49844785
_cell_angle_beta   85.73023876
_cell_angle_gamma   83.92159301
_symmetry_Int_Tables_number   1
_chemical_formula_structural   CdH24C21(NO)4
_chemical_formula_sum   'Cd2 H48 C42 N8 O8'
_cell_volume   1004.28029776
_cell_formula_units_Z   2
loop_
 _symmetry_equiv_pos_site_id
 _symmetry_equiv_pos_as_xyz
  1  'x, y, z'
loop_
 _atom_site_type_symbol
 _atom_site_label
 _atom_site_symmetry_multiplicity
 _atom_site_fract_x
 _atom_site_fract_y
 _atom_site_fract_z
 _atom_site_occupancy
 _atom_site_hle17_bader_spin_density
 _atom_site_hle17_ddec_charge
 _atom_site_hle17_ddec_spin_density
 _atom_site_hle17_ddec_sum_bond_order
 _atom_site_hle17_magmom
 _atom_site_hse06_10hf_bader_spin_density
 _atom_site_hse06_10hf_ddec_charge
 _atom_site_hse06_10hf_ddec_spin_density
 _atom_site_hse06_10hf_ddec_sum_bond_order
 _atom_site_hse06_10hf_magmom
 _atom_site_hse06_bader_spin_density
 _atom_site_hse06_ddec_charge
 _atom_site_hse06_ddec_spin_density
 _atom_site_hse06_ddec_sum_bond_order
 _atom_site_hse06_magmom
 _atom_site_pbe_bader_spin_density
 _atom_site_pbe_cm5_charge
 _atom_site_pbe_ddec_charge
 _atom_site_pbe_ddec_spin_density
 _atom_site_pbe_ddec_sum_bond_order
 _atom_site_pbe_magmom
Cd  Cd0  1  0.99090528  0.69510336  0.38799854  1  0  1.149881  0  1.698469  0  0  0.961462  0  2.152256  0  0  1.017417  0  2.099012  0  0  0.785659  0.919034  0  2.190436  0
Cd  Cd1  1  0.00909174  0.30490005  0.61199934  1  0  1.149841  0  1.698511  0  0  0.961415  0  2.152285  0  0  1.017368  0  2.099046  0  0  0.785639  0.918987  0  2.190459  0
H  H2  1  0.94268760  0.16796142  0.40422750  1  0  0.109135  0  0.966112  0  0  0.116215  0  1.036574  0  0  0.12015  0  1.033052  0  0  0.104903  0.113447  0  1.03914  0
H  H3  1  0.05731058  0.83204296  0.59577266  1  0  0.109129  0  0.966098  0  0  0.116216  0  1.036546  0  0  0.120149  0  1.033027  0  0  0.10489  0.113453  0  1.039107  0
H  H4  1  0.87841700  0.46570363  0.11393866  1  0  0.093954  0  0.9711  0  0  0.103071  0  1.039425  0  0  0.106925  0  1.036212  0  0  0.099803  0.100382  0  1.041577  0
H  H5  1  0.12158388  0.53429880  0.88606247  1  0  0.093951  0  0.971119  0  0  0.103068  0  1.039448  0  0  0.106923  0  1.036232  0  0  0.0998  0.100377  0  1.041596  0
H  H6  1  0.94536711  0.06173848  0.07374269  1  0  0.096221  0  0.950669  0  0  0.105828  0  1.016372  0  0  0.109644  0  1.013012  0  0  0.100506  0.10299  0  1.018913  0
H  H7  1  0.05463163  0.93826104  0.92625815  1  0  0.096258  0  0.950628  0  0  0.105826  0  1.016381  0  0  0.109642  0  1.013022  0  0  0.100501  0.102989  0  1.018924  0
H  H8  1  0.75432006  0.30647445  0.93718087  1  0  0.103509  0  0.970899  0  0  0.122787  0  1.03717  0  0  0.123647  0  1.038455  0  0  0.086802  0.122202  0  1.036294  0
H  H9  1  0.24568232  0.69352506  0.06281726  1  0  0.103438  0  0.970942  0  0  0.122757  0  1.037174  0  0  0.123613  0  1.038463  0  0  0.086808  0.122176  0  1.036292  0
H  H10  1  0.95623615  0.23832414  0.90356123  1  0  0.128309  0  0.96124  0  0  0.14712  0  1.023363  0  0  0.149179  0  1.022802  0  0  0.091965  0.145561  0  1.02394  0
H  H11  1  0.04376503  0.76167537  0.09643864  1  0  0.128317  0  0.961232  0  0  0.147125  0  1.023367  0  0  0.149184  0  1.022805  0  0  0.091984  0.145566  0  1.023945  0
H  H12  1  0.91998234  0.40447254  0.92084052  1  0  0.110785  0  0.961675  0  0  0.129053  0  1.028884  0  0  0.130757  0  1.028231  0  0  0.0879  0.127937  0  1.029134  0
H  H13  1  0.08002003  0.59552696  0.07915677  1  0  0.110833  0  0.96169  0  0  0.12913  0  1.02886  0  0  0.130834  0  1.028205  0  0  0.087936  0.128012  0  1.029117  0
H  H14  1  0.80204830  0.91089282  0.56204943  1  0  0.109314  0  0.968468  0  0  0.113501  0  1.04139  0  0  0.116836  0  1.037435  0  0  0.131392  0.110887  0  1.044377  0
H  H15  1  0.19794540  0.08910770  0.43795156  1  0  0.109331  0  0.968473  0  0  0.113554  0  1.041343  0  0  0.116886  0  1.037391  0  0  0.131426  0.110943  0  1.044332  0
H  H16  1  0.59123053  0.61412299  0.43669322  1  0  0.110369  0  0.949116  0  0  0.120169  0  1.007522  0  0  0.122529  0  1.006994  0  0  0.118636  0.118455  0  1.007934  0
H  H17  1  0.40876628  0.38587265  0.56331328  1  0  0.11037  0  0.949079  0  0  0.120195  0  1.007475  0  0  0.122564  0  1.006919  0  0  0.118644  0.11848  0  1.007886  0
H  H18  1  0.35019615  0.74184588  0.56467793  1  0  0.124702  0  0.974995  0  0  0.133122  0  1.038387  0  0  0.135467  0  1.037873  0  0  0.120424  0.131263  0  1.039007  0
H  H19  1  0.64979618  0.25815560  0.43532134  1  0  0.12472  0  0.974995  0  0  0.133167  0  1.03835  0  0  0.135463  0  1.037894  0  0  0.120437  0.131305  0  1.038976  0
H  H20  1  0.36136211  0.97631294  0.64165130  1  0  0.078142  0  0.935258  0  0  0.092316  0  1.001372  0  0  0.092514  0  1.00189  0  0  0.108528  0.092003  0  1.001162  0
H  H21  1  0.63863499  0.02369048  0.35835157  1  0  0.078147  0  0.935254  0  0  0.092316  0  1.001384  0  0  0.092515  0  1.001902  0  0  0.108521  0.092003  0  1.001177  0
H  H22  1  0.56382216  0.01302976  0.66053970  1  0  0.0701  0  0.934254  0  0  0.085593  0  1.001622  0  0  0.086087  0  1.001402  0  0  0.110169  0.085115  0  1.001925  0
H  H23  1  0.43617892  0.98697072  0.33946086  1  0  0.070126  0  0.934267  0  0  0.085623  0  1.001625  0  0  0.086117  0  1.001404  0  0  0.110183  0.085146  0  1.001927  0
H  H24  1  0.41733563  0.92834824  0.84247093  1  0  0.072168  0  0.93696  0  0  0.095022  0  0.992413  0  0  0.094985  0  0.993886  0  0  0.093566  0.094876  0  0.99156  0
H  H25  1  0.58266671  0.07165224  0.15753122  1  0  0.072157  0  0.93693  0  0  0.095016  0  0.992401  0  0  0.094977  0  0.993881  0  0  0.093565  0.094875  0  0.99154  0
H  H26  1  0.38450203  0.78541087  0.79231081  1  0  0.065444  0  0.966564  0  0  0.082295  0  1.031975  0  0  0.081543  0  1.035501  0  0  0.087415  0.082678  0  1.029597  0
H  H27  1  0.61549650  0.21459059  0.20769059  1  0  0.065417  0  0.966496  0  0  0.082278  0  1.031911  0  0  0.081527  0  1.035436  0  0  0.0874  0.082655  0  1.029541  0
H  H28  1  0.72952153  0.86543962  0.82024625  1  0  0.056664  0  0.958025  0  0  0.075118  0  1.020572  0  0  0.074477  0  1.023131  0  0  0.083473  0.075277  0  1.019267  0
H  H29  1  0.27048106  0.13455793  0.17975132  1  0  0.056692  0  0.957995  0  0  0.075156  0  1.020533  0  0  0.074515  0  1.023092  0  0  0.083518  0.075315  0  1.01923  0
H  H30  1  0.68749190  0.72169833  0.77606346  1  0  0.060338  0  0.957057  0  0  0.077835  0  1.020002  0  0  0.077843  0  1.021793  0  0  0.086773  0.077708  0  1.01898  0
H  H31  1  0.31250432  0.27830120  0.22393503  1  0  0.0603  0  0.957126  0  0  0.077796  0  1.020068  0  0  0.077803  0  1.021863  0  0  0.086755  0.077671  0  1.019041  0
H  H32  1  0.52769336  0.66231955  0.96784019  1  0  0.056893  0  0.939377  0  0  0.076595  0  0.999251  0  0  0.077442  0  0.999564  0  0  0.084379  0.075959  0  0.999004  0
H  H33  1  0.47230790  0.33767898  0.03215815  1  0  0.056916  0  0.939358  0  0  0.076602  0  0.999246  0  0  0.077448  0  0.999558  0  0  0.084375  0.075967  0  0.998997  0
H  H34  1  0.74435811  0.66097975  0.96835716  1  0  0.062029  0  0.941531  0  0  0.082874  0  0.999972  0  0  0.082609  0  1.001908  0  0  0.088008  0.082951  0  0.99868  0
H  H35  1  0.25564449  0.33901781  0.03164124  1  0  0.062046  0  0.941527  0  0  0.0829  0  0.999942  0  0  0.082637  0  1.001878  0  0  0.088013  0.082976  0  0.998654  0
H  H36  1  0.49383006  0.88221495  0.03110730  1  0  0.059328  0  0.944737  0  0  0.077647  0  1.008922  0  0  0.078262  0  1.009362  0  0  0.087895  0.077129  0  1.008698  0
H  H37  1  0.50617146  0.11778164  0.96889296  1  0  0.059303  0  0.944746  0  0  0.077628  0  1.008914  0  0  0.078245  0  1.009352  0  0  0.087892  0.077109  0  1.00869  0
H  H38  1  0.71057831  0.88689274  0.01766304  1  0  0.072207  0  0.926466  0  0  0.094174  0  0.984503  0  0  0.094405  0  0.985191  0  0  0.094827  0.093835  0  0.984173  0
H  H39  1  0.28942300  0.11310580  0.98233779  1  0  0.072254  0  0.926414  0  0  0.094164  0  0.984512  0  0  0.094393  0  0.985202  0  0  0.094831  0.093824  0  0.984182  0
H  H40  1  0.74018359  0.68731561  0.17016221  1  0  0.09825  0  0.939276  0  0  0.114225  0  0.99927  0  0  0.115666  0  0.998365  0  0  0.114825  0.112968  0  1.000322  0
H  H41  1  0.25981805  0.31268001  0.82983902  1  0  0.098309  0  0.939245  0  0  0.114291  0  0.999214  0  0  0.115732  0  0.998307  0  0  0.114838  0.113031  0  1.000265  0
H  H42  1  0.64782190  0.83087741  0.21349983  1  0  0.084256  0  0.93712  0  0  0.097874  0  1.002591  0  0  0.09894  0  1.002164  0  0  0.108933  0.096971  0  1.00308  0
H  H43  1  0.35218195  0.16912015  0.78649933  1  0  0.084266  0  0.937123  0  0  0.097885  0  1.002589  0  0  0.098951  0  1.002164  0  0  0.108938  0.096979  0  1.003078  0
H  H44  1  0.32271069  0.84649182  0.26146698  1  0  0.091144  0  0.95272  0  0  0.102013  0  1.01638  0  0  0.104242  0  1.013678  0  0  0.132118  0.100095  0  1.018766  0
H  H45  1  0.67729429  0.15350670  0.73853281  1  0  0.091117  0  0.952748  0  0  0.101979  0  1.016429  0  0  0.104205  0  1.013726  0  0  0.132093  0.10006  0  1.018815  0
H  H46  1  0.57744811  0.48969272  0.19820940  1  0  0.113532  0  0.963727  0  0  0.123437  0  1.026575  0  0  0.12565  0  1.026081  0  0  0.121243  0.121744  0  1.027058  0
H  H47  1  0.42255323  0.51030485  0.80178741  1  0  0.113558  0  0.963783  0  0  0.12349  0  1.026595  0  0  0.125702  0  1.026101  0  0  0.121258  0.121796  0  1.027079  0
H  H48  1  0.27207722  0.44525031  0.31212491  1  0  0.101702  0  0.965468  0  0  0.112411  0  1.023786  0  0  0.114274  0  1.023623  0  0  0.115299  0.110975  0  1.024194  0
H  H49  1  0.72791991  0.55475116  0.68786742  1  0  0.101733  0  0.965465  0  0  0.112465  0  1.023752  0  0  0.114293  0  1.023632  0  0  0.115314  0.111025  0  1.024168  0
C  C50  1  0.95163214  0.10156706  0.24301700  1  0  -0.053495  0  3.785919  0  0  -0.027113  0  4.020481  0  0  -0.033586  0  4.041233  0  0  -0.019239  -0.02304  0  4.006701  0
C  C51  1  0.04836746  0.89843537  0.75698170  1  0  -0.053513  0  3.786168  0  0  -0.027128  0  4.020708  0  0  -0.0336  0  4.041459  0  0  -0.019226  -0.023057  0  4.006929  0
C  C52  1  0.93540626  0.19673671  0.31316213  1  0  -0.106355  0  3.724985  0  0  -0.145156  0  3.978663  0  0  -0.144043  0  3.997418  0  0  -0.08787  -0.145906  0  3.966549  0
C  C53  1  0.06459694  0.80326668  0.68683705  1  0  -0.106327  0  3.725007  0  0  -0.145113  0  3.978672  0  0  -0.144003  0  3.997432  0  0  -0.087847  -0.145867  0  3.966554  0
C  C54  1  0.90842662  0.32800643  0.26622105  1  0  -0.072166  0  3.796099  0  0  -0.046088  0  4.034396  0  0  -0.05359  0  4.056444  0  0  -0.025825  -0.041234  0  4.019733  0
C  C55  1  0.09157422  0.67199600  0.73377758  1  0  -0.07222  0  3.79617  0  0  -0.046175  0  4.034508  0  0  -0.05368  0  4.056562  0  0  -0.025867  -0.04132  0  4.019844  0
C  C56  1  0.89725643  0.36269482  0.14905253  1  0  -0.139368  0  3.703579  0  0  -0.172055  0  3.948908  0  0  -0.171424  0  3.96587  0  0  -0.090057  -0.171717  0  3.936894  0
C  C57  1  0.10274597  0.63730468  0.85094643  1  0  -0.139313  0  3.703634  0  0  -0.171998  0  3.948956  0  0  -0.171367  0  3.965921  0  0  -0.090038  -0.171655  0  3.936936  0
C  C58  1  0.90891710  0.26868701  0.07771257  1  0  0.143346  0  3.769781  0  0  0.173764  0  4.00462  0  0  0.17373  0  4.028429  0  0  -0.008378  0.173592  0  3.988116  0
C  C59  1  0.09108643  0.73131346  0.92228701  1  0  0.143255  0  3.769698  0  0  0.173676  0  4.004564  0  0  0.173642  0  4.028372  0  0  -0.008403  0.173504  0  3.988059  0
C  C60  1  0.93648584  0.13789851  0.12648723  1  0  -0.125891  0  3.688319  0  0  -0.157984  0  3.933168  0  0  -0.157196  0  3.949844  0  0  -0.083961  -0.157691  0  3.92142  0
C  C61  1  0.06351499  0.86210392  0.87351140  1  0  -0.125901  0  3.688365  0  0  -0.157991  0  3.933231  0  0  -0.157202  0  3.949907  0  0  -0.083977  -0.1577  0  3.921486  0
C  C62  1  0.98218791  0.96063227  0.29265325  1  0  0.608536  0  3.97494  0  0  0.561207  0  4.266254  0  0  0.594609  0  4.260634  0  0  0.181124  0.538567  0  4.268937  0
C  C63  1  0.01780066  0.03937021  0.70734859  1  0  0.608517  0  3.975017  0  0  0.561214  0  4.266305  0  0  0.594617  0  4.260684  0  0  0.181122  0.538574  0  4.268987  0
C  C64  1  0.89593697  0.43167411  0.34042157  1  0  0.649498  0  3.93658  0  0  0.597182  0  4.230444  0  0  0.632426  0  4.222003  0  0  0.200514  0.573071  0  4.235326  0
C  C65  1  0.10406501  0.56832928  0.65957852  1  0  0.649563  0  3.936573  0  0  0.597274  0  4.230404  0  0  0.632518  0  4.221966  0  0  0.200566  0.573161  0  4.235287  0
C  C66  1  0.88550559  0.30631350  0.95360363  1  0  -0.350737  0  3.719332  0  0  -0.430965  0  3.95315  0  0  -0.433865  0  3.963037  0  0  -0.249125  -0.428806  0  3.946344  0
C  C67  1  0.11449449  0.69368504  0.04639727  1  0  -0.350651  0  3.719253  0  0  -0.430935  0  3.953028  0  0  -0.43383  0  3.962914  0  0  -0.249148  -0.428777  0  3.946223  0
C  C68  1  0.71571900  0.84476958  0.54498847  1  0  0.144215  0  3.65603  0  0  0.08472  0  3.924007  0  0  0.097754  0  3.937715  0  0  0.135095  0.076319  0  3.914551  0
C  C69  1  0.28427605  0.15522996  0.45501341  1  0  0.144246  0  3.655951  0  0  0.084724  0  3.923949  0  0  0.097763  0  3.937655  0  0  0.135112  0.076316  0  3.914501  0
C  C70  1  0.59977408  0.69475681  0.48143303  1  0  0.005805  0  3.756213  0  0  -0.029553  0  4.027604  0  0  -0.026633  0  4.046882  0  0  -0.003126  -0.03145  0  4.014599  0
C  C71  1  0.40022135  0.30523981  0.51857176  1  0  0.005845  0  3.756239  0  0  -0.029548  0  4.027628  0  0  -0.026624  0  4.046904  0  0  -0.003177  -0.031443  0  4.014621  0
C  C72  1  0.47957187  0.75670304  0.54541411  1  0  -0.071326  0  3.650968  0  0  -0.108673  0  3.905183  0  0  -0.107944  0  3.92441  0  0  -0.001546  -0.109249  0  3.892633  0
C  C73  1  0.52042343  0.24329455  0.45458970  1  0  -0.071404  0  3.651107  0  0  -0.108761  0  3.905305  0  0  -0.107993  0  3.924572  0  0  -0.001554  -0.10934  0  3.892759  0
C  C74  1  0.48425833  0.93340040  0.66725252  1  0  0.005753  0  3.619654  0  0  -0.061344  0  3.887006  0  0  -0.056268  0  3.897459  0  0  -0.052902  -0.064614  0  3.879919  0
C  C75  1  0.51574027  0.06660010  0.33274735  1  0  0.005653  0  3.619653  0  0  -0.061443  0  3.887013  0  0  -0.056367  0  3.897467  0  0  -0.052947  -0.064714  0  3.87993  0
C  C76  1  0.47298074  0.85867719  0.78786714  1  0  -0.132471  0  3.683659  0  0  -0.171904  0  3.939508  0  0  -0.173636  0  3.954379  0  0  -0.166673  -0.170602  0  3.929363  0
C  C77  1  0.52701665  0.14132331  0.21213364  1  0  -0.132356  0  3.683595  0  0  -0.171823  0  3.939489  0  0  -0.173556  0  3.954365  0  0  -0.166648  -0.17052  0  3.929345  0
C  C78  1  0.63815841  0.79348924  0.83013464  1  0  -0.107809  0  3.693551  0  0  -0.14529  0  3.950233  0  0  -0.146218  0  3.965973  0  0  -0.172165  -0.144388  0  3.939501  0
C  C79  1  0.36184264  0.20651124  0.16986426  1  0  -0.107817  0  3.693617  0  0  -0.145294  0  3.950296  0  0  -0.146223  0  3.966035  0  0  -0.172168  -0.144392  0  3.939565  0
C  C80  1  0.62968314  0.72563763  0.95338756  1  0  -0.105792  0  3.684727  0  0  -0.142679  0  3.94313  0  0  -0.143645  0  3.957996  0  0  -0.168366  -0.141855  0  3.932747  0
C  C81  1  0.37031668  0.27436286  0.04661141  1  0  -0.105826  0  3.684742  0  0  -0.142702  0  3.94311  0  0  -0.143669  0  3.957975  0  0  -0.168364  -0.141879  0  3.932728  0
C  C82  1  0.61213304  0.82075806  0.03836458  1  0  -0.123394  0  3.692551  0  0  -0.169161  0  3.960918  0  0  -0.170205  0  3.974815  0  0  -0.16443  -0.168234  0  3.951228  0
C  C83  1  0.38787072  0.17924047  0.96163610  1  0  -0.123403  0  3.692568  0  0  -0.169125  0  3.960892  0  0  -0.170167  0  3.974784  0  0  -0.164443  -0.168196  0  3.951197  0
C  C84  1  0.63024396  0.75750052  0.16124749  1  0  -0.010931  0  3.611572  0  0  -0.072867  0  3.870549  0  0  -0.068681  0  3.880594  0  0  -0.057395  -0.075581  0  3.863815  0
C  C85  1  0.36976116  0.24249703  0.83875326  1  0  -0.011061  0  3.611659  0  0  -0.072996  0  3.8706  0  0  -0.068812  0  3.880655  0  0  -0.057433  -0.075701  0  3.86385  0
C  C86  1  0.34833140  0.74326412  0.25939160  1  0  0.147051  0  3.695289  0  0  0.084826  0  3.96377  0  0  0.097911  0  3.978286  0  0  0.13805  0.076269  0  3.953867  0
C  C87  1  0.65167207  0.25673635  0.74060466  1  0  0.146969  0  3.695388  0  0  0.084729  0  3.963879  0  0  0.097821  0  3.978396  0  0  0.137994  0.076172  0  3.953976  0
C  C88  1  0.47777941  0.55573331  0.22680993  1  0  -0.07492  0  3.678521  0  0  -0.113906  0  3.937643  0  0  -0.112876  0  3.956869  0  0  -0.001551  -0.114527  0  3.924912  0
C  C89  1  0.52222444  0.44426425  0.77318923  1  0  -0.075053  0  3.678561  0  0  -0.114074  0  3.937693  0  0  -0.113046  0  3.956911  0  0  -0.001588  -0.114697  0  3.924963  0
C  C90  1  0.32728871  0.53544445  0.28346799  1  0  0.004335  0  3.76105  0  0  -0.029376  0  4.025208  0  0  -0.026955  0  4.046058  0  0  -0.001732  -0.031096  0  4.011283  0
C  C91  1  0.67271180  0.46455992  0.71652455  1  0  0.00433  0  3.761051  0  0  -0.029398  0  4.025199  0  0  -0.026951  0  4.046064  0  0  -0.001733  -0.031119  0  4.011276  0
N  N92  1  0.74622724  0.75022752  0.48194949  1  0  -0.401147  0  3.269157  0  0  -0.32404  0  3.556291  0  0  -0.346261  0  3.574025  0  0  -0.361218  -0.308921  0  3.543972  0
N  N93  1  0.25376807  0.24977007  0.51805433  1  0  -0.401179  0  3.269301  0  0  -0.324067  0  3.556454  0  0  -0.346293  0  3.574198  0  0  -0.361215  -0.308948  0  3.544138  0
N  N94  1  0.55518772  0.85124766  0.58509602  1  0  -0.064933  0  3.571228  0  0  0.031956  0  3.786648  0  0  0.017393  0  3.813063  0  0  -0.247472  0.041475  0  3.768835  0
N  N95  1  0.44480730  0.14875188  0.41490420  1  0  -0.0649  0  3.571138  0  0  0.031988  0  3.786564  0  0  0.017426  0  3.812967  0  0  -0.247449  0.041509  0  3.768753  0
N  N96  1  0.24831828  0.65311984  0.30329668  1  0  -0.371142  0  3.26665  0  0  -0.292014  0  3.541653  0  0  -0.313565  0  3.560169  0  0  -0.353536  -0.277332  0  3.528727  0
N  N97  1  0.75168270  0.34688064  0.69669806  1  0  -0.371067  0  3.266704  0  0  -0.29194  0  3.541748  0  0  -0.31349  0  3.56025  0  0  -0.353515  -0.277255  0  3.528814  0
N  N98  1  0.48908767  0.68837688  0.21199973  1  0  -0.068499  0  3.588077  0  0  0.026253  0  3.807308  0  0  0.011501  0  3.83427  0  0  -0.245931  0.035989  0  3.788983  0
N  N99  1  0.51091639  0.31161873  0.78799886  1  0  -0.068326  0  3.587932  0  0  0.026437  0  3.807142  0  0  0.011684  0  3.834107  0  0  -0.245853  0.036171  0  3.788813  0
O  O100  1  0.06113056  0.92994588  0.38245269  1  0  -0.643916  0  1.908397  0  0  -0.587038  0  2.141983  0  0  -0.613193  0  2.132227  0  0  -0.336627  -0.56781  0  2.147378  0
O  O101  1  0.93885375  0.07006343  0.61756089  1  0  -0.643856  0  1.908713  0  0  -0.586955  0  2.142247  0  0  -0.613106  0  2.132488  0  0  -0.336589  -0.567731  0  2.147642  0
O  O102  1  0.92531291  0.87814803  0.24204253  1  0  -0.648669  0  1.974573  0  0  -0.590386  0  2.219296  0  0  -0.617964  0  2.211095  0  0  -0.332531  -0.569977  0  2.224748  0
O  O103  1  0.07469570  0.12185145  0.75795940  1  0  -0.648721  0  1.974366  0  0  -0.590433  0  2.219051  0  0  -0.618014  0  2.210852  0  0  -0.332556  -0.570023  0  2.2245  0
O  O104  1  0.88102831  0.39905326  0.44675969  1  0  -0.670297  0  2.041079  0  0  -0.608125  0  2.306862  0  0  -0.634692  0  2.292225  0  0  -0.341586  -0.588435  0  2.315515  0
O  O105  1  0.11897117  0.60095015  0.55323805  1  0  -0.67038  0  2.040979  0  0  -0.608197  0  2.306701  0  0  -0.634763  0  2.29207  0  0  -0.341643  -0.588524  0  2.315398  0
O  O106  1  0.90032928  0.54867473  0.28967905  1  0  -0.643657  0  2.023116  0  0  -0.575978  0  2.279108  0  0  -0.604397  0  2.267668  0  0  -0.326976  -0.555273  0  2.287096  0
O  O107  1  0.09967905  0.45132670  0.71031929  1  0  -0.643635  0  2.023139  0  0  -0.575959  0  2.279103  0  0  -0.604379  0  2.267666  0  0  -0.32697  -0.555252  0  2.28709  0
