# generated using pymatgen
data_PrH9C10O9
_symmetry_space_group_name_H-M   'P 1'
_cell_length_a   8.87323133
_cell_length_b   8.83157194
_cell_length_c   9.82778972
_cell_angle_alpha   75.54232429
_cell_angle_beta   67.00519865
_cell_angle_gamma   71.33925075
_symmetry_Int_Tables_number   1
_chemical_formula_structural   PrH9C10O9
_chemical_formula_sum   'Pr2 H18 C20 O18'
_cell_volume   664.78666563
_cell_formula_units_Z   2
loop_
 _symmetry_equiv_pos_site_id
 _symmetry_equiv_pos_as_xyz
  1  'x, y, z'
loop_
 _atom_site_type_symbol
 _atom_site_label
 _atom_site_symmetry_multiplicity
 _atom_site_fract_x
 _atom_site_fract_y
 _atom_site_fract_z
 _atom_site_occupancy
 _atom_site_hle17_bader_spin_density
 _atom_site_hle17_ddec_charge
 _atom_site_hle17_ddec_spin_density
 _atom_site_hle17_ddec_sum_bond_order
 _atom_site_hle17_magmom
 _atom_site_hse06_10hf_bader_spin_density
 _atom_site_hse06_10hf_ddec_charge
 _atom_site_hse06_10hf_ddec_spin_density
 _atom_site_hse06_10hf_ddec_sum_bond_order
 _atom_site_hse06_10hf_magmom
 _atom_site_hse06_bader_spin_density
 _atom_site_hse06_ddec_charge
 _atom_site_hse06_ddec_spin_density
 _atom_site_hse06_ddec_sum_bond_order
 _atom_site_hse06_magmom
 _atom_site_pbe_bader_spin_density
 _atom_site_pbe_cm5_charge
 _atom_site_pbe_ddec_charge
 _atom_site_pbe_ddec_spin_density
 _atom_site_pbe_ddec_sum_bond_order
 _atom_site_pbe_magmom
Pr  Pr0  1  0.22374636  0.53573040  0.53852174  1  0  2.307573  0  1.530788  0  0  2.142472  0  1.98078  0  0  2.236622  0  1.841397  0  0  1.455863  2.10905  0  2.015161  0
Pr  Pr1  1  0.77625031  0.46427304  0.46147527  1  0  2.307578  0  1.530679  0  0  2.142445  0  1.980693  0  0  2.23662  0  1.841275  0  0  1.45586  2.109021  0  2.015078  0
H  H2  1  0.73643304  0.37509908  0.00199201  1  0  0.105898  0  0.95468  0  0  0.115683  0  1.017866  0  0  0.119639  0  1.013981  0  0  0.111475  0.112731  0  1.020355  0
H  H3  1  0.26356120  0.62491288  0.99800792  1  0  0.105918  0  0.954731  0  0  0.115727  0  1.017863  0  0  0.119685  0  1.013983  0  0  0.1115  0.112775  0  1.020352  0
H  H4  1  0.39517041  0.16801580  0.93693539  1  0  0.100757  0  0.950838  0  0  0.113114  0  1.007652  0  0  0.116341  0  1.004949  0  0  0.109498  0.110955  0  1.009214  0
H  H5  1  0.60484104  0.83196975  0.06306271  1  0  0.100697  0  0.951038  0  0  0.113064  0  1.007827  0  0  0.116295  0  1.005124  0  0  0.109482  0.110906  0  1.009388  0
H  H6  1  0.27849963  0.08914152  0.20650201  1  0  0.125636  0  0.941115  0  0  0.139201  0  0.992137  0  0  0.142624  0  0.991162  0  0  0.117836  0.136671  0  0.99286  0
H  H7  1  0.72151548  0.91084410  0.79349481  1  0  0.125656  0  0.940868  0  0  0.139209  0  0.991921  0  0  0.142636  0  0.990944  0  0  0.117835  0.136679  0  0.992643  0
H  H8  1  0.24273423  0.01129735  0.58822370  1  0  0.117687  0  0.890038  0  0  0.132176  0  0.940632  0  0  0.133817  0  0.93937  0  0  0.129508  0.131038  0  0.941472  0
H  H9  1  0.75725807  0.98869992  0.41177422  1  0  0.117739  0  0.890026  0  0  0.132158  0  0.940678  0  0  0.133797  0  0.939421  0  0  0.129536  0.13102  0  0.941518  0
H  H10  1  0.25439986  0.97081121  0.41609196  1  0  0.119275  0  0.94679  0  0  0.12397  0  1.014204  0  0  0.127103  0  1.011413  0  0  0.120646  0.12167  0  1.016454  0
H  H11  1  0.74558741  0.02919084  0.58390761  1  0  0.119267  0  0.946807  0  0  0.123943  0  1.014211  0  0  0.127077  0  1.011418  0  0  0.12063  0.121642  0  1.016462  0
H  H12  1  0.43100431  0.26083490  0.70330492  1  0  0.434642  0  0.872519  0  0  0.404096  0  0.935874  0  0  0.415141  0  0.920124  0  0  0.294487  0.396394  0  0.946876  0
H  H13  1  0.56899963  0.73916871  0.29669156  1  0  0.434675  0  0.872471  0  0  0.404135  0  0.935819  0  0  0.415178  0  0.920072  0  0  0.294478  0.396433  0  0.946821  0
H  H14  1  0.36691452  0.19546399  0.60920902  1  0  0.421153  0  0.86204  0  0  0.390741  0  0.937747  0  0  0.400112  0  0.923974  0  0  0.306095  0.384156  0  0.947575  0
H  H15  1  0.63308078  0.80454430  0.39078835  1  0  0.421125  0  0.862036  0  0  0.390718  0  0.937766  0  0  0.400088  0  0.923998  0  0  0.306113  0.384133  0  0.947594  0
H  H16  1  0.89842885  0.44790860  0.77515452  1  0  0.447131  0  0.854345  0  0  0.414627  0  0.920202  0  0  0.426103  0  0.903564  0  0  0.300875  0.406555  0  0.931998  0
H  H17  1  0.10157393  0.55209023  0.22484959  1  0  0.447102  0  0.854379  0  0  0.414629  0  0.920188  0  0  0.426094  0  0.903564  0  0  0.300859  0.406557  0  0.931985  0
H  H18  1  0.03616978  0.41012552  0.85321493  1  0  0.436528  0  0.811694  0  0  0.424523  0  0.856845  0  0  0.432057  0  0.847162  0  0  0.331365  0.419022  0  0.863233  0
H  H19  1  0.96384587  0.58984539  0.14677496  1  0  0.436577  0  0.81171  0  0  0.424542  0  0.85692  0  0  0.432081  0  0.847153  0  0  0.331303  0.41904  0  0.86331  0
C  C20  1  0.44683624  0.18025326  0.25865879  1  0  0.295005  0  3.722018  0  0  0.273097  0  3.99082  0  0  0.289022  0  4.003644  0  0  0.10736  0.261908  0  3.98237  0
C  C21  1  0.55316125  0.81974290  0.74133861  1  0  0.294909  0  3.721939  0  0  0.273004  0  3.990737  0  0  0.288926  0  4.003562  0  0  0.107364  0.261816  0  3.982288  0
C  C22  1  0.57268402  0.26772143  0.19964625  1  0  -0.168506  0  3.718434  0  0  -0.152671  0  3.965482  0  0  -0.164681  0  3.984844  0  0  -0.021982  -0.145399  0  3.952378  0
C  C23  1  0.42730708  0.73228436  0.80035315  1  0  -0.168572  0  3.718406  0  0  -0.152727  0  3.965477  0  0  -0.164734  0  3.984837  0  0  -0.022033  -0.145448  0  3.952363  0
C  C24  1  0.63920739  0.30855951  0.04538000  1  0  -0.034228  0  3.705468  0  0  -0.070552  0  3.951813  0  0  -0.06493  0  3.969099  0  0  -0.069079  -0.072849  0  3.938842  0
C  C25  1  0.36079010  0.69144523  0.95462049  1  0  -0.034256  0  3.705496  0  0  -0.070578  0  3.951822  0  0  -0.064964  0  3.969114  0  0  -0.06908  -0.072878  0  3.938851  0
C  C26  1  0.57997894  0.27109819  0.94830000  1  0  -0.10251  0  3.790788  0  0  -0.081438  0  4.032627  0  0  -0.093169  0  4.056125  0  0  -0.030163  -0.074148  0  4.016362  0
C  C27  1  0.42002321  0.72890301  0.05170073  1  0  -0.10249  0  3.790802  0  0  -0.081447  0  4.032646  0  0  -0.093177  0  4.056143  0  0  -0.030207  -0.074156  0  4.01638  0
C  C28  1  0.44691825  0.19456096  0.00964953  1  0  -0.011252  0  3.715299  0  0  -0.036471  0  3.964085  0  0  -0.03076  0  3.981106  0  0  -0.067989  -0.040393  0  3.952423  0
C  C29  1  0.55309029  0.80543061  0.99034817  1  0  -0.011176  0  3.715481  0  0  -0.036377  0  3.964233  0  0  -0.030668  0  3.981256  0  0  -0.067931  -0.040297  0  3.952567  0
C  C30  1  0.38050433  0.14966755  0.16290956  1  0  -0.187667  0  3.715283  0  0  -0.209833  0  3.975895  0  0  -0.218233  0  3.994145  0  0  -0.096405  -0.203776  0  3.963379  0
C  C31  1  0.61949867  0.85032634  0.83708952  1  0  -0.187605  0  3.714954  0  0  -0.209774  0  3.975578  0  0  -0.218177  0  3.993834  0  0  -0.0964  -0.203717  0  3.963063  0
C  C32  1  0.24910339  0.06520839  0.47312018  1  0  -0.075374  0  3.554627  0  0  -0.128158  0  3.808103  0  0  -0.124335  0  3.805736  0  0  -0.055412  -0.130861  0  3.809377  0
C  C33  1  0.75089238  0.93479384  0.52687844  1  0  -0.075465  0  3.554739  0  0  -0.128112  0  3.808111  0  0  -0.124291  0  3.805745  0  0  -0.055419  -0.130816  0  3.809384  0
C  C34  1  0.09483692  0.20673140  0.47667198  1  0  0.700283  0  3.864678  0  0  0.655796  0  4.161099  0  0  0.688256  0  4.158119  0  0  0.216391  0.633652  0  4.165723  0
C  C35  1  0.90515492  0.79326720  0.52333393  1  0  0.700477  0  3.864677  0  0  0.655937  0  4.161126  0  0  0.688394  0  4.158147  0  0  0.216449  0.633803  0  4.165738  0
C  C36  1  0.62896529  0.33323629  0.29271174  1  0  0.694803  0  3.906179  0  0  0.6446  0  4.206304  0  0  0.679395  0  4.201409  0  0  0.212111  0.621127  0  4.212394  0
C  C37  1  0.37103147  0.66676236  0.70728940  1  0  0.69486  0  3.906222  0  0  0.644612  0  4.20641  0  0  0.679406  0  4.201513  0  0  0.212141  0.621137  0  4.212502  0
C  C38  1  0.65436405  0.31548839  0.78492429  1  0  0.662818  0  3.897734  0  0  0.612615  0  4.190215  0  0  0.646234  0  4.186792  0  0  0.211304  0.589619  0  4.194373  0
C  C39  1  0.34563853  0.68452006  0.21507255  1  0  0.662777  0  3.897847  0  0  0.612625  0  4.190278  0  0  0.646245  0  4.186849  0  0  0.2113  0.589629  0  4.19444  0
O  O40  1  0.40049590  0.12312149  0.40821760  1  0  -0.276953  0  2.373788  0  0  -0.209914  0  2.612145  0  0  -0.228048  0  2.614116  0  0  -0.1664  -0.197289  0  2.610831  0
O  O41  1  0.59950364  0.87687598  0.59178184  1  0  -0.276851  0  2.373851  0  0  -0.20982  0  2.612142  0  0  -0.227953  0  2.614117  0  0  -0.166368  -0.197204  0  2.61084  0
O  O42  1  0.96622103  0.18460221  0.46675469  1  0  -0.660695  0  1.964159  0  0  -0.614577  0  2.201992  0  0  -0.643583  0  2.192446  0  0  -0.365766  -0.597844  0  2.207077  0
O  O43  1  0.03377427  0.81540137  0.53325292  1  0  -0.660831  0  1.96399  0  0  -0.614708  0  2.201857  0  0  -0.64371  0  2.19231  0  0  -0.365833  -0.597974  0  2.20693  0
O  O44  1  0.10243722  0.34448348  0.48951303  1  0  -0.785153  0  2.09276  0  0  -0.727207  0  2.349539  0  0  -0.762222  0  2.339222  0  0  -0.405609  -0.709466  0  2.35563  0
O  O45  1  0.89756697  0.65551903  0.51049074  1  0  -0.785255  0  2.092976  0  0  -0.727304  0  2.349784  0  0  -0.762317  0  2.339467  0  0  -0.405619  -0.709566  0  2.355868  0
O  O46  1  0.52107110  0.38512585  0.41452344  1  0  -0.821685  0  2.131054  0  0  -0.764902  0  2.395276  0  0  -0.799403  0  2.383512  0  0  -0.417674  -0.747729  0  2.402342  0
O  O47  1  0.47892067  0.61487754  0.58547730  1  0  -0.821607  0  2.131028  0  0  -0.764829  0  2.395308  0  0  -0.799329  0  2.383543  0  0  -0.417623  -0.747654  0  2.402369  0
O  O48  1  0.77979809  0.34505838  0.24713730  1  0  -0.663225  0  1.916064  0  0  -0.614402  0  2.142284  0  0  -0.642102  0  2.13144  0  0  -0.364991  -0.598246  0  2.148469  0
O  O49  1  0.22019520  0.65494385  0.75286522  1  0  -0.663286  0  1.916104  0  0  -0.614454  0  2.142344  0  0  -0.642152  0  2.131501  0  0  -0.365047  -0.598298  0  2.148531  0
O  O50  1  0.76284128  0.40090409  0.73201246  1  0  -0.70795  0  2.078661  0  0  -0.647542  0  2.315785  0  0  -0.678022  0  2.307438  0  0  -0.363297  -0.629554  0  2.320656  0
O  O51  1  0.23715654  0.59910801  0.26799128  1  0  -0.707938  0  2.07863  0  0  -0.647592  0  2.315798  0  0  -0.678062  0  2.307439  0  0  -0.363348  -0.629605  0  2.320672  0
O  O52  1  0.61090751  0.27184670  0.69369143  1  0  -0.697111  0  2.056493  0  0  -0.639725  0  2.293348  0  0  -0.66887  0  2.284894  0  0  -0.339061  -0.622533  0  2.298948  0
O  O53  1  0.38909319  0.72816414  0.30630449  1  0  -0.697078  0  2.056574  0  0  -0.63973  0  2.29345  0  0  -0.668872  0  2.284995  0  0  -0.339007  -0.622539  0  2.299055  0
O  O54  1  0.32367337  0.26044623  0.69028409  1  0  -0.891645  0  1.789823  0  0  -0.847267  0  1.973686  0  0  -0.86957  0  1.939506  0  0  -0.630421  -0.834563  0  1.994666  0
O  O55  1  0.67632653  0.73955858  0.30971758  1  0  -0.891653  0  1.789726  0  0  -0.847267  0  1.973634  0  0  -0.869577  0  1.939451  0  0  -0.630433  -0.834567  0  1.99462  0
O  O56  1  0.98857231  0.48806251  0.78200576  1  0  -0.885242  0  1.822676  0  0  -0.842017  0  2.005239  0  0  -0.864518  0  1.973194  0  0  -0.63057  -0.829863  0  2.024333  0
O  O57  1  0.01143370  0.51192911  0.21799993  1  0  -0.88529  0  1.822775  0  0  -0.842062  0  2.005307  0  0  -0.864564  0  1.973204  0  0  -0.630498  -0.829907  0  2.024401  0
