# generated using pymatgen
data_Cu2H16C21(N3O5)2
_symmetry_space_group_name_H-M   'P 1'
_cell_length_a   18.61858222
_cell_length_b   18.61856577
_cell_length_c   24.00638319
_cell_angle_alpha   90.00004832
_cell_angle_beta   89.99986899
_cell_angle_gamma   119.99685781
_symmetry_Int_Tables_number   1
_chemical_formula_structural   Cu2H16C21(N3O5)2
_chemical_formula_sum   'Cu12 H96 C126 N36 O60'
_cell_volume   7207.15638835
_cell_formula_units_Z   6
loop_
 _symmetry_equiv_pos_site_id
 _symmetry_equiv_pos_as_xyz
  1  'x, y, z'
loop_
 _atom_site_type_symbol
 _atom_site_label
 _atom_site_symmetry_multiplicity
 _atom_site_fract_x
 _atom_site_fract_y
 _atom_site_fract_z
 _atom_site_occupancy
 _atom_site_pbe_bader_charge
 _atom_site_pbe_bader_spin_density
 _atom_site_pbe_cm5_charge
 _atom_site_pbe_ddec_charge
 _atom_site_pbe_ddec_spin_density
 _atom_site_pbe_ddec_sum_bond_order
 _atom_site_pbe_magmom
Cu  Cu0  1  0.52317734  0.47682415  0.95841562  1  1.081847  0.577635  0.677882  0.831866  0.734221  2.310928  0.578
Cu  Cu1  1  0.52329877  0.04651367  0.95860001  1  1.087545  0.577567  0.677835  0.832955  0.734222  2.308602  0.578
Cu  Cu2  1  0.95348192  0.47670142  0.95860310  1  1.087706  0.577561  0.6778  0.832881  0.734214  2.308813  0.578
Cu  Cu3  1  0.47677441  0.52322809  0.45790421  1  1.084686  0.577741  0.678292  0.833764  0.734603  2.310025  0.578
Cu  Cu4  1  0.47689423  0.95370228  0.45778563  1  1.088762  0.577607  0.677992  0.832525  0.734509  2.309504  0.578
Cu  Cu5  1  0.04629649  0.52310740  0.45778754  1  1.088755  0.577602  0.678003  0.832592  0.734504  2.309313  0.578
Cu  Cu6  1  0.47676890  0.52323008  0.04210105  1  1.084602  0.577748  0.678315  0.833856  0.734621  2.309891  0.578
Cu  Cu7  1  0.04629090  0.52311054  0.04221099  1  1.088743  0.577608  0.677996  0.832469  0.734507  2.309586  0.578
Cu  Cu8  1  0.47688679  0.95370297  0.04221283  1  1.088667  0.57761  0.677988  0.832569  0.734509  2.309282  0.578
Cu  Cu9  1  0.52318035  0.47681977  0.54158482  1  1.08194  0.577634  0.677907  0.831858  0.734227  2.310947  0.578
Cu  Cu10  1  0.95348769  0.47669857  0.54139823  1  1.087657  0.57757  0.677856  0.832984  0.734223  2.308699  0.578
Cu  Cu11  1  0.52330307  0.04651122  0.54140056  1  1.087611  0.577579  0.677849  0.833076  0.734237  2.308609  0.578
H  H12  1  0.58561014  0.49743259  0.85611486  1  0.622439  -8.3e-05  0.32649  0.405805  -0.00011  0.877069  0.0
H  H13  1  0.43801040  0.28921753  0.21560695  1  0.43185  -1.9e-05  0.278402  0.27007  -3.3e-05  0.991094  0.0
H  H14  1  0.35146760  0.29169151  0.13799100  1  0.110666  0.000356  0.110955  0.120919  0.000281  0.996401  0.0
H  H15  1  0.50298574  0.08914123  0.85635890  1  0.615184  -8.4e-05  0.327224  0.406279  -0.000109  0.87594  0.0
H  H16  1  0.71124518  0.14864682  0.21561124  1  0.40072  -1.9e-05  0.27887  0.270879  -3.4e-05  0.990845  0.0
H  H17  1  0.70872442  0.05972997  0.13812724  1  0.124319  0.00036  0.111021  0.121256  0.000282  0.995957  0.0
H  H18  1  0.91127418  0.41416407  0.85625659  1  0.618234  -8.4e-05  0.327243  0.406446  -0.00011  0.875407  0.0
H  H19  1  0.85098518  0.56213584  0.21560042  1  0.408327  -1.9e-05  0.278684  0.270708  -3.4e-05  0.991033  0.0
H  H20  1  0.93985536  0.64852332  0.13812014  1  0.1161  0.000352  0.110915  0.120782  0.000281  0.99635  0.0
H  H21  1  0.41447254  0.50248052  0.35580475  1  0.627705  -8.3e-05  0.327083  0.406589  -0.000111  0.875843  0.0
H  H22  1  0.56032706  0.71021891  0.71561607  1  0.398787  -1.9e-05  0.278456  0.270883  -3.4e-05  0.990354  0.0
H  H23  1  0.64720931  0.70783113  0.63785459  1  0.117697  0.000355  0.110664  0.120954  0.000285  0.99612  0.0
H  H24  1  0.49783643  0.91236972  0.35576565  1  0.612323  -8.5e-05  0.326546  0.405458  -0.000111  0.876681  0.0
H  H25  1  0.29004755  0.85017813  0.71560761  1  0.398908  -1.9e-05  0.278338  0.270625  -3.3e-05  0.990817  0.0
H  H26  1  0.29229882  0.93929601  0.63780041  1  0.13613  0.000356  0.110541  0.12093  0.000285  0.996748  0.0
H  H27  1  0.08802402  0.58541855  0.35563719  1  0.617939  -8.5e-05  0.327554  0.406851  -0.00011  0.875387  0.0
H  H28  1  0.14959335  0.43953980  0.71561635  1  0.397463  -1.9e-05  0.278465  0.27083  -3.4e-05  0.990278  0.0
H  H29  1  0.06056334  0.35276033  0.63786208  1  0.121436  0.000352  0.110722  0.121098  0.000285  0.9963  0.0
H  H30  1  0.49752621  0.58553519  0.14419307  1  0.627702  -8.3e-05  0.327067  0.406602  -0.000111  0.875937  0.0
H  H31  1  0.28978161  0.43966471  0.78439876  1  0.398133  -1.9e-05  0.278419  0.270755  -3.4e-05  0.990422  0.0
H  H32  1  0.29216394  0.35277593  0.86215805  1  0.117973  0.000355  0.110599  0.12099  0.000285  0.995995  0.0
H  H33  1  0.08764444  0.50217410  0.14422798  1  0.612346  -8.5e-05  0.326464  0.405414  -0.000111  0.87683  0.0
H  H34  1  0.14981432  0.70995731  0.78439814  1  0.399007  -1.9e-05  0.278338  0.270679  -3.3e-05  0.990688  0.0
H  H35  1  0.06070181  0.70771156  0.86219336  1  0.136129  0.000356  0.110594  0.12097  0.000285  0.996824  0.0
H  H36  1  0.41458943  0.91199069  0.14436278  1  0.617654  -8.5e-05  0.327549  0.406826  -0.00011  0.875454  0.0
H  H37  1  0.56046269  0.85040637  0.78440074  1  0.397522  -1.9e-05  0.278438  0.270793  -3.4e-05  0.990277  0.0
H  H38  1  0.64725161  0.93944304  0.86214377  1  0.121428  0.000352  0.110752  0.121176  0.000285  0.996409  0.0
H  H39  1  0.50256461  0.41438238  0.64388511  1  0.622466  -8.3e-05  0.326558  0.405944  -0.00011  0.876912  0.0
H  H40  1  0.71078718  0.56198711  0.28438642  1  0.432027  -1.9e-05  0.278437  0.270183  -3.3e-05  0.991022  0.0
H  H41  1  0.70830178  0.64852000  0.36200955  1  0.110224  0.000356  0.110977  0.120906  0.000282  0.996472  0.0
H  H42  1  0.91085489  0.49701158  0.64364317  1  0.615451  -8.4e-05  0.32723  0.406315  -0.000109  0.875904  0.0
H  H43  1  0.85129821  0.28872856  0.28437870  1  0.400669  -1.9e-05  0.278958  0.271097  -3.4e-05  0.99066  0.0
H  H44  1  0.94025574  0.29127723  0.36186177  1  0.131472  0.000357  0.11098  0.12113  0.000282  0.99601  0.0
H  H45  1  0.58581925  0.08869068  0.64375288  1  0.618164  -8.4e-05  0.327204  0.406457  -0.00011  0.875435  0.0
H  H46  1  0.43788584  0.14902519  0.28438527  1  0.408828  -1.9e-05  0.278648  0.270676  -3.4e-05  0.990844  0.0
H  H47  1  0.35150374  0.06014747  0.36188013  1  0.116281  0.000352  0.110824  0.120723  0.000281  0.996258  0.0
H  H48  1  0.41447319  0.50248026  0.14419770  1  0.627639  -8.3e-05  0.327101  0.406636  -0.000111  0.875753  0.0
H  H49  1  0.56033681  0.71022193  0.78439903  1  0.398073  -1.9e-05  0.278447  0.270763  -3.4e-05  0.990407  0.0
H  H50  1  0.64722364  0.70783894  0.86215494  1  0.118037  0.000355  0.110634  0.121047  0.000285  0.996024  0.0
H  H51  1  0.49783408  0.91236709  0.14422816  1  0.6126  -8.5e-05  0.326495  0.405407  -0.000111  0.876708  0.0
H  H52  1  0.29004488  0.85018175  0.78439806  1  0.398934  -1.9e-05  0.278278  0.270501  -3.3e-05  0.990868  0.0
H  H53  1  0.29229125  0.93930424  0.86219823  1  0.136328  0.000356  0.110584  0.120987  0.000285  0.996657  0.0
H  H54  1  0.08802781  0.58542267  0.14435922  1  0.618093  -8.5e-05  0.327589  0.406925  -0.00011  0.875362  0.0
H  H55  1  0.14959295  0.43953577  0.78440055  1  0.397561  -1.9e-05  0.278433  0.270771  -3.4e-05  0.990339  0.0
H  H56  1  0.06055926  0.35274787  0.86214201  1  0.121419  0.000352  0.110737  0.121163  0.000286  0.996424  0.0
H  H57  1  0.58561023  0.49743612  0.64388756  1  0.622742  -8.3e-05  0.326596  0.405988  -0.00011  0.876779  0.0
H  H58  1  0.43801724  0.28921701  0.28438532  1  0.431926  -1.9e-05  0.278432  0.270198  -3.3e-05  0.990977  0.0
H  H59  1  0.35148995  0.29169989  0.36200809  1  0.110371  0.000356  0.110972  0.120945  0.000282  0.996466  0.0
H  H60  1  0.50297960  0.08912736  0.64364256  1  0.615144  -8.4e-05  0.327209  0.406298  -0.000109  0.876055  0.0
H  H61  1  0.71124474  0.14865143  0.28437878  1  0.400934  -1.9e-05  0.278904  0.270953  -3.4e-05  0.990744  0.0
H  H62  1  0.70872241  0.05973694  0.36186815  1  0.124437  0.00036  0.110979  0.121141  0.000282  0.996057  0.0
H  H63  1  0.91128514  0.41416854  0.64374936  1  0.618175  -8.4e-05  0.327246  0.406531  -0.00011  0.875356  0.0
H  H64  1  0.85098494  0.56212950  0.28438463  1  0.40885  -1.9e-05  0.278697  0.270641  -3.4e-05  0.990683  0.0
H  H65  1  0.93985455  0.64850545  0.36187730  1  0.116278  0.000352  0.11085  0.120749  0.000281  0.996182  0.0
H  H66  1  0.50256452  0.41437886  0.85611866  1  0.622306  -8.3e-05  0.326509  0.405822  -0.00011  0.877208  0.0
H  H67  1  0.71078594  0.56199385  0.21560763  1  0.43192  -1.9e-05  0.278453  0.27011  -3.3e-05  0.99107  0.0
H  H68  1  0.70830598  0.64853878  0.13798997  1  0.110162  0.000356  0.110944  0.120907  0.000281  0.996404  0.0
H  H69  1  0.91084170  0.49700611  0.85635993  1  0.615637  -8.4e-05  0.32716  0.406281  -0.000109  0.876024  0.0
H  H70  1  0.85130058  0.28872525  0.21560991  1  0.400483  -1.9e-05  0.278873  0.270957  -3.4e-05  0.990799  0.0
H  H71  1  0.94025914  0.29127103  0.13813127  1  0.124782  0.00036  0.11094  0.121107  0.000282  0.996147  0.0
H  H72  1  0.58582211  0.08869817  0.85625303  1  0.618323  -8.4e-05  0.327194  0.406411  -0.00011  0.875472  0.0
H  H73  1  0.43787863  0.14902285  0.21560065  1  0.408628  -1.9e-05  0.278598  0.270669  -3.4e-05  0.991029  0.0
H  H74  1  0.35148447  0.06014031  0.13811839  1  0.116427  0.000352  0.110873  0.120767  0.000281  0.99626  0.0
H  H75  1  0.49752595  0.58553398  0.35580762  1  0.627628  -8.3e-05  0.327067  0.406598  -0.000111  0.875903  0.0
H  H76  1  0.28978207  0.43967190  0.71561497  1  0.398699  -1.9e-05  0.278456  0.270863  -3.4e-05  0.990389  0.0
H  H77  1  0.29217070  0.35279107  0.63785146  1  0.1174  0.000355  0.110648  0.120983  0.000285  0.996005  0.0
H  H78  1  0.08763566  0.50216746  0.35576588  1  0.612142  -8.5e-05  0.32651  0.40539  -0.000111  0.876729  0.0
H  H79  1  0.14981762  0.70995307  0.71560810  1  0.398928  -1.9e-05  0.278373  0.270707  -3.3e-05  0.990682  0.0
H  H80  1  0.06070846  0.70770426  0.63780471  1  0.136523  0.000356  0.110562  0.120968  0.000285  0.996694  0.0
H  H81  1  0.41458895  0.91198863  0.35563576  1  0.617776  -8.5e-05  0.327526  0.406852  -0.00011  0.875426  0.0
H  H82  1  0.56045679  0.85040596  0.71561612  1  0.397404  -1.9e-05  0.27852  0.270879  -3.4e-05  0.990208  0.0
H  H83  1  0.64723805  0.93943662  0.63786050  1  0.121229  0.000352  0.110753  0.121119  0.000285  0.996324  0.0
H  H84  1  0.12560504  0.98967690  0.25000788  1  0.093962  9e-06  0.127817  0.086237  6e-06  0.95903  0.0
H  H85  1  0.01101232  0.13617098  0.25000271  1  0.090065  9e-06  0.128335  0.086794  6e-06  0.95933  0.0
H  H86  1  0.86301322  0.87417328  0.25001094  1  0.09319  9e-06  0.128161  0.086741  6e-06  0.960823  0.0
H  H87  1  0.87261974  0.01005255  0.74999601  1  0.064822  1e-05  0.128382  0.08734  6e-06  0.956713  0.0
H  H88  1  0.99020424  0.86258285  0.74998952  1  0.067304  1e-05  0.128355  0.087628  6e-06  0.955976  0.0
H  H89  1  0.13711870  0.12725493  0.74999503  1  0.061207  1e-05  0.128449  0.087635  6e-06  0.955934  0.0
H  H90  1  0.98994950  0.12738052  0.74999594  1  0.067811  1e-05  0.128418  0.087362  6e-06  0.956717  0.0
H  H91  1  0.13742427  0.00980300  0.74998958  1  0.067342  1e-05  0.128304  0.087631  6e-06  0.955964  0.0
H  H92  1  0.87274292  0.86288082  0.74999504  1  0.061189  1e-05  0.128441  0.087608  6e-06  0.955944  0.0
H  H93  1  0.01031684  0.87440415  0.25000712  1  0.090197  9e-06  0.12778  0.086341  6e-06  0.95905  0.0
H  H94  1  0.86385398  0.98899764  0.25000265  1  0.08979  9e-06  0.128357  0.086629  6e-06  0.959554  0.0
H  H95  1  0.12583662  0.13698260  0.25001136  1  0.093609  9e-06  0.128156  0.086824  6e-06  0.960601  0.0
H  H96  1  0.48158476  0.24085171  0.00964292  1  0.132754  0.000702  0.118516  0.137333  0.0006  0.981766  0.0
H  H97  1  0.75929112  0.24070420  0.00983596  1  0.140802  0.000702  0.118766  0.138036  0.000599  0.981163  0.0
H  H98  1  0.75914568  0.51841651  0.00964485  1  0.132901  0.000702  0.118489  0.13728  0.0006  0.981829  0.0
H  H99  1  0.51763269  0.75885699  0.50924060  1  0.144469  0.00069  0.118577  0.13706  0.000598  0.981955  0.0
H  H100  1  0.24117922  0.75882038  0.50908630  1  0.130154  0.000701  0.118729  0.137102  0.000598  0.981892  0.0
H  H101  1  0.24114129  0.48236667  0.50923784  1  0.14408  0.00069  0.118584  0.137126  0.000598  0.981859  0.0
H  H102  1  0.24113193  0.48235795  0.99076727  1  0.144204  0.000689  0.118585  0.137075  0.000598  0.981837  0.0
H  H103  1  0.24116669  0.75882772  0.99091065  1  0.129538  0.000701  0.118696  0.137092  0.000598  0.981952  0.0
H  H104  1  0.51763998  0.75886492  0.99076503  1  0.144195  0.000689  0.118591  0.137113  0.000598  0.981838  0.0
H  H105  1  0.75914660  0.51840072  0.49035408  1  0.132483  0.000702  0.118521  0.137405  0.0006  0.981702  0.0
H  H106  1  0.75929312  0.24070561  0.49016446  1  0.140803  0.000701  0.118769  0.138056  0.000599  0.981163  0.0
H  H107  1  0.48160664  0.24085687  0.49035507  1  0.132422  0.000702  0.118508  0.137388  0.0006  0.981624  0.0
C  C108  1  0.44772695  0.35804177  0.04582628  1  1.539211  -0.001704  0.216439  0.584153  -0.0023  4.157947  -0.005
C  C109  1  0.42004023  0.27510540  0.07154402  1  -0.017455  0.017084  -0.014207  -0.024878  0.012007  3.976122  0.014
C  C110  1  0.37141251  0.25087380  0.11985912  1  0.001674  -5e-05  -0.071105  -0.117624  -0.000475  3.905813  0.0
C  C111  1  0.64213258  0.08967976  0.04604096  1  1.546117  -0.001657  0.216267  0.583732  -0.002304  4.157866  -0.005
C  C112  1  0.72515002  0.14487895  0.07171075  1  -0.000538  0.017076  -0.013772  -0.024421  0.01201  3.97567  0.014
C  C113  1  0.74949014  0.12047102  0.11996872  1  -0.030686  -4.8e-05  -0.071123  -0.118543  -0.00049  3.906397  0.0
C  C114  1  0.91011995  0.55218105  0.04598131  1  1.538699  -0.001728  0.216104  0.583932  -0.002309  4.157069  -0.005
C  C115  1  0.85484488  0.57993119  0.07162788  1  0.01754  0.017084  -0.014568  -0.025111  0.012005  3.97544  0.014
C  C116  1  0.87913581  0.62858108  0.11993503  1  -0.046399  -2.6e-05  -0.070834  -0.117271  -0.000481  3.906924  0.0
C  C117  1  0.55181678  0.64184322  0.54541049  1  1.554915  -0.001838  0.216106  0.584222  -0.002288  4.157104  -0.005
C  C118  1  0.57896776  0.72456332  0.57127528  1  -0.041296  0.01722  -0.014622  -0.02481  0.012012  3.975052  0.014
C  C119  1  0.62726917  0.74866348  0.61973736  1  -0.028592  -4.2e-05  -0.070367  -0.117673  -0.000499  3.90543  0.0
C  C120  1  0.35824429  0.91007458  0.54527829  1  1.531572  -0.001599  0.216245  0.584345  -0.002303  4.157232  -0.005
C  C121  1  0.27552661  0.85443160  0.57115604  1  0.016948  0.01701  -0.014583  -0.024769  0.012026  3.975195  0.014
C  C122  1  0.25144610  0.87855288  0.61966775  1  -0.06712  -1.7e-05  -0.07034  -0.118242  -0.000487  3.906237  0.0
C  C123  1  0.08984496  0.44808728  0.54536335  1  1.548622  -0.001775  0.215606  0.582982  -0.002296  4.157601  -0.005
C  C124  1  0.14545308  0.42098470  0.57126099  1  0.082269  0.017064  -0.014505  -0.0241  0.012017  3.973712  0.014
C  C125  1  0.12130276  0.37270317  0.61973019  1  -0.093242  -1e-06  -0.070516  -0.118187  -0.000497  3.905997  0.0
C  C126  1  0.35815073  0.44817823  0.95459511  1  1.554163  -0.001837  0.216114  0.584362  -0.002289  4.157012  -0.005
C  C127  1  0.27542633  0.42101661  0.92873413  1  -0.041188  0.017219  -0.014789  -0.02504  0.012013  3.975307  0.014
C  C128  1  0.25132793  0.37271555  0.88027328  1  -0.028987  -4.1e-05  -0.07028  -0.11778  -0.000498  3.905282  0.0
C  C129  1  0.08991584  0.64175830  0.95471662  1  1.531583  -0.001601  0.216153  0.584139  -0.002302  4.157036  -0.005
C  C130  1  0.14556007  0.72447477  0.92884098  1  0.016843  0.017009  -0.014502  -0.024629  0.012024  3.975566  0.014
C  C131  1  0.12143850  0.74855672  0.88033058  1  -0.067509  -1.6e-05  -0.070416  -0.118363  -0.000486  3.906417  0.0
C  C132  1  0.55191245  0.91015870  0.95463674  1  1.549556  -0.001778  0.215662  0.582922  -0.002295  4.157474  -0.005
C  C133  1  0.57902593  0.85455457  0.92874317  1  0.081381  0.01707  -0.014497  -0.024099  0.012018  3.973809  0.014
C  C134  1  0.62731187  0.87870797  0.88027644  1  -0.093225  -1e-06  -0.070592  -0.118384  -0.000497  3.905879  0.0
C  C135  1  0.64195725  0.55226777  0.45417340  1  1.539231  -0.001704  0.216407  0.5842  -0.0023  4.157904  -0.005
C  C136  1  0.72489158  0.57994997  0.42845518  1  -0.017933  0.017083  -0.014271  -0.025044  0.012006  3.97619  0.014
C  C137  1  0.74912079  0.62857583  0.38013844  1  0.002638  -4.9e-05  -0.0711  -0.117519  -0.000474  3.905678  0.0
C  C138  1  0.91031787  0.35786700  0.45395357  1  1.545834  -0.001654  0.216359  0.584014  -0.002305  4.157729  -0.005
C  C139  1  0.85511665  0.27485047  0.42828292  1  -0.000479  0.017077  -0.013877  -0.024618  0.01201  3.976044  0.014
C  C140  1  0.87951681  0.25051051  0.38002365  1  -0.037853  -4.5e-05  -0.071018  -0.118275  -0.000491  3.906444  0.0
C  C141  1  0.44783724  0.08988187  0.45402013  1  1.53972  -0.001733  0.216457  0.584361  -0.002309  4.156537  -0.005
C  C142  1  0.42010121  0.14516232  0.42836824  1  0.017315  0.017088  -0.01478  -0.025247  0.012005  3.975287  0.014
C  C143  1  0.37145306  0.12086860  0.38006363  1  -0.043337  -2.4e-05  -0.070741  -0.117229  -0.000481  3.906584  0.0
C  C144  1  0.55182203  0.64184902  0.95459375  1  1.554151  -0.001838  0.216193  0.584541  -0.00229  4.156932  -0.005
C  C145  1  0.57898264  0.72457248  0.92873188  1  -0.041428  0.017219  -0.014693  -0.02495  0.012013  3.975175  0.014
C  C146  1  0.62728121  0.74867029  0.88027057  1  -0.028859  -4.2e-05  -0.070283  -0.117755  -0.000499  3.905131  0.0
C  C147  1  0.35823720  0.91007982  0.95471939  1  1.531639  -0.001599  0.216304  0.584405  -0.002302  4.157026  -0.005
C  C148  1  0.27552207  0.85443870  0.92884299  1  0.017072  0.017009  -0.014545  -0.02467  0.012025  3.975402  0.014
C  C149  1  0.25143801  0.87855941  0.88033259  1  -0.06759  -1.6e-05  -0.0704  -0.118397  -0.000486  3.906373  0.0
C  C150  1  0.08983784  0.44808505  0.95463658  1  1.548991  -0.001774  0.215701  0.583141  -0.002297  4.157462  -0.005
C  C151  1  0.14544394  0.42097170  0.92874258  1  0.081923  0.017067  -0.014483  -0.024123  0.012019  3.973812  0.014
C  C152  1  0.12129255  0.37268711  0.88027589  1  -0.093221  -0.0  -0.070619  -0.118462  -0.000496  3.906034  0.0
C  C153  1  0.44773977  0.35804645  0.45417143  1  1.538988  -0.001703  0.216361  0.584226  -0.0023  4.15781  -0.005
C  C154  1  0.42005768  0.27511092  0.42845285  1  -0.017975  0.017083  -0.014161  -0.024848  0.012006  3.97592  0.014
C  C155  1  0.37143288  0.25088087  0.38013657  1  0.002984  -5e-05  -0.071123  -0.117628  -0.000474  3.905669  0.0
C  C156  1  0.64213540  0.08967941  0.45395706  1  1.546255  -0.001655  0.216266  0.583892  -0.002304  4.157684  -0.005
C  C157  1  0.72514905  0.14488032  0.42828425  1  -0.000456  0.017077  -0.013839  -0.024466  0.01201  3.975656  0.014
C  C158  1  0.74948807  0.12047798  0.38002455  1  -0.030841  -4.8e-05  -0.07104  -0.118323  -0.000491  3.906412  0.0
C  C159  1  0.91012151  0.55217014  0.45401779  1  1.539347  -0.001726  0.216284  0.584085  -0.002309  4.156848  -0.005
C  C160  1  0.85484125  0.57990944  0.42836717  1  0.018089  0.017082  -0.014618  -0.025064  0.012005  3.97501  0.014
C  C161  1  0.87913220  0.62855735  0.38006251  1  -0.043061  -2.6e-05  -0.070765  -0.117324  -0.000481  3.906456  0.0
C  C162  1  0.64195732  0.55227597  0.04582701  1  1.539215  -0.001703  0.216334  0.584102  -0.002299  4.158061  -0.005
C  C163  1  0.72489378  0.57996347  0.07154469  1  -0.017556  0.017084  -0.014247  -0.024857  0.012006  3.976095  0.014
C  C164  1  0.74912267  0.62859163  0.11985850  1  0.002088  -5e-05  -0.071114  -0.117693  -0.000475  3.905882  0.0
C  C165  1  0.91031652  0.35786696  0.04604456  1  1.546017  -0.001654  0.216374  0.583945  -0.002305  4.157581  -0.005
C  C166  1  0.85511676  0.27484887  0.07171318  1  -0.00089  0.017075  -0.013734  -0.024335  0.012009  3.975572  0.014
C  C167  1  0.87951818  0.25050533  0.11997114  1  -0.031343  -4.8e-05  -0.071055  -0.118472  -0.00049  3.906657  0.0
C  C168  1  0.44782310  0.08987958  0.04597740  1  1.538645  -0.001727  0.216094  0.583886  -0.002308  4.157113  -0.005
C  C169  1  0.42007391  0.14515376  0.07162604  1  0.017888  0.017083  -0.014639  -0.025153  0.012006  3.975295  0.014
C  C170  1  0.37142668  0.12086110  0.11993240  1  -0.042482  -2.6e-05  -0.070785  -0.117241  -0.000481  3.906514  0.0
C  C171  1  0.35815707  0.44818339  0.54540894  1  1.554894  -0.001838  0.216131  0.584326  -0.002288  4.156885  -0.005
C  C172  1  0.27543485  0.42103023  0.57127295  1  -0.041322  0.017219  -0.014664  -0.024861  0.012012  3.975079  0.014
C  C173  1  0.25133591  0.37273061  0.61973507  1  -0.028667  -4.2e-05  -0.070335  -0.117702  -0.000499  3.905265  0.0
C  C174  1  0.08992513  0.64175836  0.54528010  1  1.531503  -0.0016  0.216221  0.584244  -0.002304  4.15707  -0.005
C  C175  1  0.14556883  0.72447312  0.57115737  1  0.016851  0.017009  -0.014525  -0.024613  0.012025  3.975216  0.014
C  C176  1  0.12144896  0.74855319  0.61966949  1  -0.067586  -1.7e-05  -0.070368  -0.118318  -0.000487  3.906209  0.0
C  C177  1  0.55191175  0.91015372  0.54536351  1  1.548858  -0.001774  0.215626  0.582964  -0.002295  4.157558  -0.005
C  C178  1  0.57901452  0.85454516  0.57126075  1  0.082145  0.017065  -0.014451  -0.024063  0.012017  3.973802  0.014
C  C179  1  0.62729675  0.87869994  0.61972949  1  -0.093109  -2e-06  -0.070474  -0.118088  -0.000497  3.905701  0.0
C  C180  1  0.18095209  0.05105838  0.25000336  1  0.44635  0.00014  0.095387  0.106076  0.0001  3.790044  0.0
C  C181  1  0.94958301  0.13006805  0.25000104  1  0.499397  0.000138  0.093905  0.104479  0.0001  3.789519  0.0
C  C182  1  0.86922508  0.81892234  0.25000967  1  0.487751  0.000139  0.094035  0.103125  0.000101  3.793154  0.0
C  C183  1  0.81737836  0.94859440  0.74999761  1  0.525113  0.000138  0.093949  0.103826  0.000101  3.792555  0.0
C  C184  1  0.05163897  0.86874267  0.74999243  1  0.456955  0.000141  0.094424  0.103793  0.000101  3.793557  0.0
C  C185  1  0.13101413  0.18256292  0.74999755  1  0.475496  0.00014  0.094301  0.103471  0.000101  3.79273  0.0
C  C186  1  0.05140772  0.18262144  0.74999804  1  0.525454  0.000138  0.093839  0.103702  0.000101  3.79238  0.0
C  C187  1  0.13126509  0.94836822  0.74999239  1  0.527313  0.000139  0.094566  0.103866  0.000101  3.793548  0.0
C  C188  1  0.81743621  0.86898852  0.74999842  1  0.475557  0.00014  0.094243  0.10346  0.000101  3.792849  0.0
C  C189  1  0.94893770  0.81905623  0.25000293  1  0.446985  0.00014  0.095461  0.105983  0.0001  3.790167  0.0
C  C190  1  0.86994680  0.05042250  0.25000109  1  0.428761  0.00014  0.094051  0.104867  0.0001  3.78959  0.0
C  C191  1  0.18108596  0.13076793  0.25000881  1  0.487443  0.000139  0.094082  0.103107  0.000101  3.79325  0.0
C  C192  1  0.44402090  0.22209164  0.04730460  1  -0.046826  0.001377  -0.064719  -0.088478  0.000606  3.890487  0.001
C  C193  1  0.34761872  0.17398679  0.14423972  1  -0.030571  0.001934  -0.001568  0.040601  0.001171  3.954524  0.001
C  C194  1  0.29916083  0.14982703  0.19776885  1  0.588474  0.000457  0.170436  0.151042  0.000295  3.901211  0.0
C  C195  1  0.77813176  0.22186668  0.04745135  1  -0.03182  0.001358  -0.065705  -0.089954  0.000595  3.889781  0.001
C  C196  1  0.82643509  0.17356201  0.14427304  1  -0.044311  0.001941  -0.001488  0.042331  0.001173  3.954278  0.001
C  C197  1  0.85068449  0.14930710  0.19776586  1  0.575218  0.000458  0.170482  0.150876  0.000295  3.901418  0.0
C  C198  1  0.77790805  0.55598332  0.04730774  1  -0.046888  0.001376  -0.064647  -0.088382  0.000606  3.890581  0.001
C  C199  1  0.82601046  0.65238874  0.14424028  1  -0.025921  0.001933  -0.001578  0.040613  0.001171  3.954694  0.001
C  C200  1  0.85017012  0.70084658  0.19776896  1  0.588118  0.000457  0.170365  0.150925  0.000295  3.901357  0.0
C  C201  1  0.55506115  0.77758905  0.54697054  1  -0.04744  0.001362  -0.064848  -0.088783  0.00059  3.88995  0.001
C  C202  1  0.65087079  0.82547188  0.64417878  1  -0.030588  0.001942  -0.0022  0.040613  0.001177  3.954365  0.001
C  C203  1  0.69919900  0.84963544  0.69776991  1  0.56409  0.000459  0.170606  0.151735  0.000295  3.898855  0.0
C  C204  1  0.22249015  0.77750941  0.54683837  1  -0.013909  0.001358  -0.065229  -0.088704  0.000598  3.890375  0.001
C  C205  1  0.17468228  0.82531934  0.64414754  1  -0.00519  0.001929  -0.002083  0.041565  0.001179  3.952544  0.001
C  C206  1  0.15054318  0.84946267  0.69776623  1  0.566136  0.000461  0.17058  0.151916  0.000295  3.89847  0.0
C  C207  1  0.22240979  0.44493749  0.54696906  1  -0.04707  0.001362  -0.064783  -0.088805  0.00059  3.889797  0.001
C  C208  1  0.17452723  0.34912928  0.64417780  1  -0.030195  0.001941  -0.002157  0.040698  0.001177  3.95455  0.001
C  C209  1  0.15036850  0.30080028  0.69776980  1  0.56432  0.000459  0.170543  0.151876  0.000295  3.898362  0.0
C  C210  1  0.22240116  0.44492817  0.95303647  1  -0.047111  0.001362  -0.064675  -0.088532  0.000589  3.889482  0.001
C  C211  1  0.17452088  0.34911268  0.85582817  1  -0.030329  0.001942  -0.002094  0.041077  0.001177  3.954256  0.001
C  C212  1  0.15036429  0.30079248  0.80223451  1  0.564216  0.000459  0.17054  0.151239  0.000295  3.899493  0.0
C  C213  1  0.22247952  0.77751607  0.95315988  1  -0.013152  0.001356  -0.065109  -0.08858  0.000597  3.890653  0.001
C  C214  1  0.17467350  0.82532450  0.85585124  1  -0.005469  0.001929  -0.002236  0.041523  0.001179  3.952904  0.001
C  C215  1  0.15054006  0.84946775  0.80222928  1  0.566719  0.000461  0.170627  0.15178  0.000295  3.899047  0.0
C  C216  1  0.55507141  0.77759737  0.95303504  1  -0.047139  0.001362  -0.064802  -0.088753  0.000589  3.889666  0.001
C  C217  1  0.65088514  0.82547969  0.85582790  1  -0.030347  0.001941  -0.002116  0.040997  0.001177  3.954275  0.001
C  C218  1  0.69920623  0.84963661  0.80223504  1  0.564422  0.000459  0.170447  0.15109  0.000295  3.89964  0.0
C  C219  1  0.77790079  0.55596297  0.45268993  1  -0.04673  0.001376  -0.064698  -0.088567  0.000605  3.890375  0.001
C  C220  1  0.82600722  0.65236903  0.35575486  1  -0.030392  0.001934  -0.00153  0.040728  0.001172  3.954485  0.001
C  C221  1  0.85016977  0.70083706  0.30223243  1  0.588462  0.000457  0.170395  0.150946  0.000295  3.901169  0.0
C  C222  1  0.77813126  0.22186858  0.45254735  1  -0.03239  0.001357  -0.065649  -0.089933  0.000594  3.889795  0.001
C  C223  1  0.82642971  0.17356807  0.35571972  1  -0.044429  0.001941  -0.00153  0.042204  0.001173  3.953874  0.001
C  C224  1  0.85068283  0.14931178  0.30222850  1  0.575358  0.000458  0.17057  0.15101  0.000295  3.90153  0.0
C  C225  1  0.44404226  0.22210176  0.45268928  1  -0.046966  0.001376  -0.064676  -0.088558  0.000605  3.890286  0.001
C  C226  1  0.34763956  0.17399241  0.35575471  1  -0.029395  0.001934  -0.001444  0.040665  0.001172  3.954603  0.001
C  C227  1  0.29917229  0.14982934  0.30223357  1  0.587831  0.000457  0.170348  0.15105  0.000295  3.901178  0.0
C  C228  1  0.35377558  0.17708994  0.24999909  1  0.74307  5e-05  0.16509  0.298964  3.5e-05  3.928013  0.0
C  C229  1  0.82337093  0.17660879  0.24999575  1  0.607682  5e-05  0.164663  0.297124  3.6e-05  3.933121  0.0
C  C230  1  0.82291112  0.64623196  0.24999799  1  0.74351  5e-05  0.165011  0.298829  3.5e-05  3.928339  0.0
C  C231  1  0.64458116  0.82234105  0.75000439  1  0.660161  5e-05  0.164353  0.297647  3.6e-05  3.930697  0.0
C  C232  1  0.17785766  0.82214590  0.74999980  1  0.667311  5e-05  0.164677  0.297734  3.6e-05  3.928786  0.0
C  C233  1  0.17766248  0.35541838  0.75000465  1  0.660344  5e-05  0.164311  0.297461  3.6e-05  3.930968  0.0
N  N234  1  0.22505849  0.06890123  0.19439229  1  -0.607924  0.000116  -0.217295  -0.186743  6e-05  2.686188  0.0
N  N235  1  0.93167301  0.15626952  0.19437544  1  -0.579368  0.000116  -0.217526  -0.18689  6e-05  2.685675  0.0
N  N236  1  0.84307870  0.77480254  0.19438989  1  -0.595068  0.000116  -0.217981  -0.186689  6e-05  2.687041  0.0
N  N237  1  0.77322174  0.93063978  0.69439577  1  -0.591555  0.000115  -0.217173  -0.186455  5.9e-05  2.687081  0.0
N  N238  1  0.06955332  0.84252309  0.69440219  1  -0.620651  0.000115  -0.217674  -0.187237  5.9e-05  2.687586  0.0
N  N239  1  0.15726762  0.22672084  0.69439608  1  -0.605743  0.000115  -0.2177  -0.187282  5.9e-05  2.686874  0.0
N  N240  1  0.06935923  0.22676832  0.80560367  1  -0.59156  0.000115  -0.217067  -0.186186  5.9e-05  2.686956  0.0
N  N241  1  0.15747945  0.93045686  0.80558674  1  -0.580916  0.000115  -0.217784  -0.187356  5.9e-05  2.687608  0.0
N  N242  1  0.77328572  0.84273945  0.80560199  1  -0.605779  0.000115  -0.21769  -0.187193  5.9e-05  2.687186  0.0
N  N243  1  0.93109351  0.77493931  0.30561481  1  -0.607899  0.000116  -0.217262  -0.186795  6e-05  2.686098  0.0
N  N244  1  0.84373500  0.06832788  0.30562341  1  -0.616691  0.000116  -0.21747  -0.186855  6e-05  2.685626  0.0
N  N245  1  0.22521588  0.15692028  0.30562065  1  -0.595554  0.000116  -0.218145  -0.186971  6e-05  2.687228  0.0
N  N246  1  0.77323049  0.93064372  0.80560327  1  -0.591286  0.000115  -0.21707  -0.1862  5.9e-05  2.687043  0.0
N  N247  1  0.06954764  0.84252749  0.80558720  1  -0.620461  0.000115  -0.217735  -0.187231  5.9e-05  2.687423  0.0
N  N248  1  0.15726317  0.22671219  0.80560192  1  -0.605683  0.000115  -0.217696  -0.187156  5.9e-05  2.687127  0.0
N  N249  1  0.22507017  0.06890438  0.30561479  1  -0.608088  0.000116  -0.217182  -0.186732  6e-05  2.685873  0.0
N  N250  1  0.93167143  0.15627304  0.30562294  1  -0.579675  0.000116  -0.217551  -0.186957  6e-05  2.685783  0.0
N  N251  1  0.84307641  0.77479173  0.30562072  1  -0.595628  0.000116  -0.218071  -0.186797  6e-05  2.687224  0.0
N  N252  1  0.93109272  0.77494890  0.19439189  1  -0.607816  0.000116  -0.21728  -0.186729  6e-05  2.686605  0.0
N  N253  1  0.84373774  0.06832427  0.19437508  1  -0.617208  0.000116  -0.21748  -0.186873  6e-05  2.685569  0.0
N  N254  1  0.22520473  0.15691767  0.19439065  1  -0.595226  0.000116  -0.218119  -0.186903  6e-05  2.687156  0.0
N  N255  1  0.06936284  0.22677674  0.69439574  1  -0.591505  0.000115  -0.217176  -0.186499  5.9e-05  2.686865  0.0
N  N256  1  0.15748527  0.93045447  0.69440214  1  -0.580795  0.000115  -0.217721  -0.187243  5.9e-05  2.687417  0.0
N  N257  1  0.77327728  0.84273520  0.69439574  1  -0.605538  0.000115  -0.217788  -0.187333  5.9e-05  2.686995  0.0
N  N258  1  0.40083875  0.26813072  0.24999782  1  -1.227824  -2.9e-05  -0.635399  -0.687674  -4.7e-05  3.177523  0.0
N  N259  1  0.73234951  0.13257906  0.24999624  1  -1.083894  -2.9e-05  -0.636351  -0.68915  -4.8e-05  3.178916  0.0
N  N260  1  0.86701420  0.59929629  0.24999419  1  -1.165452  -2.9e-05  -0.635798  -0.689035  -4.8e-05  3.177072  0.0
N  N261  1  0.59750639  0.73130543  0.75000565  1  -1.106229  -2.8e-05  -0.63528  -0.688972  -4.7e-05  3.176956  0.0
N  N262  1  0.26889843  0.86619065  0.75000140  1  -1.113032  -2.8e-05  -0.634882  -0.688384  -4.7e-05  3.177726  0.0
N  N263  1  0.13357273  0.40237296  0.75000762  1  -1.102562  -2.8e-05  -0.635166  -0.688946  -4.7e-05  3.177358  0.0
N  N264  1  0.26869679  0.40249439  0.75000542  1  -1.106321  -2.8e-05  -0.635255  -0.688943  -4.7e-05  3.17714  0.0
N  N265  1  0.13380828  0.73110538  0.75000148  1  -1.113094  -2.8e-05  -0.634974  -0.688682  -4.7e-05  3.177477  0.0
N  N266  1  0.59762429  0.86642789  0.75000736  1  -1.102377  -2.8e-05  -0.635198  -0.688988  -4.7e-05  3.177191  0.0
N  N267  1  0.73187037  0.59916563  0.24999847  1  -1.227912  -2.9e-05  -0.635519  -0.687759  -4.7e-05  3.177487  0.0
N  N268  1  0.86738091  0.26763286  0.24999575  1  -1.08279  -2.9e-05  -0.636416  -0.689416  -4.8e-05  3.178783  0.0
N  N269  1  0.40071770  0.13299207  0.24999445  1  -1.165373  -2.9e-05  -0.635742  -0.689184  -4.8e-05  3.177247  0.0
O  O270  1  0.47980499  0.36988158  0.99736485  1  -1.092352  0.099479  -0.308588  -0.507405  0.06277  2.326647  0.091
O  O271  1  0.43815440  0.41063598  0.07436997  1  -1.116449  0.094492  -0.322732  -0.546476  0.059816  2.334588  0.086
O  O272  1  0.63023108  0.11000189  0.99762664  1  -1.093188  0.09939  -0.308805  -0.507684  0.062751  2.327315  0.09
O  O273  1  0.58951912  0.02749605  0.07456465  1  -1.124248  0.094488  -0.322486  -0.545945  0.059838  2.332995  0.086
O  O274  1  0.88993465  0.52014071  0.99750575  1  -1.092979  0.099501  -0.308871  -0.507726  0.062831  2.3271  0.091
O  O275  1  0.97223021  0.56165709  0.07454991  1  -1.114148  0.094346  -0.322251  -0.546099  0.0597  2.333073  0.086
O  O276  1  0.51996982  0.63010793  0.49688301  1  -1.093818  0.099587  -0.308868  -0.507984  0.062853  2.326951  0.091
O  O277  1  0.56162898  0.58934546  0.57388373  1  -1.113734  0.094639  -0.322222  -0.545739  0.059957  2.334443  0.086
O  O278  1  0.36994312  0.89002110  0.49671452  1  -1.095753  0.099775  -0.308876  -0.507899  0.062993  2.325962  0.091
O  O279  1  0.41075325  0.97237342  0.57375485  1  -1.119122  0.094597  -0.321897  -0.545647  0.059982  2.33364  0.086
O  O280  1  0.11000653  0.47997674  0.49684208  1  -1.097383  0.099605  -0.308535  -0.507221  0.062874  2.326727  0.091
O  O281  1  0.02746721  0.43819870  0.57378501  1  -1.112624  0.094724  -0.321515  -0.54483  0.060017  2.334325  0.086
O  O282  1  0.36988926  0.48002600  0.00312275  1  -1.093412  0.099591  -0.308826  -0.508004  0.062857  2.326817  0.091
O  O283  1  0.41064934  0.43837366  0.92611763  1  -1.113372  0.094623  -0.322206  -0.545761  0.05995  2.334518  0.086
O  O284  1  0.10997098  0.63005745  0.00327674  1  -1.095468  0.099762  -0.308901  -0.507858  0.062984  2.32611  0.091
O  O285  1  0.02761732  0.58924580  0.92623965  1  -1.119027  0.094604  -0.321839  -0.545525  0.059985  2.333306  0.086
O  O286  1  0.52002070  0.88999916  0.00315482  1  -1.09749  0.099585  -0.308539  -0.507158  0.062859  2.326803  0.091
O  O287  1  0.56180203  0.97253556  0.92621098  1  -1.11278  0.094736  -0.321552  -0.54483  0.060025  2.334056  0.086
O  O288  1  0.63011739  0.52019217  0.50263426  1  -1.092408  0.099474  -0.308641  -0.507433  0.062766  2.32669  0.091
O  O289  1  0.58936603  0.56184817  0.42563062  1  -1.116384  0.094497  -0.322652  -0.546426  0.05982  2.334554  0.086
O  O290  1  0.89000061  0.36976719  0.50236864  1  -1.093154  0.099386  -0.308785  -0.507734  0.06275  2.327427  0.09
O  O291  1  0.97250575  0.41047841  0.42543154  1  -1.123903  0.094486  -0.32256  -0.54612  0.059839  2.332945  0.086
O  O292  1  0.47987155  0.11006057  0.50249555  1  -1.092887  0.099493  -0.309033  -0.507952  0.062826  2.327016  0.091
O  O293  1  0.43835590  0.02776929  0.42545022  1  -1.114258  0.094341  -0.322413  -0.546331  0.059697  2.333077  0.086
O  O294  1  0.51996906  0.63010961  0.00312100  1  -1.093415  0.099594  -0.308913  -0.508133  0.062859  2.326862  0.091
O  O295  1  0.56163139  0.58935207  0.92611880  1  -1.113365  0.094628  -0.322233  -0.54584  0.059953  2.334563  0.086
O  O296  1  0.36993957  0.89002557  0.00327951  1  -1.095516  0.099767  -0.308969  -0.507995  0.062988  2.325949  0.091
O  O297  1  0.41075021  0.97237581  0.92624152  1  -1.119113  0.094603  -0.321912  -0.545682  0.059984  2.333463  0.086
O  O298  1  0.10999493  0.47997315  0.00315547  1  -1.097438  0.099592  -0.308614  -0.507274  0.062863  2.326836  0.091
O  O299  1  0.02745825  0.43819518  0.92621086  1  -1.112887  0.09474  -0.321516  -0.544906  0.060028  2.334143  0.086
O  O300  1  0.47981002  0.36988284  0.50263351  1  -1.092213  0.099468  -0.308556  -0.507394  0.062763  2.326609  0.091
O  O301  1  0.43815861  0.41063756  0.42562863  1  -1.116516  0.094498  -0.322688  -0.546491  0.059821  2.33449  0.086
O  O302  1  0.63023229  0.10999623  0.50237211  1  -1.09326  0.099383  -0.308786  -0.507764  0.062747  2.32726  0.09
O  O303  1  0.58952575  0.02749199  0.42543342  1  -1.124286  0.094494  -0.32251  -0.546046  0.059843  2.333023  0.086
O  O304  1  0.88994142  0.52013379  0.50249324  1  -1.093313  0.099494  -0.308884  -0.507728  0.062827  2.327157  0.091
O  O305  1  0.97223492  0.56165173  0.42544908  1  -1.114291  0.094342  -0.322411  -0.546285  0.059698  2.333061  0.086
O  O306  1  0.63011643  0.52019435  0.99736560  1  -1.092287  0.099487  -0.30856  -0.50743  0.062774  2.326672  0.091
O  O307  1  0.58936465  0.56185128  0.07436863  1  -1.116527  0.094487  -0.32264  -0.546402  0.059812  2.334616  0.086
O  O308  1  0.88999341  0.36976810  0.99762983  1  -1.093273  0.099389  -0.308813  -0.507758  0.062753  2.327261  0.09
O  O309  1  0.97250113  0.41048262  0.07456611  1  -1.124032  0.094487  -0.322571  -0.546018  0.059839  2.333049  0.086
O  O310  1  0.47986226  0.11006249  0.99750348  1  -1.093072  0.099489  -0.308839  -0.507679  0.062823  2.327092  0.091
O  O311  1  0.43834474  0.02776821  0.07454813  1  -1.114163  0.094353  -0.322301  -0.546166  0.059705  2.333104  0.086
O  O312  1  0.36989200  0.48002879  0.49687934  1  -1.093855  0.099598  -0.308909  -0.508083  0.06286  2.326725  0.091
O  O313  1  0.41065508  0.43837395  0.57388256  1  -1.11365  0.094626  -0.322218  -0.545756  0.05995  2.334576  0.086
O  O314  1  0.10998083  0.63005742  0.49671633  1  -1.09566  0.099783  -0.30888  -0.507893  0.062998  2.325722  0.091
O  O315  1  0.02762729  0.58924723  0.57375590  1  -1.119128  0.094599  -0.321923  -0.545636  0.059983  2.333593  0.086
O  O316  1  0.52002094  0.88999263  0.49684269  1  -1.097553  0.0996  -0.308614  -0.507283  0.062871  2.326763  0.091
O  O317  1  0.56180093  0.97253087  0.57378555  1  -1.112492  0.094721  -0.321471  -0.544776  0.060016  2.334357  0.086
O  O318  1  0.55722024  0.44277920  0.87342068  1  -1.194893  -0.00185  -0.566551  -0.722162  -0.001431  1.952277  0.0
O  O319  1  0.55755887  0.11495277  0.87375507  1  -1.183308  -0.001844  -0.567466  -0.723093  -0.001431  1.950882  0.0
O  O320  1  0.88503104  0.44243629  0.87376155  1  -1.183699  -0.001844  -0.567457  -0.723141  -0.001431  1.950934  0.0
O  O321  1  0.44282024  0.55718355  0.37304557  1  -1.204475  -0.00185  -0.567614  -0.723387  -0.001431  1.950987  0.0
O  O322  1  0.44305278  0.88576969  0.37290197  1  -1.179154  -0.001845  -0.567817  -0.722503  -0.00143  1.950906  0.0
O  O323  1  0.11423636  0.55694935  0.37290465  1  -1.179148  -0.001845  -0.567814  -0.722446  -0.00143  1.950932  0.0
O  O324  1  0.44282095  0.55718331  0.12695519  1  -1.204393  -0.001849  -0.567622  -0.723442  -0.001431  1.951008  0.0
O  O325  1  0.11423781  0.55695481  0.12708711  1  -1.17943  -0.001844  -0.56778  -0.72252  -0.00143  1.951081  0.0
O  O326  1  0.44304993  0.88577085  0.12709318  1  -1.179155  -0.001844  -0.567772  -0.722424  -0.00143  1.950984  0.0
O  O327  1  0.55721985  0.44278220  0.62658217  1  -1.195499  -0.001851  -0.566707  -0.722481  -0.001431  1.951715  0.0
O  O328  1  0.88504267  0.44244015  0.62624280  1  -1.183549  -0.001846  -0.567526  -0.723281  -0.001431  1.950781  0.0
O  O329  1  0.55755485  0.11494221  0.62624923  1  -1.183216  -0.001846  -0.56745  -0.72318  -0.001431  1.950938  0.0
