# generated using pymatgen
data_CdH16C16(NO5)2
_symmetry_space_group_name_H-M   'P 1'
_cell_length_a   7.41748823
_cell_length_b   7.43445432
_cell_length_c   17.55952111
_cell_angle_alpha   90.00019028
_cell_angle_beta   89.99997543
_cell_angle_gamma   118.17814336
_symmetry_Int_Tables_number   1
_chemical_formula_structural   CdH16C16(NO5)2
_chemical_formula_sum   'Cd2 H32 C32 N4 O20'
_cell_volume   853.55771746
_cell_formula_units_Z   2
loop_
 _symmetry_equiv_pos_site_id
 _symmetry_equiv_pos_as_xyz
  1  'x, y, z'
loop_
 _atom_site_type_symbol
 _atom_site_label
 _atom_site_symmetry_multiplicity
 _atom_site_fract_x
 _atom_site_fract_y
 _atom_site_fract_z
 _atom_site_occupancy
 _atom_site_hle17_bader_spin_density
 _atom_site_hle17_ddec_charge
 _atom_site_hle17_ddec_spin_density
 _atom_site_hle17_ddec_sum_bond_order
 _atom_site_hle17_magmom
 _atom_site_hse06_10hf_bader_spin_density
 _atom_site_hse06_10hf_ddec_charge
 _atom_site_hse06_10hf_ddec_spin_density
 _atom_site_hse06_10hf_ddec_sum_bond_order
 _atom_site_hse06_10hf_magmom
 _atom_site_hse06_bader_spin_density
 _atom_site_hse06_ddec_charge
 _atom_site_hse06_ddec_spin_density
 _atom_site_hse06_ddec_sum_bond_order
 _atom_site_hse06_magmom
 _atom_site_pbe_bader_spin_density
 _atom_site_pbe_cm5_charge
 _atom_site_pbe_ddec_charge
 _atom_site_pbe_ddec_spin_density
 _atom_site_pbe_ddec_sum_bond_order
 _atom_site_pbe_magmom
Cd  Cd0  1  0.99999776  0.49999795  0.49999966  1  0  1.27678  0  1.564391  0  0  1.114117  0  2.012074  0  0  1.171306  0  1.949153  0  0  0.765686  1.072872  0  2.055718  0
Cd  Cd1  1  0.49999964  0.49999997  0.00000031  1  0  1.276788  0  1.564362  0  0  1.114135  0  2.012043  0  0  1.171327  0  1.949119  0  0  0.76568  1.072889  0  2.05569  0
H  H2  1  0.91461223  0.41594525  0.16683221  1  0  0.131368  0  0.922522  0  0  0.134347  0  0.991427  0  0  0.138921  0  0.986282  0  0  0.138601  0.130967  0  0.995164  0
H  H3  1  0.58538924  0.58405882  0.66683176  1  0  0.13136  0  0.922546  0  0  0.13434  0  0.991453  0  0  0.13892  0  0.986293  0  0  0.1386  0.130962  0  0.995183  0
H  H4  1  0.08538876  0.58405939  0.83316664  1  0  0.131363  0  0.922553  0  0  0.134361  0  0.991446  0  0  0.138941  0  0.986287  0  0  0.138606  0.130981  0  0.995184  0
H  H5  1  0.41461302  0.41594278  0.33316709  1  0  0.13137  0  0.922536  0  0  0.134357  0  0.991442  0  0  0.138938  0  0.98628  0  0  0.138606  0.130978  0  0.995176  0
H  H6  1  0.83726818  0.84665786  0.10084268  1  0  0.112341  0  0.972289  0  0  0.116158  0  1.040718  0  0  0.119878  0  1.036679  0  0  0.132761  0.113312  0  1.043827  0
H  H7  1  0.66273172  0.15334560  0.60084274  1  0  0.112283  0  0.972277  0  0  0.116114  0  1.040697  0  0  0.119824  0  1.036656  0  0  0.132752  0.113268  0  1.043805  0
H  H8  1  0.16273201  0.15334221  0.89915844  1  0  0.112285  0  0.972304  0  0  0.116107  0  1.040741  0  0  0.119826  0  1.036702  0  0  0.132754  0.11326  0  1.04385  0
H  H9  1  0.33726298  0.84665141  0.39915781  1  0  0.112346  0  0.972159  0  0  0.116182  0  1.040558  0  0  0.119903  0  1.03652  0  0  0.132806  0.113336  0  1.043668  0
H  H10  1  0.89992038  0.76466960  0.23437530  1  0  0.138397  0  0.953343  0  0  0.14564  0  1.011182  0  0  0.150197  0  1.008931  0  0  0.117904  0.142313  0  1.013076  0
H  H11  1  0.60008204  0.23533664  0.73437606  1  0  0.138343  0  0.95334  0  0  0.145655  0  1.011119  0  0  0.150187  0  1.008903  0  0  0.117893  0.142321  0  1.013014  0
H  H12  1  0.10008332  0.23533506  0.76562525  1  0  0.138417  0  0.95331  0  0  0.145685  0  1.011122  0  0  0.150243  0  1.008872  0  0  0.117914  0.142352  0  1.013016  0
H  H13  1  0.39991401  0.76466037  0.26562449  1  0  0.138367  0  0.953311  0  0  0.145645  0  1.01113  0  0  0.150195  0  1.008888  0  0  0.1179  0.14231  0  1.013028  0
H  H14  1  0.95698163  0.02022693  0.33800402  1  0  0.11828  0  0.93471  0  0  0.127268  0  0.995632  0  0  0.130995  0  0.991859  0  0  0.11739  0.124351  0  0.998589  0
H  H15  1  0.54302097  0.97977419  0.83800300  1  0  0.118267  0  0.934753  0  0  0.127247  0  0.995675  0  0  0.130983  0  0.991891  0  0  0.117386  0.124335  0  0.998625  0
H  H16  1  0.04301999  0.97977619  0.66199597  1  0  0.118271  0  0.934723  0  0  0.127257  0  0.995639  0  0  0.130985  0  0.991865  0  0  0.117379  0.12434  0  0.998597  0
H  H17  1  0.45697841  0.02022131  0.16199642  1  0  0.118285  0  0.934772  0  0  0.127271  0  0.995684  0  0  0.130997  0  0.991911  0  0  0.117388  0.124339  0  0.998659  0
H  H18  1  0.74687213  0.26567947  0.06059517  1  0  0.13187  0  0.955522  0  0  0.139726  0  1.024282  0  0  0.14279  0  1.022079  0  0  0.123728  0.137491  0  1.025947  0
H  H19  1  0.75312412  0.73431902  0.56059490  1  0  0.131887  0  0.955525  0  0  0.139746  0  1.024283  0  0  0.142809  0  1.022081  0  0  0.123761  0.137505  0  1.025957  0
H  H20  1  0.25312663  0.73431755  0.93940596  1  0  0.131889  0  0.955446  0  0  0.139741  0  1.024225  0  0  0.142804  0  1.022023  0  0  0.123733  0.137498  0  1.025899  0
H  H21  1  0.24687607  0.26568105  0.43940509  1  0  0.131876  0  0.955527  0  0  0.139726  0  1.024284  0  0  0.14279  0  1.022082  0  0  0.12376  0.137485  0  1.025958  0
H  H22  1  0.69953564  0.01704210  0.03307033  1  0  0.139958  0  0.92482  0  0  0.153926  0  0.980593  0  0  0.156656  0  0.978631  0  0  0.126511  0.151907  0  0.98216  0
H  H23  1  0.80046465  0.98295920  0.53306926  1  0  0.139931  0  0.924822  0  0  0.153906  0  0.980596  0  0  0.156635  0  0.978634  0  0  0.126495  0.151887  0  0.982162  0
H  H24  1  0.30046320  0.98295797  0.96693080  1  0  0.139919  0  0.924801  0  0  0.153904  0  0.980565  0  0  0.156635  0  0.978603  0  0  0.126509  0.151885  0  0.982133  0
H  H25  1  0.19953419  0.01704087  0.46693015  1  0  0.139912  0  0.924829  0  0  0.153877  0  0.980609  0  0  0.156607  0  0.978649  0  0  0.126509  0.151859  0  0.982175  0
H  H26  1  0.22416122  0.30019579  0.56809370  1  0  0.412275  0  0.898961  0  0  0.381786  0  0.962678  0  0  0.393636  0  0.945853  0  0  0.278137  0.373417  0  0.974501  0
H  H27  1  0.27584236  0.69980390  0.06809572  1  0  0.412323  0  0.898866  0  0  0.381827  0  0.9626  0  0  0.393677  0  0.945775  0  0  0.278145  0.373458  0  0.974424  0
H  H28  1  0.77584104  0.69980581  0.43190628  1  0  0.412289  0  0.898914  0  0  0.381789  0  0.962654  0  0  0.393638  0  0.94583  0  0  0.278122  0.373419  0  0.974478  0
H  H29  1  0.72415847  0.30019465  0.93190597  1  0  0.412284  0  0.898921  0  0  0.381788  0  0.962657  0  0  0.393638  0  0.945831  0  0  0.278124  0.373417  0  0.974482  0
H  H30  1  0.07527614  0.34181680  0.62346997  1  0  0.401411  0  0.920592  0  0  0.368535  0  0.988991  0  0  0.380618  0  0.971751  0  0  0.275794  0.360059  0  1.001033  0
H  H31  1  0.42472690  0.65818188  0.12347077  1  0  0.401373  0  0.92067  0  0  0.368493  0  0.989071  0  0  0.380577  0  0.97183  0  0  0.275782  0.360017  0  1.001112  0
H  H32  1  0.92472612  0.65818480  0.37653058  1  0  0.401434  0  0.920562  0  0  0.368563  0  0.988952  0  0  0.380648  0  0.971708  0  0  0.27581  0.360087  0  1.000993  0
H  H33  1  0.57527464  0.34181819  0.87653036  1  0  0.401362  0  0.920661  0  0  0.368481  0  0.98906  0  0  0.380566  0  0.971818  0  0  0.275766  0.360005  0  1.001102  0
C  C34  1  0.97952430  0.39696413  0.32050267  1  0  0.660064  0  3.922201  0  0  0.606352  0  4.220758  0  0  0.641942  0  4.213288  0  0  0.212331  0.582377  0  4.224894  0
C  C35  1  0.52047563  0.60303986  0.82050169  1  0  0.660165  0  3.922264  0  0  0.606456  0  4.220764  0  0  0.642046  0  4.213294  0  0  0.212355  0.58248  0  4.224901  0
C  C36  1  0.02047525  0.60303746  0.67949732  1  0  0.660073  0  3.922215  0  0  0.606352  0  4.220775  0  0  0.64194  0  4.213308  0  0  0.212309  0.582377  0  4.22491  0
C  C37  1  0.47952385  0.39695869  0.17949830  1  0  0.660009  0  3.922384  0  0  0.60631  0  4.220904  0  0  0.6419  0  4.213436  0  0  0.212313  0.582337  0  4.225039  0
C  C38  1  0.94781861  0.24007551  0.26023953  1  0  -0.099321  0  3.737844  0  0  -0.076702  0  3.982957  0  0  -0.090026  0  4.005595  0  0  -0.00378  -0.068624  0  3.968293  0
C  C39  1  0.55218039  0.75992639  0.76024047  1  0  -0.099529  0  3.737997  0  0  -0.076822  0  3.982992  0  0  -0.090147  0  4.005631  0  0  -0.003799  -0.068747  0  3.968329  0
C  C40  1  0.05218373  0.75992914  0.73976046  1  0  -0.099365  0  3.737905  0  0  -0.076719  0  3.983022  0  0  -0.090041  0  4.005656  0  0  -0.003776  -0.068642  0  3.968357  0
C  C41  1  0.44781764  0.24006910  0.23975952  1  0  -0.099361  0  3.737911  0  0  -0.076712  0  3.98299  0  0  -0.090039  0  4.005632  0  0  -0.003769  -0.068635  0  3.96832  0
C  C42  1  0.91404018  0.27582123  0.18533205  1  0  0.094665  0  3.536104  0  0  0.042172  0  3.787368  0  0  0.053061  0  3.799654  0  0  0.078129  0.035174  0  3.779357  0
C  C43  1  0.58595722  0.72417996  0.68533179  1  0  0.094776  0  3.536005  0  0  0.042254  0  3.787236  0  0  0.053142  0  3.799528  0  0  0.07815  0.035258  0  3.779223  0
C  C44  1  0.08595596  0.72417883  0.81466851  1  0  0.094731  0  3.536007  0  0  0.042181  0  3.787306  0  0  0.05307  0  3.799594  0  0  0.078113  0.035184  0  3.779293  0
C  C45  1  0.41404504  0.27582164  0.31466819  1  0  0.094775  0  3.535921  0  0  0.042243  0  3.7872  0  0  0.053133  0  3.799488  0  0  0.078155  0.035246  0  3.779188  0
C  C46  1  0.86996433  0.95218786  0.14805418  1  0  0.120262  0  3.536237  0  0  0.075393  0  3.787223  0  0  0.086275  0  3.799428  0  0  0.076104  0.068228  0  3.779348  0
C  C47  1  0.63003986  0.04781909  0.64805296  1  0  0.120291  0  3.536102  0  0  0.075402  0  3.787157  0  0  0.086304  0  3.799334  0  0  0.076077  0.068237  0  3.779278  0
C  C48  1  0.13003865  0.04781526  0.85194638  1  0  0.120419  0  3.536161  0  0  0.075511  0  3.787197  0  0  0.086391  0  3.799409  0  0  0.076097  0.068347  0  3.779317  0
C  C49  1  0.36995421  0.95217943  0.35194589  1  0  0.120356  0  3.535999  0  0  0.075436  0  3.787085  0  0  0.086316  0  3.79929  0  0  0.076042  0.068272  0  3.779207  0
C  C50  1  0.90416758  0.91000913  0.22181356  1  0  -0.094885  0  3.676241  0  0  -0.108136  0  3.935214  0  0  -0.116975  0  3.954074  0  0  -0.067544  -0.102743  0  3.922894  0
C  C51  1  0.59583264  0.08999241  0.72181297  1  0  -0.094787  0  3.676087  0  0  -0.108128  0  3.935086  0  0  -0.11695  0  3.953957  0  0  -0.067519  -0.102728  0  3.922758  0
C  C52  1  0.09582991  0.08999093  0.77818756  1  0  -0.094906  0  3.676147  0  0  -0.108178  0  3.935127  0  0  -0.117017  0  3.953982  0  0  -0.067535  -0.10278  0  3.922807  0
C  C53  1  0.40416548  0.91000613  0.27818758  1  0  -0.094803  0  3.67613  0  0  -0.108094  0  3.935116  0  0  -0.116929  0  3.953981  0  0  -0.067528  -0.102697  0  3.922796  0
C  C54  1  0.93927055  0.05321272  0.27881450  1  0  0.007204  0  3.646856  0  0  -0.028563  0  3.901659  0  0  -0.020276  0  3.916555  0  0  -0.048034  -0.033589  0  3.891721  0
C  C55  1  0.56073338  0.94679394  0.77881457  1  0  0.007281  0  3.6469  0  0  -0.028491  0  3.901686  0  0  -0.020213  0  3.916576  0  0  -0.048001  -0.033519  0  3.891741  0
C  C56  1  0.06073243  0.94679040  0.72118548  1  0  0.007196  0  3.64693  0  0  -0.028563  0  3.901719  0  0  -0.020278  0  3.91662  0  0  -0.048019  -0.033589  0  3.891777  0
C  C57  1  0.43926880  0.05320462  0.22118541  1  0  0.00713  0  3.646997  0  0  -0.028634  0  3.901791  0  0  -0.020343  0  3.916683  0  0  -0.048035  -0.033646  0  3.891852  0
C  C58  1  0.81621529  0.16511034  0.05465301  1  0  -0.205753  0  3.578069  0  0  -0.266734  0  3.823253  0  0  -0.268605  0  3.829078  0  0  -0.062428  -0.265325  0  3.819468  0
C  C59  1  0.68378373  0.83489115  0.55465233  1  0  -0.205678  0  3.577988  0  0  -0.266671  0  3.82318  0  0  -0.268541  0  3.829007  0  0  -0.062444  -0.265262  0  3.819404  0
C  C60  1  0.18378283  0.83488820  0.94534697  1  0  -0.205644  0  3.577951  0  0  -0.266637  0  3.823128  0  0  -0.268508  0  3.828955  0  0  -0.062426  -0.265223  0  3.819347  0
C  C61  1  0.31621440  0.16510738  0.44534652  1  0  -0.205594  0  3.578026  0  0  -0.266555  0  3.82319  0  0  -0.268425  0  3.829018  0  0  -0.062414  -0.265143  0  3.81941  0
C  C62  1  0.99525336  0.25797920  0.99844646  1  0  0.699659  0  3.883443  0  0  0.647101  0  4.197808  0  0  0.680987  0  4.190092  0  0  0.209488  0.624006  0  4.202165  0
C  C63  1  0.50474368  0.74202188  0.49844631  1  0  0.699593  0  3.883535  0  0  0.64702  0  4.19793  0  0  0.680904  0  4.190219  0  0  0.209503  0.623926  0  4.202283  0
C  C64  1  0.00474548  0.74202087  0.00155410  1  0  0.699628  0  3.883545  0  0  0.647072  0  4.197909  0  0  0.680956  0  4.190196  0  0  0.209537  0.623977  0  4.202262  0
C  C65  1  0.49525444  0.25797666  0.50155083  1  0  0.699478  0  3.883651  0  0  0.646943  0  4.198008  0  0  0.680826  0  4.190296  0  0  0.209414  0.623849  0  4.202361  0
N  N66  1  0.87133469  0.13084487  0.13162490  1  0  0.035382  0  3.555135  0  0  0.129137  0  3.764404  0  0  0.115804  0  3.789197  0  0  -0.203197  0.137548  0  3.747866  0
N  N67  1  0.62866054  0.86915733  0.63162371  1  0  0.03525  0  3.555024  0  0  0.12901  0  3.764318  0  0  0.115678  0  3.789107  0  0  -0.203241  0.13742  0  3.747779  0
N  N68  1  0.12866010  0.86915518  0.86837679  1  0  0.035184  0  3.555109  0  0  0.128968  0  3.764404  0  0  0.115637  0  3.789193  0  0  -0.203242  0.137378  0  3.747865  0
N  N69  1  0.37133830  0.13084273  0.36837571  1  0  0.035141  0  3.554958  0  0  0.128908  0  3.764262  0  0  0.115576  0  3.789051  0  0  -0.20327  0.137318  0  3.747726  0
O  O70  1  0.04424721  0.37143116  0.38460870  1  0  -0.651099  0  2.015648  0  0  -0.587817  0  2.270793  0  0  -0.617178  0  2.258114  0  0  -0.321401  -0.567166  0  2.278694  0
O  O71  1  0.45575610  0.62857150  0.88460710  1  0  -0.651143  0  2.015658  0  0  -0.587882  0  2.270809  0  0  -0.617241  0  2.258129  0  0  -0.321453  -0.567232  0  2.278711  0
O  O72  1  0.95575568  0.62856892  0.61539129  1  0  -0.651082  0  2.01566  0  0  -0.587796  0  2.2708  0  0  -0.617157  0  2.258123  0  0  -0.32138  -0.567146  0  2.2787  0
O  O73  1  0.54424337  0.37142705  0.11539288  1  0  -0.651122  0  2.01571  0  0  -0.587858  0  2.27086  0  0  -0.617217  0  2.258179  0  0  -0.321456  -0.567209  0  2.278762  0
O  O74  1  0.93631676  0.53709877  0.30236446  1  0  -0.624717  0  1.984777  0  0  -0.570805  0  2.207068  0  0  -0.59758  0  2.199824  0  0  -0.312087  -0.552032  0  2.211432  0
O  O75  1  0.56368310  0.46290504  0.80236328  1  0  -0.62469  0  1.984809  0  0  -0.570786  0  2.207087  0  0  -0.597559  0  2.199841  0  0  -0.312048  -0.55201  0  2.211447  0
O  O76  1  0.06368351  0.46290434  0.69763609  1  0  -0.62469  0  1.98483  0  0  -0.570792  0  2.20714  0  0  -0.597567  0  2.199899  0  0  -0.312054  -0.552015  0  2.211501  0
O  O77  1  0.43632249  0.53709504  0.19763614  1  0  -0.624592  0  1.984846  0  0  -0.570695  0  2.207145  0  0  -0.597467  0  2.199902  0  0  -0.312018  -0.551919  0  2.211504  0
O  O78  1  0.16014728  0.25711628  0.01738447  1  0  -0.673055  0  2.005083  0  0  -0.614249  0  2.265424  0  0  -0.642867  0  2.253607  0  0  -0.33939  -0.593984  0  2.272793  0
O  O79  1  0.33985215  0.74288596  0.51738420  1  0  -0.672958  0  2.005195  0  0  -0.614155  0  2.265538  0  0  -0.642775  0  2.253726  0  0  -0.339359  -0.593888  0  2.272903  0
O  O80  1  0.83985299  0.74288683  0.98261666  1  0  -0.673022  0  2.005164  0  0  -0.614226  0  2.265517  0  0  -0.642844  0  2.253704  0  0  -0.339403  -0.593959  0  2.272884  0
O  O81  1  0.66014382  0.25710800  0.48261351  1  0  -0.673055  0  2.005184  0  0  -0.614229  0  2.26547  0  0  -0.642842  0  2.253649  0  0  -0.339401  -0.593964  0  2.272838  0
O  O82  1  0.95811469  0.32148009  0.93676316  1  0  -0.62797  0  1.926784  0  0  -0.571576  0  2.145457  0  0  -0.59815  0  2.137025  0  0  -0.319256  -0.552626  0  2.150417  0
O  O83  1  0.54188412  0.67851890  0.43676291  1  0  -0.628002  0  1.926778  0  0  -0.571568  0  2.14542  0  0  -0.598146  0  2.136994  0  0  -0.319272  -0.55262  0  2.15038  0
O  O84  1  0.04188478  0.67851846  0.06323683  1  0  -0.628004  0  1.926793  0  0  -0.571604  0  2.145463  0  0  -0.598182  0  2.13704  0  0  -0.319285  -0.552657  0  2.150423  0
O  O85  1  0.45812084  0.32148271  0.56323366  1  0  -0.627777  0  1.926776  0  0  -0.571453  0  2.145488  0  0  -0.598027  0  2.137053  0  0  -0.319185  -0.552507  0  2.150451  0
O  O86  1  0.08001409  0.27988595  0.57263881  1  0  -0.864775  0  1.870933  0  0  -0.800027  0  2.06644  0  0  -0.825771  0  2.031692  0  0  -0.592604  -0.781504  0  2.090333  0
O  O87  1  0.41999228  0.72011684  0.07264084  1  0  -0.864762  0  1.870883  0  0  -0.800035  0  2.066412  0  0  -0.825778  0  2.031666  0  0  -0.5926  -0.781507  0  2.090293  0
O  O88  1  0.91999024  0.72011718  0.42736117  1  0  -0.864766  0  1.870862  0  0  -0.800045  0  2.066391  0  0  -0.82579  0  2.031644  0  0  -0.592591  -0.781522  0  2.090285  0
O  O89  1  0.58000926  0.27988324  0.92736086  1  0  -0.86471  0  1.870905  0  0  -0.799983  0  2.066445  0  0  -0.825727  0  2.031696  0  0  -0.592568  -0.78146  0  2.09034  0
