# generated using pymatgen
data_ZnH16C20NO6
_symmetry_space_group_name_H-M   'P 1'
_cell_length_a   14.83476130
_cell_length_b   16.01285487
_cell_length_c   16.16149900
_cell_angle_alpha   90.34037493
_cell_angle_beta   89.75672986
_cell_angle_gamma   90.22349717
_symmetry_Int_Tables_number   1
_chemical_formula_structural   ZnH16C20NO6
_chemical_formula_sum   'Zn2 H32 C40 N2 O12'
_cell_volume   3838.98247820
_cell_formula_units_Z   2
loop_
 _symmetry_equiv_pos_site_id
 _symmetry_equiv_pos_as_xyz
  1  'x, y, z'
loop_
 _atom_site_type_symbol
 _atom_site_label
 _atom_site_symmetry_multiplicity
 _atom_site_fract_x
 _atom_site_fract_y
 _atom_site_fract_z
 _atom_site_occupancy
 _atom_site_pbe_bader_charge
 _atom_site_pbe_bader_spin_density
 _atom_site_pbe_cm5_charge
 _atom_site_pbe_ddec_charge
 _atom_site_pbe_ddec_spin_density
 _atom_site_pbe_ddec_sum_bond_order
 _atom_site_pbe_magmom
Zn  Zn0  1  0.59393895  0.50021395  0.49983726  1  1.307983  0  0.681244  0.887328  0  2.430585  0
Zn  Zn1  1  0.40486990  0.49875258  0.49934038  1  1.306722  0  0.680398  0.887737  0  2.428532  0
H  H2  1  0.91512423  0.38333524  0.43168165  1  0.152256  0  0.134237  0.139367  0  0.953099  0
H  H3  1  0.91518362  0.61688990  0.56750057  1  0.106494  0  0.132839  0.137935  0  0.954826  0
H  H4  1  0.58881391  0.08970539  0.68044996  1  0.010926  0  0.083533  0.110847  0  1.036571  0
H  H5  1  0.69854515  0.07363012  0.64007774  1  0.031408  0  0.084832  0.11228  0  1.006361  0
H  H6  1  0.63570148  0.16225687  0.60995368  1  0.059703  0  0.088632  0.124064  0  1.009128  0
H  H7  1  0.45527952  0.06266802  0.69174697  1  -0.013379  0  0.083724  0.109439  0  1.039488  0
H  H8  1  0.41605040  0.15555993  0.64491900  1  0.037507  0  0.088383  0.122499  0  1.01019  0
H  H9  1  0.33923879  0.07482033  0.67128375  1  0.022955  0  0.086758  0.116647  0  1.000938  0
H  H10  1  0.55259813  0.95650377  0.69209423  1  0.012886  0  0.084842  0.11247  0  1.046725  0
H  H11  1  0.57684153  0.85450903  0.65425878  1  0.052857  0  0.089887  0.126066  0  1.003365  0
H  H12  1  0.66483963  0.92761071  0.67155020  1  0.031549  0  0.085654  0.115714  0  1.006578  0
H  H13  1  0.08368326  0.38355749  0.43169942  1  0.111668  0  0.133749  0.139047  0  0.95364  0
H  H14  1  0.43228197  0.92528862  0.68905593  1  0.001134  0  0.08385  0.114452  0  1.051679  0
H  H15  1  0.31848119  0.92680961  0.65814665  1  0.034983  0  0.083701  0.111691  0  1.011072  0
H  H16  1  0.38789918  0.84139299  0.63008343  1  0.057263  0  0.087332  0.123032  0  1.012364  0
H  H17  1  0.26542547  0.94613275  0.53257329  1  0.011878  0  0.083332  0.115332  0  1.006886  0
H  H18  1  0.32773937  0.96288101  0.44081050  1  0.060874  0  0.085759  0.12689  0  1.038008  0
H  H19  1  0.32528967  0.86157032  0.48703699  1  0.041465  0  0.08523  0.122368  0  1.010234  0
H  H20  1  0.73396736  0.93680661  0.54658394  1  0.011229  0  0.084624  0.115419  0  1.007715  0
H  H21  1  0.67383973  0.84382848  0.52075930  1  0.023303  0  0.086251  0.125776  0  1.01032  0
H  H22  1  0.67839757  0.92916860  0.45042714  1  0.026546  0  0.083647  0.115098  0  1.028755  0
H  H23  1  0.57347679  0.05884038  0.32294629  1  0.582204  0  0.325564  0.364917  0  0.885718  0
H  H24  1  0.36141166  0.07496818  0.52385738  1  0.039649  0  0.09548  0.070614  0  0.986378  0
H  H25  1  0.41903001  0.13253482  0.38314301  1  0.572219  0  0.318365  0.3578  0  0.902106  0
H  H26  1  0.64907781  0.48289185  0.85561681  1  0.591739  0  0.326132  0.360801  0  0.893359  0
H  H27  1  0.34992357  0.48492330  0.85812114  1  0.626649  0  0.326016  0.361025  0  0.892386  0
H  H28  1  0.64375185  0.05962094  0.50008453  1  0.071458  0  0.099372  0.085117  0  0.987717  0
H  H29  1  0.56336746  0.92868883  0.39303500  1  0.063075  0  0.100106  0.113859  0  1.004615  0
H  H30  1  0.44489913  0.92520982  0.38901697  1  0.067325  0  0.106379  0.134172  0  0.978443  0
H  H31  1  0.64692502  0.48478339  0.07603937  1  0.093949  0  0.114369  0.142869  0  0.978687  0
H  H32  1  0.35437011  0.48730976  0.07848603  1  0.087912  0  0.114544  0.143378  0  0.978096  0
H  H33  1  0.08372385  0.61711828  0.56748993  1  0.107084  0  0.133215  0.138011  0  0.95411  0
C  C34  1  0.49995092  0.49503657  0.66150858  1  1.729092  0  0.211819  0.659967  0  4.266199  0
C  C35  1  0.41740991  0.48530511  0.95828320  1  0.440945  0  0.091307  0.3097  0  4.091134  0
C  C36  1  0.58260056  0.48406646  0.95688568  1  0.540262  0  0.091599  0.309727  0  4.089448  0
C  C37  1  0.49976528  0.48490043  0.91327070  1  0.076646  0  -0.038831  -0.143695  0  4.160993  0
C  C38  1  0.50123841  0.48962270  0.17398655  1  -0.564063  0  -0.030559  -0.048249  0  4.085343  0
C  C39  1  0.49835933  0.66151176  0.50438330  1  1.608177  0  0.219499  0.681831  0  4.232629  0
C  C40  1  0.49936111  0.48686740  0.82638460  1  -0.393634  0  -0.051164  -0.081404  0  4.24851  0
C  C41  1  0.49933206  0.49003715  0.75073190  1  -0.011219  0  -0.041568  -0.174022  0  3.963746  0
C  C42  1  0.50164538  0.49345261  0.24929537  1  0.215623  0  -0.045332  -0.178273  0  3.954544  0
C  C43  1  0.95268081  0.56638154  0.53811473  1  0.096574  0  -0.050103  -0.08857  0  3.916498  0
C  C44  1  0.04621152  0.56650210  0.53812141  1  -0.051185  0  -0.049573  -0.085516  0  3.916113  0
C  C45  1  0.49979547  0.04659953  0.42194775  1  0.959843  0  0.155325  0.482989  0  3.828379  0
C  C46  1  0.90615012  0.50006849  0.49965851  1  0.082796  0  0.02774  0.064842  0  4.077021  0
C  C47  1  0.09268391  0.50029428  0.49966751  1  0.079561  0  0.027736  0.062574  0  4.081224  0
C  C48  1  0.95262693  0.43392221  0.46110640  1  0.060231  0  -0.048909  -0.086096  0  3.913532  0
C  C49  1  0.04615764  0.43404152  0.46111246  1  -0.042078  0  -0.04978  -0.087109  0  3.915876  0
C  C50  1  0.81034958  0.49993202  0.49989170  1  0.860753  0  0.249288  0.290216  0  3.909345  0
C  C51  1  0.18847795  0.50009724  0.49986211  1  0.855578  0  0.2488  0.291726  0  3.912168  0
C  C52  1  0.50150627  0.49764257  0.33862616  1  1.712585  0  0.218188  0.671095  0  4.237477  0
C  C53  1  0.49751249  0.33715270  0.50057707  1  1.648242  0  0.21816  0.679679  0  4.230577  0
C  C54  1  0.58954229  0.94989215  0.55906548  1  0.058279  0  -0.001266  0.167722  0  3.649933  0
C  C55  1  0.40898387  0.95179820  0.55522975  1  0.030009  0  -0.001803  0.17048  0  3.636941  0
C  C56  1  0.50193851  0.95054869  0.42388108  1  -0.061233  0  -0.161077  -0.32543  0  3.821967  0
C  C57  1  0.41743731  0.04972952  0.56025257  1  0.014151  0  -0.078017  -0.017292  0  3.724268  0
C  C58  1  0.59461353  0.04744587  0.54960919  1  -0.039483  0  -0.081845  -0.021  0  3.725014  0
C  C59  1  0.49895053  0.24696216  0.50372283  1  0.167217  0  -0.056456  -0.220784  0  3.96243  0
C  C60  1  0.49977176  0.91807481  0.51435784  1  0.132307  0  0.011117  0.074336  0  3.747594  0
C  C61  1  0.50418173  0.08084420  0.51350648  1  0.110981  0  0.000919  -0.002294  0  3.808361  0
C  C62  1  0.63055288  0.09555958  0.62473403  1  -0.08195  0  -0.245738  -0.376391  0  3.947048  0
C  C63  1  0.40714434  0.08748793  0.64701727  1  -0.02519  0  -0.244068  -0.374144  0  3.938419  0
C  C64  1  0.59523685  0.92082920  0.64950586  1  -0.084997  0  -0.244922  -0.405198  0  3.910656  0
C  C65  1  0.38688217  0.90954613  0.63838737  1  -0.08971  0  -0.249216  -0.410305  0  3.919154  0
C  C66  1  0.32773986  0.92914285  0.49954187  1  -0.104691  0  -0.25066  -0.429771  0  3.925907  0
C  C67  1  0.50314632  0.17137354  0.50917048  1  -0.46127  0  -0.022832  -0.008816  0  4.065981  0
C  C68  1  0.67322861  0.91225289  0.51596354  1  -0.060298  0  -0.246466  -0.422961  0  3.936946  0
C  C69  1  0.49864123  0.82746263  0.51110252  1  -0.410227  0  -0.016671  -0.000721  0  4.040258  0
C  C70  1  0.49824295  0.75159294  0.50761282  1  0.123897  0  -0.057688  -0.225765  0  3.959002  0
C  C71  1  0.58327943  0.48485742  0.04286363  1  0.018531  0  -0.105946  -0.280646  0  3.926235  0
C  C72  1  0.41765025  0.48623214  0.04426241  1  0.119261  0  -0.105811  -0.280802  0  3.924858  0
C  C73  1  0.50071225  0.48653814  0.08632734  1  0.091289  0  0.007363  0.179948  0  4.151817  0
N  N74  1  0.26664354  0.49959511  0.50011960  1  -1.081196  0  -0.257793  -0.258956  0  3.095168  0
N  N75  1  0.73217438  0.49988153  0.50030947  1  -1.128229  0  -0.257566  -0.257326  0  3.09144  0
O  O76  1  0.57724512  0.50149033  0.62753383  1  -1.143127  0  -0.318498  -0.548322  0  2.247234  0
O  O77  1  0.41992133  0.07140284  0.38091523  1  -1.091615  0  -0.398457  -0.553624  0  2.197251  0
O  O78  1  0.66228418  0.48293416  0.91504418  1  -1.110038  0  -0.34974  -0.4321  0  2.23285  0
O  O79  1  0.33728643  0.48543602  0.91775772  1  -1.137262  0  -0.34957  -0.432741  0  2.230947  0
O  O80  1  0.42324294  0.49252971  0.62649583  1  -1.147775  0  -0.318311  -0.549507  0  2.249766  0
O  O81  1  0.57534012  0.62646998  0.50000867  1  -1.143466  0  -0.320085  -0.553818  0  2.25662  0
O  O82  1  0.42165852  0.62536908  0.50647662  1  -1.137596  0  -0.319902  -0.553681  0  2.257686  0
O  O83  1  0.57826871  0.49619175  0.37375237  1  -1.128899  0  -0.318677  -0.550075  0  2.25142  0
O  O84  1  0.42449514  0.50222789  0.37365305  1  -1.140514  0  -0.318235  -0.550563  0  2.254555  0
O  O85  1  0.57389881  0.37368189  0.50425237  1  -1.133309  0  -0.316745  -0.548259  0  2.256826  0
O  O86  1  0.42043051  0.37151235  0.49501008  1  -1.134815  0  -0.320489  -0.554108  0  2.253882  0
O  O87  1  0.57604812  0.08059285  0.37934237  1  -1.097237  0  -0.400472  -0.562556  0  2.197542  0
