# generated using pymatgen
data_CuH4C6(NO5)2
_symmetry_space_group_name_H-M   'P 1'
_cell_length_a   6.97777356
_cell_length_b   8.84346446
_cell_length_c   9.46438024
_cell_angle_alpha   115.86664701
_cell_angle_beta   89.97024479
_cell_angle_gamma   113.28699408
_symmetry_Int_Tables_number   1
_chemical_formula_structural   CuH4C6(NO5)2
_chemical_formula_sum   'Cu2 H8 C12 N4 O20'
_cell_volume   472.13973825
_cell_formula_units_Z   2
loop_
 _symmetry_equiv_pos_site_id
 _symmetry_equiv_pos_as_xyz
  1  'x, y, z'
loop_
 _atom_site_type_symbol
 _atom_site_label
 _atom_site_symmetry_multiplicity
 _atom_site_fract_x
 _atom_site_fract_y
 _atom_site_fract_z
 _atom_site_occupancy
 _atom_site_hle17_ddec_charge
 _atom_site_hle17_ddec_spin_density
 _atom_site_hle17_ddec_sum_bond_order
 _atom_site_hle17_magmom
 _atom_site_hse06_10hf_ddec_charge
 _atom_site_hse06_10hf_ddec_spin_density
 _atom_site_hse06_10hf_ddec_sum_bond_order
 _atom_site_hse06_10hf_magmom
 _atom_site_hse06_ddec_charge
 _atom_site_hse06_ddec_spin_density
 _atom_site_hse06_ddec_sum_bond_order
 _atom_site_hse06_magmom
 _atom_site_pbe_cm5_charge
 _atom_site_pbe_ddec_charge
 _atom_site_pbe_ddec_spin_density
 _atom_site_pbe_ddec_sum_bond_order
 _atom_site_pbe_magmom
Cu  Cu0  1  0.00954900  0.00008135  0.75005952  1  1.007029  0.730218  1.686359  0.567  1.010057  0.824173  2.065041  0.696  1.088882  0.88171  2.012811  0.779  0.724617  0.954702  0.776847  2.107563  0.633
Cu  Cu1  1  0.99044657  0.99991835  0.24995688  1  1.006844  0.730209  1.686714  0.567  1.009909  0.824153  2.065421  0.696  1.088709  0.881688  2.013201  0.779  0.72462  0.954565  0.776823  2.107909  0.632
H  H2  1  0.31364130  0.02055358  0.91035988  1  0.440324  -0.000256  0.838484  0.0  0.411753  0.000361  0.906396  0.001  0.422682  0.000131  0.89049  0.0  0.310676  0.403903  0.000565  0.917851  0.001
H  H3  1  0.29279084  0.97907911  0.58921817  1  0.4414  -0.00026  0.83631  0.0  0.41235  0.00036  0.905629  0.001  0.423346  0.000129  0.889616  0.0  0.310862  0.404493  0.000565  0.917076  0.001
H  H4  1  0.68637866  0.97944044  0.08962886  1  0.440413  -0.000257  0.838417  0.0  0.411841  0.00036  0.906272  0.001  0.422771  0.000129  0.890364  0.0  0.310725  0.403993  0.000564  0.917721  0.001
H  H5  1  0.70719702  0.02090229  0.41075700  1  0.441304  -0.000262  0.836409  0.0  0.412209  0.00036  0.905829  0.001  0.423208  0.000128  0.889814  0.0  0.310793  0.40435  0.000564  0.917278  0.001
H  H6  1  0.25593300  0.18344501  0.02465226  1  0.438381  -0.000477  0.845564  -0.001  0.410898  0.000285  0.91335  0.0  0.421511  0.000123  0.898126  0.0  0.30628  0.403265  0.000423  0.924326  0.001
H  H7  1  0.07181936  0.81637533  0.47514895  1  0.437735  -0.000471  0.846758  -0.001  0.410785  0.00029  0.91344  0.0  0.421342  0.000128  0.898275  0.0  0.306319  0.40319  0.00043  0.924381  0.001
H  H8  1  0.74406779  0.81653648  0.97534831  1  0.438349  -0.000475  0.845594  -0.001  0.410947  0.000285  0.91331  0.0  0.421524  0.000123  0.89812  0.0  0.306285  0.403316  0.000423  0.924285  0.001
H  H9  1  0.92815272  0.18360891  0.52484323  1  0.437869  -0.000471  0.846664  -0.001  0.410921  0.000289  0.913277  0.0  0.421479  0.000127  0.898108  0.0  0.306384  0.403329  0.00043  0.924212  0.001
C  C10  1  0.62587144  0.69349122  0.53727507  1  0.329449  -0.011064  3.739385  -0.01  0.30737  -0.002276  4.021484  -0.003  0.33437  -0.002515  4.02504  -0.002  0.139744  0.288284  -0.001895  4.019458  -0.003
C  C11  1  0.93275103  0.30669384  0.96287135  1  0.328889  -0.01102  3.740331  -0.01  0.307975  -0.002277  4.020114  -0.003  0.334983  -0.002515  4.023757  -0.002  0.140064  0.288873  -0.001865  4.018075  -0.003
C  C12  1  0.37411054  0.30650710  0.46275135  1  0.329418  -0.011109  3.739278  -0.01  0.307389  -0.002278  4.021237  -0.003  0.334388  -0.002516  4.02481  -0.002  0.139882  0.288298  -0.001895  4.019212  -0.003
C  C13  1  0.06726062  0.69333222  0.03709341  1  0.328856  -0.011019  3.739776  -0.01  0.308057  -0.002279  4.019426  -0.003  0.335078  -0.00252  4.023074  -0.002  0.140096  0.288963  -0.00187  4.017361  -0.003
C  C14  1  0.65892608  0.61877170  0.65006925  1  0.335192  0.002728  3.774362  0.005  0.308731  0.001723  4.054998  0.003  0.331413  0.000667  4.058695  0.002  0.14101  0.293283  0.002629  4.05243  0.004
C  C15  1  0.04046574  0.38141723  0.84999287  1  0.336304  0.002713  3.772914  0.005  0.30907  0.001723  4.053873  0.003  0.331771  0.000664  4.0577  0.002  0.141073  0.293568  0.002649  4.05128  0.004
C  C16  1  0.34104871  0.38122657  0.34994025  1  0.334987  0.002747  3.774921  0.005  0.308649  0.001722  4.055355  0.003  0.33133  0.000668  4.059055  0.002  0.141044  0.293204  0.002629  4.052783  0.004
C  C17  1  0.95949657  0.61860475  0.15001251  1  0.336376  0.002714  3.773166  0.005  0.309085  0.001721  4.054156  0.003  0.3318  0.000668  4.057953  0.002  0.141039  0.293582  0.002651  4.051554  0.004
C  C18  1  0.53145419  0.42775990  0.60566954  1  -0.159396  0.008803  3.642572  0.011  -0.201198  0.003722  3.921704  0.005  -0.22279  0.002039  3.942396  0.003  0.0444  -0.187375  0.005566  3.908844  0.007
C  C19  1  0.10357852  0.57223614  0.89422174  1  -0.160464  0.008726  3.643174  0.011  -0.20189  0.003702  3.921247  0.005  -0.223615  0.002035  3.942198  0.003  0.044442  -0.187988  0.005522  3.908279  0.007
C  C20  1  0.46855422  0.57224541  0.39435549  1  -0.159233  0.008781  3.642442  0.011  -0.201087  0.00372  3.921768  0.005  -0.222682  0.002037  3.942466  0.003  0.044454  -0.187255  0.005563  3.908886  0.007
C  C21  1  0.89646127  0.42777744  0.10576542  1  -0.16052  0.008732  3.643129  0.011  -0.202051  0.003711  3.921257  0.005  -0.223787  0.002033  3.942204  0.003  0.044232  -0.188129  0.005527  3.908273  0.007
N  N22  1  0.56147415  0.35820221  0.71172921  1  0.516013  -0.001313  3.927902  -0.001  0.572281  -0.000259  4.177957  0.0  0.597656  -0.000261  4.184178  0.0  0.049872  0.555112  -8.4e-05  4.173858  0.0
N  N23  1  0.20290490  0.64170192  0.78800239  1  0.518254  -0.001253  3.92659  -0.001  0.574157  -0.000261  4.176469  0.0  0.599553  -0.000256  4.182704  0.0  0.050354  0.55693  -8.5e-05  4.172407  0.0
N  N24  1  0.43852229  0.64178491  0.28828738  1  0.516365  -0.001286  3.927146  -0.001  0.572381  -0.00026  4.177602  0.0  0.597763  -0.00026  4.1838  0.0  0.049997  0.555212  -8.4e-05  4.173501  0.0
N  N25  1  0.79712490  0.35830887  0.21198893  1  0.518126  -0.001257  3.927056  -0.001  0.574321  -0.000261  4.17659  0.0  0.599732  -0.000256  4.182809  0.0  0.050493  0.557089  -8.5e-05  4.172526  0.0
O  O26  1  0.74797728  0.86195683  0.57775287  1  -0.437861  0.077  2.135004  0.109  -0.421693  0.045336  2.407636  0.071  -0.457525  0.031772  2.404646  0.053  -0.264343  -0.396068  0.056226  2.409316  0.083
O  O27  1  0.88661097  0.13837781  0.92255416  1  -0.437529  0.076779  2.135928  0.109  -0.420985  0.045278  2.407106  0.07  -0.456813  0.03175  2.404152  0.053  -0.263829  -0.395366  0.056138  2.408784  0.083
O  O28  1  0.25200980  0.13803162  0.42224207  1  -0.43772  0.076991  2.135013  0.109  -0.421669  0.045331  2.407741  0.07  -0.457487  0.031772  2.404727  0.053  -0.264444  -0.396048  0.056218  2.40942  0.083
O  O29  1  0.11343676  0.86169173  0.07746098  1  -0.437611  0.076798  2.135724  0.109  -0.421206  0.045285  2.407038  0.07  -0.456998  0.031757  2.403981  0.053  -0.263946  -0.395584  0.056144  2.4087  0.083
O  O30  1  0.80159367  0.73513614  0.77448947  1  -0.491799  -0.001004  2.103822  0.001  -0.463795  -0.002079  2.355639  0.0  -0.485871  -0.003393  2.348324  -0.002  -0.269503  -0.447269  -0.000113  2.359783  0.002
O  O31  1  0.06710089  0.26516052  0.72565449  1  -0.49109  -0.001043  2.101153  0.001  -0.464165  -0.002112  2.354107  0.0  -0.486215  -0.003419  2.346853  -0.002  -0.269869  -0.447708  -0.000171  2.35841  0.002
O  O32  1  0.19839543  0.26486494  0.22552539  1  -0.491749  -0.001  2.104246  0.001  -0.463738  -0.002079  2.355953  0.0  -0.485819  -0.003393  2.348671  -0.002  -0.269537  -0.447209  -0.000113  2.360071  0.002
O  O33  1  0.93288965  0.73483768  0.27433490  1  -0.491031  -0.001032  2.102296  0.001  -0.463983  -0.002108  2.355124  0.0  -0.486045  -0.003415  2.347889  -0.002  -0.269756  -0.44753  -0.000166  2.359429  0.002
O  O34  1  0.60345061  0.46373667  0.85843624  1  -0.328205  3.6e-05  1.797006  0.0  -0.322319  0.000112  2.001384  0.0  -0.335487  -0.000268  1.998745  0.0  -0.116163  -0.313149  0.000583  2.003177  0.001
O  O35  1  0.13893375  0.53606041  0.64131838  1  -0.328803  6.9e-05  1.795585  0.0  -0.323062  0.000117  2.000418  0.0  -0.336237  -0.000252  1.997756  0.0  -0.116385  -0.313934  0.000602  2.002344  0.001
O  O36  1  0.39651512  0.53624351  0.14159339  1  -0.328389  3.9e-05  1.797193  0.0  -0.322468  0.000105  2.001742  0.0  -0.335676  -0.000259  1.999186  0.0  -0.116292  -0.313297  0.000583  2.003529  0.001
O  O37  1  0.86104305  0.46394470  0.35865163  1  -0.328503  0.000115  1.796077  0.0  -0.322976  0.00011  2.000902  0.0  -0.33614  -0.000239  1.998217  0.0  -0.116394  -0.313852  0.000601  2.00283  0.001
O  O38  1  0.54841962  0.19600598  0.65157932  1  -0.36962  0.002746  1.777692  0.004  -0.353222  0.001131  1.969177  0.001  -0.367283  0.000603  1.962603  0.001  -0.136226  -0.343718  0.002115  1.973826  0.003
O  O39  1  0.35224804  0.80388971  0.84797656  1  -0.370733  0.002663  1.778913  0.003  -0.354203  0.001123  1.970192  0.001  -0.368162  0.000592  1.963548  0.001  -0.13634  -0.344694  0.002095  1.974882  0.002
O  O40  1  0.45161455  0.80400213  0.34844578  1  -0.369684  0.002732  1.777141  0.004  -0.35314  0.001139  1.968711  0.001  -0.367218  0.000597  1.96215  0.001  -0.136207  -0.343654  0.002118  1.973404  0.003
O  O41  1  0.64780499  0.19609592  0.15200454  1  -0.370943  0.002636  1.77876  0.003  -0.3544  0.001128  1.969815  0.001  -0.368353  0.000582  1.963116  0.001  -0.136401  -0.344902  0.002097  1.974539  0.002
O  O42  1  0.27391936  0.11732857  0.91384476  1  -0.776422  0.057878  1.949571  0.081  -0.754381  0.039944  2.179111  0.061  -0.783686  0.030293  2.144711  0.05  -0.568553  -0.734111  0.045656  2.203279  0.065
O  O43  1  0.15605262  0.88249351  0.58590856  1  -0.777043  0.057793  1.948697  0.081  -0.754495  0.039888  2.17827  0.061  -0.783812  0.030245  2.143927  0.05  -0.568457  -0.734209  0.045605  2.202386  0.065
O  O44  1  0.72607497  0.88265430  0.08615426  1  -0.776474  0.057884  1.949519  0.081  -0.754537  0.039949  2.178866  0.061  -0.783798  0.030296  2.144574  0.05  -0.568632  -0.734268  0.045666  2.203021  0.065
O  O45  1  0.84393585  0.11749771  0.41408328  1  -0.777052  0.057802  1.948779  0.081  -0.754475  0.039893  2.178372  0.061  -0.78379  0.030251  2.144024  0.05  -0.568477  -0.734188  0.04561  2.202487  0.065
