# generated using pymatgen
data_CaH22C24(NO5)2
_symmetry_space_group_name_H-M   'P 1'
_cell_length_a   9.83255813
_cell_length_b   11.44350999
_cell_length_c   12.92872382
_cell_angle_alpha   63.67828843
_cell_angle_beta   84.60151028
_cell_angle_gamma   77.82268139
_symmetry_Int_Tables_number   1
_chemical_formula_structural   CaH22C24(NO5)2
_chemical_formula_sum   'Ca2 H44 C48 N4 O20'
_cell_volume   1274.55982856
_cell_formula_units_Z   2
loop_
 _symmetry_equiv_pos_site_id
 _symmetry_equiv_pos_as_xyz
  1  'x, y, z'
loop_
 _atom_site_type_symbol
 _atom_site_label
 _atom_site_symmetry_multiplicity
 _atom_site_fract_x
 _atom_site_fract_y
 _atom_site_fract_z
 _atom_site_occupancy
 _atom_site_hle17_bader_spin_density
 _atom_site_hle17_ddec_charge
 _atom_site_hle17_ddec_spin_density
 _atom_site_hle17_ddec_sum_bond_order
 _atom_site_hle17_magmom
 _atom_site_hse06_10hf_bader_spin_density
 _atom_site_hse06_10hf_ddec_charge
 _atom_site_hse06_10hf_ddec_spin_density
 _atom_site_hse06_10hf_ddec_sum_bond_order
 _atom_site_hse06_10hf_magmom
 _atom_site_hse06_bader_spin_density
 _atom_site_hse06_ddec_charge
 _atom_site_hse06_ddec_spin_density
 _atom_site_hse06_ddec_sum_bond_order
 _atom_site_hse06_magmom
 _atom_site_pbe_bader_charge
 _atom_site_pbe_bader_spin_density
 _atom_site_pbe_cm5_charge
 _atom_site_pbe_ddec_charge
 _atom_site_pbe_ddec_spin_density
 _atom_site_pbe_ddec_sum_bond_order
 _atom_site_pbe_magmom
Ca  Ca0  1  0.75001918  0.14450143  0.71084082  1  0  1.535884  0  1.130945  0  0  1.408748  0  1.484679  0  0  1.45284  0  1.438015  0  1.646529  0  0.898094  1.37511  0  1.518451  0
Ca  Ca1  1  0.24998105  0.85549929  0.28915929  1  0  1.535847  0  1.130985  0  0  1.408706  0  1.484729  0  0  1.452802  0  1.438059  0  1.646525  0  0.898063  1.375069  0  1.518498  0
H  H2  1  0.29892823  0.53347030  0.52325686  1  0  0.401923  0  0.904922  0  0  0.366585  0  0.987248  0  0  0.381491  0  0.966801  0  0.647189  0  0.295828  0.35624  0  0.999149  0
H  H3  1  0.20134545  0.94339425  0.52317909  1  0  0.401676  0  0.905437  0  0  0.366576  0  0.987479  0  0  0.381502  0  0.967003  0  0.651595  0  0.295709  0.356288  0  0.999117  0
H  H4  1  0.70107220  0.46652904  0.47674366  1  0  0.401943  0  0.904893  0  0  0.366617  0  0.987201  0  0  0.381522  0  0.966755  0  0.647193  0  0.295848  0.35627  0  0.999102  0
H  H5  1  0.79865498  0.05660586  0.47682065  1  0  0.401687  0  0.905424  0  0  0.366588  0  0.987462  0  0  0.381513  0  0.966987  0  0.651597  0  0.295711  0.356299  0  0.999102  0
H  H6  1  0.56739807  0.83690768  0.50321450  1  0  0.111532  0  0.939803  0  0  0.118419  0  1.005499  0  0  0.122944  0  1.000969  0  0.133191  0  0.112367  0.11488  0  1.009401  0
H  H7  1  0.93283736  0.66013056  0.50321482  1  0  0.111738  0  0.940429  0  0  0.118557  0  1.005931  0  0  0.123132  0  1.001358  0  0.123105  0  0.112604  0.115181  0  1.009339  0
H  H8  1  0.43260196  0.16309444  0.49678522  1  0  0.111537  0  0.939806  0  0  0.118417  0  1.005501  0  0  0.12294  0  1.000972  0  0.133216  0  0.112366  0.11488  0  1.009397  0
H  H9  1  0.06716307  0.33986878  0.49678569  1  0  0.111723  0  0.940407  0  0  0.118528  0  1.005916  0  0  0.123103  0  1.001343  0  0.123104  0  0.112587  0.115152  0  1.009323  0
H  H10  1  0.65916713  0.73308023  0.85474540  1  0  0.101316  0  0.958726  0  0  0.109791  0  1.024846  0  0  0.113611  0  1.021924  0  0.089632  0  0.106991  0.107084  0  1.026763  0
H  H11  1  0.84054137  0.41171552  0.85482945  1  0  0.101474  0  0.958755  0  0  0.109576  0  1.025356  0  0  0.113387  0  1.022451  0  0.088954  0  0.107102  0.106838  0  1.027412  0
H  H12  1  0.34083535  0.26691974  0.14525448  1  0  0.10134  0  0.958721  0  0  0.109825  0  1.024821  0  0  0.113645  0  1.0219  0  0.089616  0  0.107012  0.107116  0  1.026742  0
H  H13  1  0.15945803  0.58828389  0.14517099  1  0  0.101472  0  0.958712  0  0  0.109575  0  1.025312  0  0  0.113386  0  1.022407  0  0.088974  0  0.10708  0.106837  0  1.027368  0
H  H14  1  0.41765148  0.50680898  0.77708412  1  0  0.111185  0  0.938085  0  0  0.121618  0  0.99711  0  0  0.125598  0  0.994049  0  0.13805  0  0.110826  0.118713  0  0.999341  0
H  H15  1  0.08212276  0.71600780  0.77688246  1  0  0.111241  0  0.939828  0  0  0.121712  0  0.998602  0  0  0.125688  0  0.995568  0  0.111799  0  0.110827  0.118852  0  1.00071  0
H  H16  1  0.58234977  0.49319167  0.22291607  1  0  0.111204  0  0.938206  0  0  0.121649  0  0.997211  0  0  0.12563  0  0.99415  0  0.137995  0  0.110842  0.11876  0  0.999419  0
H  H17  1  0.91787645  0.28399223  0.22311836  1  0  0.111246  0  0.93986  0  0  0.121723  0  0.998622  0  0  0.125699  0  0.995585  0  0.11179  0  0.110829  0.118863  0  1.00073  0
H  H18  1  0.41561605  0.24512646  0.69005270  1  0  0.053397  0  0.941491  0  0  0.060544  0  1.011262  0  0  0.062808  0  1.005718  0  0.122917  0  0.131757  0.058765  0  1.015294  0
H  H19  1  0.08455234  0.06486768  0.68993148  1  0  0.053366  0  0.94198  0  0  0.061085  0  1.010923  0  0  0.063352  0  1.005373  0  0.124599  0  0.132067  0.059313  0  1.014978  0
H  H20  1  0.58438336  0.75487373  0.30994697  1  0  0.053421  0  0.941459  0  0  0.060537  0  1.011255  0  0  0.062799  0  1.005713  0  0.122916  0  0.131763  0.05876  0  1.015284  0
H  H21  1  0.91544828  0.93513104  0.31006866  1  0  0.053395  0  0.941974  0  0  0.061109  0  1.010915  0  0  0.063377  0  1.005364  0  0.124593  0  0.132069  0.059336  0  1.014972  0
H  H22  1  0.15816653  0.39143260  0.79098857  1  0  0.098527  0  0.964099  0  0  0.117728  0  1.027553  0  0  0.117148  0  1.030205  0  0.076802  0  0.100466  0.118015  0  1.025818  0
H  H23  1  0.34187795  0.81765207  0.79108220  1  0  0.098397  0  0.963618  0  0  0.117871  0  1.026867  0  0  0.117291  0  1.029514  0  0.074698  0  0.100485  0.118129  0  1.025167  0
H  H24  1  0.84183287  0.60856681  0.20901187  1  0  0.098521  0  0.96409  0  0  0.117722  0  1.027542  0  0  0.117141  0  1.030203  0  0.076724  0  0.100467  0.11801  0  1.025807  0
H  H25  1  0.65812228  0.18234866  0.20891791  1  0  0.098389  0  0.963628  0  0  0.117862  0  1.026879  0  0  0.117281  0  1.029526  0  0.074689  0  0.100483  0.118119  0  1.025178  0
H  H26  1  0.10142717  0.24161144  0.82001491  1  0  0.100701  0  0.937047  0  0  0.120655  0  0.999945  0  0  0.121176  0  1.000413  0  0.083785  0  0.105829  0.12009  0  0.999844  0
H  H27  1  0.39880205  0.93849487  0.81982604  1  0  0.100698  0  0.936583  0  0  0.120302  0  1.000008  0  0  0.120834  0  1.000443  0  0.048627  0  0.105908  0.119767  0  0.999847  0
H  H28  1  0.89857102  0.75838866  0.17998583  1  0  0.100726  0  0.937024  0  0  0.120661  0  0.999943  0  0  0.12119  0  1.000403  0  0.041292  0  0.105828  0.120094  0  0.999842  0
H  H29  1  0.60119799  0.06150648  0.18017445  1  0  0.100706  0  0.936597  0  0  0.120304  0  1.000024  0  0  0.120836  0  1.000459  0  0.048645  0  0.105916  0.119769  0  0.999864  0
H  H30  1  0.19731970  0.32108310  0.69131614  1  0  0.117957  0  0.936811  0  0  0.137336  0  0.999949  0  0  0.138574  0  0.999022  0  0.107116  0  0.113878  0.136282  0  1.000783  0
H  H31  1  0.30291999  0.98783524  0.69124219  1  0  0.117486  0  0.936314  0  0  0.137219  0  0.999187  0  0  0.138468  0  0.998222  0  0.102633  0  0.113853  0.136203  0  1.000008  0
H  H32  1  0.80268053  0.67891763  0.30868398  1  0  0.117953  0  0.936806  0  0  0.137336  0  0.999936  0  0  0.138574  0  0.999009  0  0.107105  0  0.113878  0.136282  0  1.00077  0
H  H33  1  0.69708024  0.01216549  0.30875792  1  0  0.117494  0  0.936301  0  0  0.137232  0  0.999166  0  0  0.13848  0  0.998201  0  0.102626  0  0.113861  0.136216  0  0.999987  0
H  H34  1  0.37281965  0.07088347  0.01077041  1  0  0.113456  0  0.952106  0  0  0.130207  0  1.020084  0  0  0.132191  0  1.018247  0  0.133663  0  0.112646  0.128685  0  1.021457  0
H  H35  1  0.12724502  0.91841309  0.01068300  1  0  0.114178  0  0.950879  0  0  0.130059  0  1.019675  0  0  0.132033  0  1.017834  0  0.098324  0  0.112924  0.128544  0  1.021052  0
H  H36  1  0.62717976  0.92911517  0.98923081  1  0  0.113412  0  0.952123  0  0  0.130166  0  1.02011  0  0  0.132148  0  1.01827  0  0.133694  0  0.112632  0.128644  0  1.021483  0
H  H37  1  0.87275623  0.08158756  0.98931718  1  0  0.114158  0  0.950843  0  0  0.130035  0  1.019647  0  0  0.132008  0  1.017805  0  0.098331  0  0.112907  0.12852  0  1.021024  0
H  H38  1  0.21746010  0.18936061  0.00160866  1  0  0.108836  0  0.928758  0  0  0.131523  0  0.987087  0  0  0.132547  0  0.986478  0  0.085218  0  0.115442  0.130605  0  0.987765  0
H  H39  1  0.28257717  0.80902153  0.00156908  1  0  0.108785  0  0.929441  0  0  0.131414  0  0.987613  0  0  0.132419  0  0.987016  0  0.08487  0  0.115543  0.130483  0  0.988308  0
H  H40  1  0.78253829  0.81063887  0.99839171  1  0  0.108851  0  0.928751  0  0  0.131554  0  0.987066  0  0  0.132578  0  0.986455  0  0.085232  0  0.11546  0.130636  0  0.987743  0
H  H41  1  0.71742325  0.19097780  0.99843144  1  0  0.108803  0  0.929431  0  0  0.131432  0  0.987599  0  0  0.132436  0  0.987002  0  0.084877  0  0.115552  0.130501  0  0.988295  0
H  H42  1  0.38438746  0.23407391  0.98692951  1  0  0.094511  0  0.937218  0  0  0.114428  0  1.002781  0  0  0.114445  0  1.002838  0  0.051082  0  0.104445  0.114137  0  1.003118  0
H  H43  1  0.11564043  0.77894345  0.98711078  1  0  0.094344  0  0.937937  0  0  0.114211  0  1.003438  0  0  0.114193  0  1.003529  0  0.082476  0  0.104582  0.113949  0  1.003761  0
H  H44  1  0.61561175  0.76592612  0.01307130  1  0  0.094495  0  0.937223  0  0  0.114444  0  1.002761  0  0  0.114445  0  1.002831  0  0.051071  0  0.104452  0.114152  0  1.003096  0
H  H45  1  0.88435878  0.22105735  0.01288926  1  0  0.094388  0  0.937987  0  0  0.114255  0  1.003475  0  0  0.114237  0  1.003567  0  0.082476  0  0.104609  0.113994  0  1.003799  0
C  C46  1  0.56039018  0.77232577  0.59472857  1  0  -0.034532  0  3.661435  0  0  -0.075799  0  3.913652  0  0  -0.070718  0  3.929935  0  0.033869  0  -0.062853  -0.079557  0  3.903674  0
C  C47  1  0.93959566  0.63294646  0.59475626  1  0  -0.03546  0  3.662854  0  0  -0.076145  0  3.91482  0  0  -0.071128  0  3.93105  0  0.002605  0  -0.06282  -0.079215  0  3.904129  0
C  C48  1  0.43961025  0.22767435  0.40527117  1  0  -0.034556  0  3.661531  0  0  -0.0758  0  3.91373  0  0  -0.070718  0  3.930013  0  0.03382  0  -0.06286  -0.079558  0  3.903753  0
C  C49  1  0.06040476  0.36705365  0.40524348  1  0  -0.035518  0  3.662876  0  0  -0.076162  0  3.914846  0  0  -0.071144  0  3.931075  0  0.002596  0  -0.062827  -0.079233  0  3.904155  0
C  C50  1  0.61148621  0.71355504  0.79283603  1  0  -0.092464  0  3.674371  0  0  -0.126154  0  3.919607  0  0  -0.124044  0  3.936675  0  0.042967  0  -0.066588  -0.126174  0  3.906761  0
C  C51  1  0.88829105  0.49328008  0.79292816  1  0  -0.09187  0  3.670271  0  0  -0.124973  0  3.916111  0  0  -0.122857  0  3.933195  0  -0.04987  0  -0.067463  -0.125553  0  3.904023  0
C  C52  1  0.38851544  0.28644361  0.20716418  1  0  -0.092515  0  3.674354  0  0  -0.12621  0  3.919587  0  0  -0.124101  0  3.936657  0  0.042987  0  -0.066606  -0.126227  0  3.906738  0
C  C53  1  0.11170734  0.50671940  0.20707221  1  0  -0.09191  0  3.670263  0  0  -0.12503  0  3.916107  0  0  -0.122913  0  3.933191  0  -0.049956  0  -0.067465  -0.12561  0  3.904019  0
C  C54  1  0.48695497  0.66867466  0.63150972  1  0  -0.075675  0  3.780331  0  0  -0.053751  0  4.023189  0  0  -0.063917  0  4.046261  0  -0.089763  0  -0.014604  -0.047613  0  4.008009  0
C  C55  1  0.01298423  0.69974636  0.63153305  1  0  -0.075334  0  3.781692  0  0  -0.053479  0  4.024455  0  0  -0.063628  0  4.047539  0  -0.01381  0  -0.015225  -0.047574  0  4.009337  0
C  C56  1  0.51304463  0.33132490  0.36848957  1  0  -0.075658  0  3.780352  0  0  -0.053744  0  4.023195  0  0  -0.063909  0  4.046266  0  -0.089784  0  -0.014609  -0.047608  0  4.008019  0
C  C57  1  0.98701639  0.30025313  0.36846631  1  0  -0.075256  0  3.781734  0  0  -0.053477  0  4.024568  0  0  -0.063626  0  4.047652  0  -0.014219  0  -0.015233  -0.047571  0  4.009451  0
C  C58  1  0.62269960  0.79487970  0.67527600  1  0  -0.072221  0  3.761794  0  0  -0.04514  0  3.995747  0  0  -0.055386  0  4.020232  0  -0.05304  0  -0.013505  -0.038732  0  3.979517  0
C  C59  1  0.87711105  0.52976842  0.67533174  1  0  -0.072893  0  3.759332  0  0  -0.046652  0  3.994002  0  0  -0.056925  0  4.018526  0  0.009108  0  -0.013539  -0.040402  0  3.977911  0
C  C60  1  0.37730145  0.20512080  0.32472534  1  0  -0.07222  0  3.761852  0  0  -0.04514  0  3.9958  0  0  -0.055387  0  4.020286  0  -0.053047  0  -0.013509  -0.038733  0  3.97957  0
C  C61  1  0.12288957  0.47023108  0.32466763  1  0  -0.072877  0  3.759362  0  0  -0.046631  0  3.994014  0  0  -0.056902  0  4.018538  0  0.009177  0  -0.013534  -0.040381  0  3.977925  0
C  C62  1  0.69652827  0.91004311  0.63475259  1  0  0.683642  0  3.887862  0  0  0.631172  0  4.186684  0  0  0.665683  0  4.178723  0  1.594941  0  0.228817  0.607702  0  4.191688  0
C  C63  1  0.80329840  0.45523969  0.63474879  1  0  0.683105  0  3.886134  0  0  0.631541  0  4.183997  0  0  0.666047  0  4.17603  0  1.605674  0  0.22823  0.60808  0  4.188806  0
C  C64  1  0.30347216  0.08995778  0.36524638  1  0  0.683595  0  3.887885  0  0  0.631107  0  4.186735  0  0  0.665619  0  4.178773  0  1.594936  0  0.228799  0.607637  0  4.191737  0
C  C65  1  0.19670101  0.54475972  0.36525165  1  0  0.683144  0  3.886122  0  0  0.631571  0  4.183997  0  0  0.666073  0  4.176033  0  1.605676  0  0.228252  0.608109  0  4.188807  0
C  C66  1  0.47607487  0.58659629  0.74893631  1  0  -0.079477  0  3.640202  0  0  -0.114634  0  3.884681  0  0  -0.111688  0  3.900012  0  0.00284  0  -0.065569  -0.116119  0  3.87403  0
C  C67  1  0.02372290  0.66423971  0.74894166  1  0  -0.079898  0  3.644033  0  0  -0.11493  0  3.888449  0  0  -0.111973  0  3.903769  0  -0.020765  0  -0.065327  -0.116085  0  3.87749  0
C  C68  1  0.52392740  0.41340352  0.25106472  1  0  -0.07953  0  3.640339  0  0  -0.114693  0  3.884811  0  0  -0.111747  0  3.900143  0  0.002862  0  -0.065581  -0.116187  0  3.874147  0
C  C69  1  0.97627447  0.33576062  0.25105786  1  0  -0.079905  0  3.644137  0  0  -0.114928  0  3.888546  0  0  -0.111975  0  3.903873  0  -0.020358  0  -0.065306  -0.116083  0  3.877587  0
C  C70  1  0.51445680  0.53222078  0.94964356  1  0  -0.113372  0  3.900989  0  0  -0.112155  0  4.149867  0  0  -0.11521  0  4.180423  0  0.143059  0  -0.048457  -0.109989  0  4.129299  0
C  C71  1  0.98540478  0.51775286  0.94975329  1  0  -0.112725  0  3.900704  0  0  -0.111394  0  4.149551  0  0  -0.114439  0  4.180124  0  0.100173  0  -0.048141  -0.10951  0  4.12954  0
C  C72  1  0.48554811  0.46777703  0.05035649  1  0  -0.113342  0  3.900948  0  0  -0.112109  0  4.149815  0  0  -0.115165  0  4.180371  0  -0.581412  0  -0.048344  -0.109947  0  4.129249  0
C  C73  1  0.01458893  0.48225031  0.05024637  1  0  -0.112742  0  3.900663  0  0  -0.111413  0  4.149497  0  0  -0.114458  0  4.18007  0  -0.557188  0  -0.048156  -0.109533  0  4.129487  0
C  C74  1  0.53685248  0.60929185  0.83097351  1  0  0.103768  0  3.926114  0  0  0.121128  0  4.160606  0  0  0.12098  0  4.181503  0  0.054092  0  -0.004404  0.121074  0  4.145873  0
C  C75  1  0.96292603  0.55930392  0.83110122  1  0  0.102838  0  3.923833  0  0  0.119988  0  4.158767  0  0  0.119828  0  4.179676  0  0.10307  0  -0.004674  0.119862  0  4.144279  0
C  C76  1  0.46314897  0.39070819  0.16902630  1  0  0.103821  0  3.926063  0  0  0.121173  0  4.160557  0  0  0.121025  0  4.181456  0  0.05415  0  -0.004428  0.121117  0  4.145829  0
C  C77  1  0.03707216  0.44069618  0.16889953  1  0  0.102866  0  3.92381  0  0  0.120046  0  4.158706  0  0  0.119886  0  4.179613  0  0.10281  0  -0.004659  0.119921  0  4.144217  0
C  C78  1  0.41440525  0.65072568  0.54505439  1  0  0.689584  0  3.831704  0  0  0.636494  0  4.127499  0  0  0.672113  0  4.117311  0  1.555057  0  0.243034  0.612373  0  4.133729  0
C  C79  1  0.08569692  0.80430439  0.54511603  1  0  0.689655  0  3.833059  0  0  0.636164  0  4.12952  0  0  0.671774  0  4.119366  0  1.558266  0  0.242961  0.611993  0  4.135934  0
C  C80  1  0.58559416  0.34927450  0.45494527  1  0  0.689537  0  3.831722  0  0  0.636463  0  4.127501  0  0  0.672085  0  4.117309  0  1.555058  0  0.243  0.612342  0  4.133733  0
C  C81  1  0.91430351  0.19569572  0.45488371  1  0  0.689621  0  3.833064  0  0  0.636167  0  4.129502  0  0  0.671779  0  4.119348  0  1.558266  0  0.242972  0.611997  0  4.135915  0
C  C82  1  0.43092468  0.20336777  0.78407704  1  0  0.395639  0  3.815108  0  0  0.320603  0  4.106183  0  0  0.349024  0  4.105718  0  1.359894  0  0.18386  0.301477  0  4.105931  0
C  C83  1  0.06921213  0.01257786  0.78399195  1  0  0.395617  0  3.816737  0  0  0.320548  0  4.107876  0  0  0.348989  0  4.107379  0  1.372927  0  0.183704  0.301423  0  4.107596  0
C  C84  1  0.56907472  0.79663164  0.21592340  1  0  0.395571  0  3.815059  0  0  0.320585  0  4.106135  0  0  0.349009  0  4.105667  0  1.359882  0  0.183814  0.301459  0  4.105884  0
C  C85  1  0.93078708  0.98742217  0.21600886  1  0  0.395581  0  3.816691  0  0  0.320534  0  4.10779  0  0  0.348978  0  4.10729  0  1.372801  0  0.183701  0.301409  0  4.10751  0
C  C86  1  0.18583953  0.29767966  0.78322293  1  0  -0.182221  0  3.665019  0  0  -0.285651  0  3.916395  0  0  -0.28271  0  3.928757  0  0.211206  0  -0.133034  -0.287338  0  3.90809  0
C  C87  1  0.31435079  0.91925843  0.78315789  1  0  -0.181864  0  3.663013  0  0  -0.285364  0  3.91446  0  0  -0.282457  0  3.926884  0  0.249854  0  -0.13318  -0.287004  0  3.906023  0
C  C88  1  0.81415968  0.70232036  0.21677789  1  0  -0.182207  0  3.664965  0  0  -0.285602  0  3.916341  0  0  -0.28267  0  3.928701  0  0.253822  0  -0.133021  -0.28729  0  3.908038  0
C  C89  1  0.68564944  0.08074152  0.21684300  1  0  -0.181877  0  3.663032  0  0  -0.285379  0  3.914492  0  0  -0.282471  0  3.926915  0  0.249845  0  -0.133196  -0.287019  0  3.906055  0
C  C90  1  0.32304867  0.17594741  0.96781608  1  0  -0.169372  0  3.640627  0  0  -0.271457  0  3.886651  0  0  -0.266916  0  3.894773  0  0.229705  0  -0.126305  -0.274116  0  3.881261  0
C  C91  1  0.17701147  0.85627006  0.96780839  1  0  -0.16968  0  3.640382  0  0  -0.270572  0  3.88678  0  0  -0.265974  0  3.894888  0  0.207396  0  -0.126857  -0.273279  0  3.881398  0
C  C92  1  0.67695094  0.82405138  0.03218399  1  0  -0.169302  0  3.640584  0  0  -0.271415  0  3.886612  0  0  -0.266855  0  3.894747  0  0.22969  0  -0.126303  -0.274073  0  3.881219  0
C  C93  1  0.82298876  0.14373067  0.03219173  1  0  -0.169733  0  3.640378  0  0  -0.270618  0  3.886781  0  0  -0.266018  0  3.894888  0  0.207394  0  -0.126878  -0.273324  0  3.881395  0
N  N94  1  0.31604648  0.22075530  0.84328145  1  0  -0.087504  0  3.497291  0  0  0.016694  0  3.732529  0  0  -0.003816  0  3.757778  0  -1.236641  0  -0.278958  0.030415  0  3.71491  0
N  N95  1  0.18408100  0.93611437  0.84323029  1  0  -0.087089  0  3.496303  0  0  0.016528  0  3.732061  0  0  -0.003983  0  3.757273  0  -1.216642  0  -0.278361  0.030262  0  3.714431  0
N  N96  1  0.68395292  0.77924333  0.15671977  1  0  -0.087523  0  3.497225  0  0  0.016617  0  3.732536  0  0  -0.003898  0  3.757784  0  -1.236664  0  -0.278973  0.030338  0  3.714917  0
N  N97  1  0.81591942  0.06388419  0.15677100  1  0  -0.087034  0  3.496273  0  0  0.016573  0  3.732021  0  0  -0.003938  0  3.757231  0  -1.21663  0  -0.278329  0.030308  0  3.714388  0
O  O98  1  0.72004280  0.95010592  0.70686808  1  0  -0.701424  0  1.943928  0  0  -0.646628  0  2.184477  0  0  -0.672612  0  2.173386  0  -1.218614  0  -0.376577  -0.628308  0  2.191909  0
O  O99  1  0.77989415  0.34284112  0.70687514  1  0  -0.701846  0  1.944691  0  0  -0.647451  0  2.185239  0  0  -0.673386  0  2.17397  0  -1.226526  0  -0.376885  -0.628914  0  2.192649  0
O  O100  1  0.27995743  0.04989480  0.29313203  1  0  -0.701412  0  1.943958  0  0  -0.64661  0  2.18452  0  0  -0.672596  0  2.173429  0  -1.218612  0  -0.37658  -0.628292  0  2.191951  0
O  O101  1  0.22010526  0.65715907  0.29312452  1  0  -0.701855  0  1.944707  0  0  -0.647451  0  2.185257  0  0  -0.673388  0  2.173988  0  -1.22651  0  -0.376883  -0.628914  0  2.192666  0
O  O102  1  0.72777232  0.95946993  0.52727971  1  0  -0.610542  0  2.031043  0  0  -0.558112  0  2.260047  0  0  -0.584501  0  2.248149  0  -1.181719  0  -0.312436  -0.53988  0  2.266919  0
O  O103  1  0.77198522  0.51341845  0.52733399  1  0  -0.610751  0  2.027402  0  0  -0.55829  0  2.25556  0  0  -0.584662  0  2.243722  0  -1.183066  0  -0.3118  -0.5398  0  2.262238  0
O  O104  1  0.27222811  0.04053018  0.47272003  1  0  -0.610511  0  2.031051  0  0  -0.558077  0  2.260065  0  0  -0.584466  0  2.248167  0  -1.181702  0  -0.312424  -0.539845  0  2.266936  0
O  O105  1  0.22801623  0.48658159  0.47266582  1  0  -0.610743  0  2.027378  0  0  -0.558281  0  2.255545  0  0  -0.584654  0  2.243708  0  -1.183069  0  -0.311801  -0.539791  0  2.262224  0
O  O106  1  0.35610156  0.54692985  0.58699159  1  0  -0.562862  0  2.087303  0  0  -0.508865  0  2.31128  0  0  -0.533806  0  2.295183  0  -1.172051  0  -0.310736  -0.491727  0  2.320438  0
O  O107  1  0.14394850  0.86602739  0.58708682  1  0  -0.562782  0  2.085297  0  0  -0.509152  0  2.309871  0  0  -0.534112  0  2.293854  0  -1.185196  0  -0.310867  -0.491966  0  2.318772  0
O  O108  1  0.64389804  0.45306972  0.41300770  1  0  -0.562821  0  2.087238  0  0  -0.508858  0  2.311228  0  0  -0.533798  0  2.29513  0  -1.172048  0  -0.310727  -0.49172  0  2.320389  0
O  O109  1  0.85605193  0.13397272  0.41291292  1  0  -0.562796  0  2.085302  0  0  -0.509175  0  2.309864  0  0  -0.534135  0  2.293847  0  -1.185201  0  -0.310879  -0.491989  0  2.318766  0
O  O110  1  0.40968072  0.73377227  0.44124602  1  0  -0.670857  0  2.006808  0  0  -0.617371  0  2.254225  0  0  -0.64302  0  2.242477  0  -1.208635  0  -0.34974  -0.598794  0  2.261539  0
O  O111  1  0.09054628  0.82527095  0.44128494  1  0  -0.671468  0  2.008147  0  0  -0.617757  0  2.255929  0  0  -0.643453  0  2.244213  0  -1.195479  0  -0.350019  -0.59933  0  2.263492  0
O  O112  1  0.59031951  0.26623000  0.55875254  1  0  -0.670851  0  2.006858  0  0  -0.617372  0  2.254269  0  0  -0.643019  0  2.242511  0  -1.208624  0  -0.349728  -0.598796  0  2.261583  0
O  O113  1  0.90945415  0.17472839  0.55871557  1  0  -0.671473  0  2.008155  0  0  -0.617756  0  2.255898  0  0  -0.643449  0  2.244173  0  -1.195477  0  -0.350031  -0.599331  0  2.263462  0
O  O114  1  0.54884206  0.14509006  0.82919928  1  0  -0.60006  0  1.991882  0  0  -0.542447  0  2.23622  0  0  -0.567273  0  2.228509  0  -1.197727  0  -0.35085  -0.524806  0  2.241111  0
O  O115  1  0.95124977  0.02563520  0.82914242  1  0  -0.600218  0  1.991985  0  0  -0.542714  0  2.236404  0  0  -0.567529  0  2.22866  0  -1.202974  0  -0.351027  -0.525041  0  2.241274  0
O  O116  1  0.45115735  0.85490935  0.17080117  1  0  -0.600039  0  1.991851  0  0  -0.542427  0  2.236171  0  0  -0.567252  0  2.228459  0  -1.197735  0  -0.35082  -0.524786  0  2.241062  0
O  O117  1  0.04875207  0.97436283  0.17085742  1  0  -0.600239  0  1.991897  0  0  -0.542741  0  2.236295  0  0  -0.567557  0  2.22855  0  -1.202856  0  -0.351044  -0.525065  0  2.241167  0
