# generated using pymatgen
data_CoPH9C9N2O3
_symmetry_space_group_name_H-M   'P 1'
_cell_length_a   9.07941510
_cell_length_b   9.80119220
_cell_length_c   12.54173802
_cell_angle_alpha   90.98311695
_cell_angle_beta   111.21542357
_cell_angle_gamma   89.98086638
_symmetry_Int_Tables_number   1
_chemical_formula_structural   CoPH9C9N2O3
_chemical_formula_sum   'Co4 P4 H36 C36 N8 O12'
_cell_volume   1040.26346760
_cell_formula_units_Z   4
loop_
 _symmetry_equiv_pos_site_id
 _symmetry_equiv_pos_as_xyz
  1  'x, y, z'
loop_
 _atom_site_type_symbol
 _atom_site_label
 _atom_site_symmetry_multiplicity
 _atom_site_fract_x
 _atom_site_fract_y
 _atom_site_fract_z
 _atom_site_occupancy
 _atom_site_pbe_cm5_charge
 _atom_site_pbe_ddec_charge
 _atom_site_pbe_ddec_spin_density
 _atom_site_pbe_ddec_sum_bond_order
 _atom_site_pbe_magmom
Co  Co0  1  0.32665047  0.92093852  0.53215283  1  0.684501  0.970264  2.793163  2.487407  2.539
Co  Co1  1  0.79466846  0.57910500  0.46796913  1  0.684354  0.969828  2.793353  2.487406  2.54
Co  Co2  1  0.67334924  0.07906384  0.46784518  1  0.684489  0.970181  2.793167  2.487478  2.539
Co  Co3  1  0.20533479  0.42089631  0.53203298  1  0.684383  0.969843  2.793339  2.487394  2.54
P  P4  1  0.50676091  0.79628977  0.38810945  1  0.280084  1.201445  0.018726  5.496148  0.012
P  P5  1  0.11853578  0.70370319  0.61191985  1  0.279304  1.200398  0.018737  5.497638  0.012
P  P6  1  0.49323995  0.20370951  0.61189121  1  0.28008  1.201417  0.018726  5.496154  0.012
P  P7  1  0.88146748  0.29630017  0.38808070  1  0.279274  1.200307  0.018736  5.497738  0.012
H  H8  1  0.35749597  0.77833171  0.30066304  1  0.080248  -0.126378  0.004002  1.011702  0.005
H  H9  1  0.05666344  0.72187910  0.69934079  1  0.080325  -0.12616  0.004001  1.012059  0.005
H  H10  1  0.64250490  0.22166757  0.69933682  1  0.080239  -0.126378  0.004002  1.011706  0.005
H  H11  1  0.94334098  0.27812221  0.30066084  1  0.080321  -0.126165  0.004001  1.012065  0.005
H  H12  1  0.96459082  0.87062635  0.39851535  1  0.141215  0.126785  -8e-05  1.027128  0.001
H  H13  1  0.56626820  0.62959535  0.60173870  1  0.140945  0.125985  -8.4e-05  1.027944  0.001
H  H14  1  0.03541008  0.12937599  0.60148537  1  0.1412  0.126718  -8.1e-05  1.027218  0.001
H  H15  1  0.43373269  0.37040597  0.39826200  1  0.140941  0.125945  -8.4e-05  1.027991  0.001
H  H16  1  0.29321551  0.09354913  0.30177043  1  0.122181  0.123007  0.000104  1.010842  0.001
H  H17  1  0.99149576  0.40630825  0.69820511  1  0.122052  0.122942  0.000103  1.011018  0.001
H  H18  1  0.70678414  0.90644814  0.69822430  1  0.122208  0.123031  0.000104  1.010775  0.001
H  H19  1  0.00850512  0.59369307  0.30179479  1  0.122074  0.123024  0.000103  1.011092  0.001
H  H20  1  0.99823446  0.10011815  0.12481215  1  0.117584  0.117019  0.000383  1.036272  0.0
H  H21  1  0.87348273  0.39970525  0.87523715  1  0.117742  0.116964  0.000374  1.036156  0.0
H  H22  1  0.00176288  0.89988319  0.87518522  1  0.117577  0.116964  0.000383  1.036235  0.0
H  H23  1  0.12651815  0.60029504  0.12476433  1  0.11774  0.116965  0.000374  1.036231  0.0
H  H24  1  0.71212641  0.05715668  0.15005599  1  0.113972  0.107559  2.8e-05  0.993729  0.0
H  H25  1  0.56243124  0.44292625  0.85022479  1  0.114043  0.108044  3.6e-05  0.993287  0.0
H  H26  1  0.28787088  0.94283956  0.84994129  1  0.113954  0.107536  2.8e-05  0.993733  0.0
H  H27  1  0.43756607  0.55707202  0.14977413  1  0.114032  0.108049  3.6e-05  0.993307  0.0
H  H28  1  0.71563895  0.93235746  0.24960867  1  0.123814  0.12771  -0.000388  1.004369  0.0
H  H29  1  0.46620313  0.56765866  0.75062809  1  0.123601  0.127248  -0.000385  1.004552  0.0
H  H30  1  0.28436194  0.06764386  0.75039282  1  0.12382  0.127704  -0.000388  1.004389  0.0
H  H31  1  0.53379657  0.43234267  0.24937230  1  0.123606  0.127244  -0.000385  1.004575  0.0
H  H32  1  0.94975571  0.83510047  0.07949662  1  0.092619  0.086386  2.6e-05  1.057199  0.0
H  H33  1  0.87043192  0.66495096  0.92066334  1  0.092516  0.085931  2.6e-05  1.056794  0.0
H  H34  1  0.05024396  0.16489678  0.92050289  1  0.09264  0.086412  2.6e-05  1.057173  0.0
H  H35  1  0.12956188  0.33505037  0.07933550  1  0.09253  0.085927  2.6e-05  1.056738  0.0
H  H36  1  0.47508038  0.92996903  0.15327835  1  0.108304  0.119894  -6.7e-05  1.018541  0.0
H  H37  1  0.32184815  0.57049612  0.84675686  1  0.10866  0.120589  -7e-05  1.01808  0.0
H  H38  1  0.52491694  0.07003129  0.84671900  1  0.1083  0.119865  -6.7e-05  1.018459  0.0
H  H39  1  0.67815153  0.42950317  0.15324190  1  0.108662  0.120571  -7e-05  1.018061  0.0
H  H40  1  0.20535461  0.84243253  0.07725143  1  0.093168  0.08439  4.5e-05  1.035456  0.0
H  H41  1  0.12814162  0.65813343  0.92282409  1  0.09341  0.085097  4.3e-05  1.03556  0.0
H  H42  1  0.79464506  0.15756573  0.92274810  1  0.09316  0.084388  4.5e-05  1.035448  0.0
H  H43  1  0.87185571  0.34186688  0.07717566  1  0.093398  0.085073  4.3e-05  1.03557  0.0
C  C44  1  0.01502064  0.93347132  0.34949685  1  0.150972  0.111462  0.000911  3.871499  0.002
C  C45  1  0.66572630  0.56672230  0.65070672  1  0.151244  0.112378  0.000958  3.871807  0.002
C  C46  1  0.98498145  0.06653206  0.65050101  1  0.151  0.11148  0.000909  3.87158  0.002
C  C47  1  0.33427695  0.43328003  0.34929541  1  0.151271  0.112494  0.000958  3.871833  0.002
C  C48  1  0.18125425  0.04829965  0.29500849  1  -0.001226  -0.026299  1.4e-05  4.003307  0.001
C  C49  1  0.88634594  0.45164641  0.70503949  1  -0.001649  -0.027629  2e-05  4.004022  0.001
C  C50  1  0.81875134  0.95170066  0.70499023  1  -0.001211  -0.026342  1.5e-05  4.003403  0.001
C  C51  1  0.11365260  0.54835592  0.29496380  1  -0.00169  -0.027777  2e-05  4.003984  0.001
C  C52  1  0.03691261  0.05189437  0.20724579  1  -0.005795  -0.122152  0.003293  3.948189  0.004
C  C53  1  0.82980822  0.44803391  0.79283904  1  -0.005279  -0.120316  0.003287  3.944303  0.004
C  C54  1  0.96308119  0.94810800  0.79274828  1  -0.005854  -0.122124  0.003292  3.948265  0.004
C  C55  1  0.17019147  0.55196640  0.20715894  1  -0.005283  -0.120291  0.003287  3.94407  0.004
C  C56  1  0.76419570  0.95833274  0.18396852  1  -0.046059  -0.117244  0.000406  3.880561  0.001
C  C57  1  0.58043857  0.54172944  0.81625267  1  -0.045895  -0.117374  0.000405  3.88227  0.001
C  C58  1  0.23580398  0.04166655  0.81603103  1  -0.046032  -0.117184  0.000406  3.880528  0.001
C  C59  1  0.41956113  0.45827086  0.18374770  1  -0.045892  -0.117379  0.000406  3.882253  0.001
C  C60  1  0.72050387  0.85076837  0.08985372  1  -0.007529  0.051956  2.2e-05  3.946353  0.0
C  C61  1  0.63082751  0.64933776  0.91035038  1  -0.008289  0.051024  7.3e-05  3.947775  0.0
C  C62  1  0.27949933  0.14922784  0.91014909  1  -0.00752  0.051949  2.2e-05  3.946398  0.0
C  C63  1  0.36917217  0.35066049  0.08965154  1  -0.008292  0.05105  7.3e-05  3.94773  0.0
C  C64  1  0.82752958  0.79927836  0.04500361  1  -0.104508  -0.144516  5.8e-05  4.034011  0.0
C  C65  1  0.78264571  0.70079468  0.95515539  1  -0.103831  -0.143215  1e-05  4.033718  0.0
C  C66  1  0.17247123  0.20071581  0.95499775  1  -0.104545  -0.144591  5.8e-05  4.034059  0.0
C  C67  1  0.21735397  0.29920358  0.04484574  1  -0.103814  -0.143163  1e-05  4.033621  0.0
C  C68  1  0.56078053  0.80177066  0.04455949  1  -0.004123  0.031066  8e-05  3.949428  0.0
C  C69  1  0.51633235  0.69846032  0.95557995  1  -0.004568  0.030763  2.9e-05  3.951465  0.0
C  C70  1  0.43922032  0.19822759  0.95544354  1  -0.004179  0.031052  8e-05  3.949557  0.0
C  C71  1  0.48366614  0.30153692  0.04442165  1  -0.004567  0.030682  2.9e-05  3.95159  0.0
C  C72  1  0.44412320  0.85211688  0.08571748  1  -0.086992  -0.123062  0.000125  3.955794  0.0
C  C73  1  0.35850925  0.64826542  0.91437698  1  -0.087183  -0.124025  0.000228  3.957496  0.0
C  C74  1  0.55587297  0.14788545  0.91428439  1  -0.086959  -0.122983  0.000125  3.9557  0.0
C  C75  1  0.64148805  0.35173184  0.08562112  1  -0.087093  -0.123852  0.000228  3.957465  0.0
C  C76  1  0.29147414  0.80171156  0.04301784  1  -0.099967  -0.102254  9.8e-05  4.060271  0.0
C  C77  1  0.24852903  0.69870770  0.95707949  1  -0.100215  -0.102811  9.6e-05  4.06091  0.0
C  C78  1  0.70852671  0.19828568  0.95698198  1  -0.09996  -0.102278  9.8e-05  4.060137  0.0
C  C79  1  0.75146830  0.30129260  0.04292185  1  -0.100281  -0.102885  9.6e-05  4.060979  0.0
N  N80  1  0.16591550  0.97372293  0.38345419  1  -0.368186  -0.354352  0.032898  3.69862  0.042
N  N81  1  0.78259769  0.52636495  0.61666894  1  -0.367812  -0.353769  0.032857  3.69841  0.042
N  N82  1  0.83408537  0.02627739  0.61654170  1  -0.368172  -0.354272  0.032898  3.698473  0.042
N  N83  1  0.21740555  0.47363637  0.38333237  1  -0.367855  -0.353822  0.032858  3.698475  0.042
N  N84  1  0.93338466  0.97873368  0.24314181  1  -0.240991  0.055813  0.000759  3.777247  0.001
N  N85  1  0.69041901  0.52132802  0.75702105  1  -0.241219  0.055063  0.000762  3.777162  0.001
N  N86  1  0.06661386  0.02126764  0.75685747  1  -0.24103  0.055803  0.000759  3.777286  0.001
N  N87  1  0.30958423  0.47867328  0.24298186  1  -0.241169  0.055066  0.000763  3.777073  0.001
O  O88  1  0.48103779  0.80345919  0.50352885  1  -0.37999  -0.748115  0.049548  2.407847  0.069
O  O89  1  0.97743516  0.69679144  0.49647944  1  -0.37977  -0.747656  0.049475  2.407281  0.069
O  O90  1  0.51896191  0.19654214  0.49646994  1  -0.379988  -0.748073  0.049549  2.407785  0.069
O  O91  1  0.02256574  0.30321192  0.50352209  1  -0.379781  -0.747593  0.049474  2.407253  0.069
O  O92  1  0.60210638  0.67120960  0.37853246  1  -0.38163  -0.714847  0.048758  2.396151  0.072
O  O93  1  0.22372836  0.82853636  0.62155535  1  -0.381489  -0.714684  0.048769  2.396201  0.072
O  O94  1  0.39789686  0.32879172  0.62146726  1  -0.381628  -0.714817  0.048758  2.396118  0.072
O  O95  1  0.77627018  0.17146803  0.37844240  1  -0.381473  -0.714632  0.048769  2.396244  0.072
O  O96  1  0.57255263  0.93143549  0.36157968  1  -0.381387  -0.735081  0.046944  2.405687  0.067
O  O97  1  0.21051068  0.56834315  0.63841885  1  -0.381276  -0.735063  0.047047  2.405452  0.067
O  O98  1  0.42744944  0.06856583  0.63842133  1  -0.381371  -0.735108  0.046942  2.405746  0.067
O  O99  1  0.78949139  0.43165920  0.36158137  1  -0.381266  -0.735036  0.047047  2.405447  0.067
