# generated using pymatgen
data_ZnMoH9C10N3O4
_symmetry_space_group_name_H-M   'P 1'
_cell_length_a   6.37388997
_cell_length_b   9.50249504
_cell_length_c   22.19627978
_cell_angle_alpha   89.99965021
_cell_angle_beta   90.00008543
_cell_angle_gamma   107.96551166
_symmetry_Int_Tables_number   1
_chemical_formula_structural   ZnMoH9C10N3O4
_chemical_formula_sum   'Zn4 Mo4 H36 C40 N12 O16'
_cell_volume   1278.83225744
_cell_formula_units_Z   4
loop_
 _symmetry_equiv_pos_site_id
 _symmetry_equiv_pos_as_xyz
  1  'x, y, z'
loop_
 _atom_site_type_symbol
 _atom_site_label
 _atom_site_symmetry_multiplicity
 _atom_site_fract_x
 _atom_site_fract_y
 _atom_site_fract_z
 _atom_site_occupancy
 _atom_site_hle17_bader_spin_density
 _atom_site_hle17_ddec_charge
 _atom_site_hle17_ddec_spin_density
 _atom_site_hle17_ddec_sum_bond_order
 _atom_site_hle17_magmom
 _atom_site_hse06_10hf_bader_spin_density
 _atom_site_hse06_10hf_ddec_charge
 _atom_site_hse06_10hf_ddec_spin_density
 _atom_site_hse06_10hf_ddec_sum_bond_order
 _atom_site_hse06_10hf_magmom
 _atom_site_hse06_bader_spin_density
 _atom_site_hse06_ddec_charge
 _atom_site_hse06_ddec_spin_density
 _atom_site_hse06_ddec_sum_bond_order
 _atom_site_hse06_magmom
 _atom_site_pbe_bader_spin_density
 _atom_site_pbe_cm5_charge
 _atom_site_pbe_ddec_charge
 _atom_site_pbe_ddec_spin_density
 _atom_site_pbe_ddec_sum_bond_order
 _atom_site_pbe_magmom
Zn  Zn0  1  0.84039781  0.35622917  0.46834262  1  0  1.10977  0  1.895528  0  0  0.949469  0  2.369456  0  0  0.995715  0  2.312407  0  0  0.683759  0.917115  0  2.408558  0
Zn  Zn1  1  0.65960006  0.64376939  0.96834175  1  0  1.109765  0  1.895458  0  0  0.949482  0  2.369385  0  0  0.99571  0  2.312341  0  0  0.683764  0.91712  0  2.408483  0
Zn  Zn2  1  0.15960495  0.64377249  0.53165856  1  0  1.109771  0  1.895489  0  0  0.949494  0  2.369409  0  0  0.995726  0  2.312362  0  0  0.683756  0.917132  0  2.408499  0
Zn  Zn3  1  0.34039857  0.35622674  0.03165762  1  0  1.10975  0  1.895506  0  0  0.949457  0  2.369452  0  0  0.99569  0  2.312405  0  0  0.683748  0.917097  0  2.40855  0
Mo  Mo4  1  0.59052119  0.48412428  0.58267462  1  0  2.154656  0  4.249272  0  0  2.12551  0  4.848344  0  0  2.228717  0  4.805486  0  0  1.471228  2.055099  0  4.877582  0
Mo  Mo5  1  0.90947996  0.51587547  0.08267284  1  0  2.154619  0  4.249405  0  0  2.125486  0  4.848462  0  0  2.228697  0  4.805598  0  0  1.471213  2.055079  0  4.877647  0
Mo  Mo6  1  0.40947999  0.51587738  0.41732746  1  0  2.154601  0  4.249365  0  0  2.125459  0  4.848434  0  0  2.228672  0  4.805574  0  0  1.471216  2.055055  0  4.877672  0
Mo  Mo7  1  0.09051761  0.48412177  0.91732608  1  0  2.154715  0  4.24921  0  0  2.125578  0  4.848269  0  0  2.228784  0  4.805411  0  0  1.471246  2.055168  0  4.877454  0
H  H8  1  0.65762372  0.88780435  0.42840636  1  0  0.326734  0  0.917236  0  0  0.310036  0  0.977395  0  0  0.319009  0  0.969928  0  0  0.30191  0.303953  0  0.982288  0
H  H9  1  0.84237316  0.11219590  0.92840652  1  0  0.326728  0  0.917262  0  0  0.310045  0  0.977394  0  0  0.31902  0  0.969927  0  0  0.301894  0.303946  0  0.982296  0
H  H10  1  0.34237696  0.11219621  0.57159346  1  0  0.326738  0  0.917206  0  0  0.310068  0  0.977309  0  0  0.319041  0  0.969845  0  0  0.301907  0.303968  0  0.982207  0
H  H11  1  0.15762387  0.88780356  0.07159285  1  0  0.326712  0  0.917225  0  0  0.310033  0  0.977361  0  0  0.319008  0  0.969892  0  0  0.301902  0.30394  0  0.982262  0
H  H12  1  0.88407481  0.43424118  0.34233312  1  0  0.076866  0  0.923846  0  0  0.087166  0  0.983614  0  0  0.089541  0  0.981004  0  0  0.121165  0.085523  0  0.985234  0
H  H13  1  0.61593107  0.56576253  0.84233244  1  0  0.076724  0  0.923953  0  0  0.0871  0  0.983635  0  0  0.089477  0  0.981019  0  0  0.121129  0.085455  0  0.985256  0
H  H14  1  0.11592795  0.56576048  0.65766625  1  0  0.076715  0  0.92397  0  0  0.087085  0  0.983654  0  0  0.089462  0  0.981039  0  0  0.121128  0.08544  0  0.985274  0
H  H15  1  0.38407274  0.43423802  0.15766738  1  0  0.076741  0  0.923947  0  0  0.087099  0  0.983658  0  0  0.089477  0  0.98104  0  0  0.121141  0.085454  0  0.985278  0
H  H16  1  0.80846993  0.31803763  0.24030670  1  0  0.133629  0  0.967269  0  0  0.145546  0  1.0217  0  0  0.149606  0  1.020043  0  0  0.106933  0.142671  0  1.023075  0
H  H17  1  0.69153711  0.68197310  0.74030710  1  0  0.133647  0  0.96708  0  0  0.145552  0  1.021524  0  0  0.149611  0  1.019868  0  0  0.10691  0.142677  0  1.022899  0
H  H18  1  0.19153647  0.68196514  0.75969448  1  0  0.133661  0  0.967228  0  0  0.145577  0  1.021655  0  0  0.149636  0  1.020001  0  0  0.106935  0.142702  0  1.023034  0
H  H19  1  0.30846722  0.31802856  0.25969272  1  0  0.133612  0  0.967179  0  0  0.145531  0  1.021607  0  0  0.149589  0  1.019953  0  0  0.106916  0.142658  0  1.02298  0
H  H20  1  0.67807297  0.03906324  0.23483314  1  0  0.080464  0  0.967678  0  0  0.094916  0  1.024741  0  0  0.096838  0  1.023523  0  0  0.103346  0.093498  0  1.025573  0
H  H21  1  0.82192521  0.96094536  0.73483513  1  0  0.080456  0  0.967808  0  0  0.094962  0  1.02481  0  0  0.096883  0  1.023594  0  0  0.103351  0.093548  0  1.025633  0
H  H22  1  0.32192559  0.96093953  0.76516578  1  0  0.080505  0  0.967754  0  0  0.094965  0  1.02481  0  0  0.096887  0  1.023593  0  0  0.10336  0.093558  0  1.02563  0
H  H23  1  0.17807022  0.03905742  0.26516469  1  0  0.080475  0  0.967757  0  0  0.094954  0  1.024791  0  0  0.096877  0  1.023574  0  0  0.103357  0.093547  0  1.025609  0
H  H24  1  0.63360873  0.89157362  0.33032099  1  0  0.131629  0  0.944248  0  0  0.144483  0  0.996041  0  0  0.148781  0  0.994092  0  0  0.113  0.141628  0  0.997271  0
H  H25  1  0.86639246  0.10843026  0.83032388  1  0  0.131648  0  0.944347  0  0  0.144546  0  0.996063  0  0  0.148802  0  0.994167  0  0  0.11299  0.141687  0  0.997293  0
H  H26  1  0.36639614  0.10842582  0.66967793  1  0  0.131582  0  0.944331  0  0  0.144475  0  0.996081  0  0  0.14875  0  0.994161  0  0  0.112996  0.141619  0  0.997311  0
H  H27  1  0.13360194  0.89157030  0.16967730  1  0  0.131629  0  0.94439  0  0  0.144565  0  0.99606  0  0  0.148796  0  0.994194  0  0  0.113001  0.141709  0  0.99729  0
H  H28  1  0.66818931  0.80019916  0.51784759  1  0  0.130718  0  0.98274  0  0  0.137549  0  1.047853  0  0  0.141689  0  1.045808  0  0  0.107532  0.134493  0  1.049838  0
H  H29  1  0.83181562  0.19979931  0.01784886  1  0  0.130737  0  0.982753  0  0  0.137573  0  1.047845  0  0  0.141714  0  1.045803  0  0  0.107543  0.134518  0  1.049832  0
H  H30  1  0.33181712  0.19980028  0.48215178  1  0  0.130735  0  0.982723  0  0  0.137574  0  1.047825  0  0  0.141713  0  1.045784  0  0  0.107542  0.134521  0  1.049812  0
H  H31  1  0.16817827  0.80020015  0.98215141  1  0  0.130745  0  0.982725  0  0  0.137584  0  1.047817  0  0  0.141723  0  1.045776  0  0  0.107549  0.134529  0  1.049805  0
H  H32  1  0.74640193  0.83953891  0.62696224  1  0  0.101944  0  0.933472  0  0  0.114692  0  0.990981  0  0  0.116794  0  0.989799  0  0  0.111062  0.112937  0  0.992311  0
H  H33  1  0.75360702  0.16045686  0.12696402  1  0  0.101904  0  0.933373  0  0  0.114653  0  0.990906  0  0  0.116755  0  0.989721  0  0  0.111038  0.112899  0  0.992241  0
H  H34  1  0.25360242  0.16045943  0.37303668  1  0  0.101886  0  0.933415  0  0  0.114635  0  0.990947  0  0  0.116735  0  0.989764  0  0  0.11105  0.112885  0  0.992282  0
H  H35  1  0.24638793  0.83954149  0.87303580  1  0  0.101892  0  0.933358  0  0  0.114642  0  0.990889  0  0  0.116744  0  0.989706  0  0  0.111039  0.112887  0  0.992226  0
H  H36  1  0.89914388  0.10605475  0.66533002  1  0  0.097186  0  0.957112  0  0  0.111943  0  1.009681  0  0  0.114615  0  1.009647  0  0  0.105694  0.110087  0  1.009786  0
H  H37  1  0.60085614  0.89393826  0.16533072  1  0  0.097236  0  0.957113  0  0  0.111967  0  1.009708  0  0  0.114638  0  1.009676  0  0  0.105699  0.11011  0  1.009815  0
H  H38  1  0.10085318  0.89394139  0.33466980  1  0  0.097218  0  0.957045  0  0  0.111958  0  1.009637  0  0  0.11463  0  1.009603  0  0  0.105697  0.110102  0  1.009747  0
H  H39  1  0.39914143  0.10605898  0.83466865  1  0  0.097192  0  0.957148  0  0  0.111951  0  1.009716  0  0  0.114623  0  1.009682  0  0  0.105703  0.110094  0  1.009822  0
H  H40  1  0.94326126  0.30974740  0.59196522  1  0  0.078644  0  0.964395  0  0  0.088581  0  1.026813  0  0  0.090986  0  1.024009  0  0  0.116148  0.086595  0  1.029156  0
H  H41  1  0.55673050  0.69024891  0.09196418  1  0  0.078671  0  0.964362  0  0  0.088579  0  1.026808  0  0  0.091003  0  1.023981  0  0  0.116125  0.086592  0  1.029148  0
H  H42  1  0.05673318  0.69024985  0.40803641  1  0  0.078695  0  0.964335  0  0  0.088603  0  1.026783  0  0  0.091024  0  1.023959  0  0  0.116148  0.086615  0  1.029124  0
H  H43  1  0.44327174  0.30975164  0.90803474  1  0  0.078619  0  0.964374  0  0  0.088543  0  1.026808  0  0  0.090955  0  1.023996  0  0  0.116118  0.086556  0  1.029149  0
C  C44  1  0.82812369  0.31441153  0.33702111  1  0  0.165463  0  3.708705  0  0  0.13146  0  3.965404  0  0  0.14012  0  3.983218  0  0  0.051434  0.125961  0  3.953015  0
C  C45  1  0.67188165  0.68559447  0.83702150  1  0  0.165615  0  3.708686  0  0  0.131561  0  3.965354  0  0  0.140221  0  3.983168  0  0  0.051478  0.12606  0  3.952961  0
C  C46  1  0.17188220  0.68559013  0.66297961  1  0  0.165599  0  3.708672  0  0  0.131557  0  3.96534  0  0  0.140218  0  3.983154  0  0  0.051465  0.126057  0  3.952943  0
C  C47  1  0.32811953  0.31440719  0.16297877  1  0  0.165561  0  3.708719  0  0  0.131507  0  3.965394  0  0  0.140167  0  3.983204  0  0  0.051458  0.126007  0  3.953  0
C  C48  1  0.78596491  0.24983428  0.28073518  1  0  -0.143234  0  3.725311  0  0  -0.156011  0  3.973921  0  0  -0.16556  0  3.996594  0  0  -0.091382  -0.149963  0  3.958634  0
C  C49  1  0.71403793  0.75017033  0.78073631  1  0  -0.143142  0  3.725043  0  0  -0.155895  0  3.973637  0  0  -0.165442  0  3.996312  0  0  -0.091289  -0.149842  0  3.958345  0
C  C50  1  0.21403525  0.75016517  0.71926554  1  0  -0.143266  0  3.725187  0  0  -0.156049  0  3.973816  0  0  -0.165598  0  3.996489  0  0  -0.091381  -0.149999  0  3.958528  0
C  C51  1  0.28596325  0.24983134  0.21926441  1  0  -0.143194  0  3.725128  0  0  -0.155969  0  3.97375  0  0  -0.165517  0  3.996425  0  0  -0.091358  -0.149921  0  3.958462  0
C  C52  1  0.71414953  0.09487374  0.27817052  1  0  0.008329  0  3.777451  0  0  -0.011523  0  4.029717  0  0  -0.006061  0  4.049445  0  0  -0.070953  -0.014546  0  4.016027  0
C  C53  1  0.78585172  0.90513423  0.77817083  1  0  0.008214  0  3.777396  0  0  -0.011715  0  4.029712  0  0  -0.006252  0  4.049428  0  0  -0.071033  -0.014738  0  4.016013  0
C  C54  1  0.28585582  0.90513013  0.72183020  1  0  0.00824  0  3.777385  0  0  -0.011628  0  4.029692  0  0  -0.006164  0  4.049414  0  0  -0.071007  -0.014661  0  4.016005  0
C  C55  1  0.21414218  0.09486523  0.22182899  1  0  0.0083  0  3.777369  0  0  -0.01161  0  4.029694  0  0  -0.006143  0  4.0494  0  0  -0.071  -0.014637  0  4.016  0
C  C56  1  0.68934414  0.01222061  0.33046677  1  0  -0.229468  0  3.708058  0  0  -0.245428  0  3.958815  0  0  -0.256524  0  3.979167  0  0  -0.093311  -0.238524  0  3.945207  0
C  C57  1  0.81065805  0.98778881  0.83046913  1  0  -0.229363  0  3.708106  0  0  -0.245348  0  3.958834  0  0  -0.256406  0  3.979206  0  0  -0.093246  -0.238447  0  3.94523  0
C  C58  1  0.31066019  0.98778105  0.66953215  1  0  -0.229379  0  3.708058  0  0  -0.245385  0  3.95884  0  0  -0.256464  0  3.979203  0  0  -0.093297  -0.238487  0  3.945241  0
C  C59  1  0.18933792  0.01221175  0.16953069  1  0  -0.22944  0  3.708263  0  0  -0.245457  0  3.958969  0  0  -0.256486  0  3.979361  0  0  -0.093247  -0.238555  0  3.945367  0
C  C60  1  0.73749965  0.08702826  0.38623549  1  0  0.423461  0  3.803523  0  0  0.394578  0  4.059235  0  0  0.412597  0  4.076044  0  0  0.229835  0.382713  0  4.047642  0
C  C61  1  0.76249729  0.91297260  0.88623532  1  0  0.423276  0  3.803701  0  0  0.394405  0  4.059387  0  0  0.412415  0  4.076201  0  0  0.229766  0.382518  0  4.047792  0
C  C62  1  0.26250259  0.91297229  0.61376568  1  0  0.423467  0  3.803508  0  0  0.394574  0  4.059231  0  0  0.412601  0  4.076026  0  0  0.229825  0.382682  0  4.047628  0
C  C63  1  0.23749817  0.08702685  0.11376450  1  0  0.423236  0  3.803726  0  0  0.394367  0  4.059411  0  0  0.412358  0  4.076247  0  0  0.229709  0.382487  0  4.047814  0
C  C64  1  0.76098541  0.03371425  0.49716857  1  0  0.428886  0  3.781479  0  0  0.397247  0  4.040375  0  0  0.416921  0  4.055291  0  0  0.230277  0.384289  0  4.030191  0
C  C65  1  0.73901344  0.96628610  0.99716780  1  0  0.428979  0  3.781495  0  0  0.397365  0  4.040357  0  0  0.417026  0  4.055268  0  0  0.230307  0.384388  0  4.030171  0
C  C66  1  0.23902100  0.96628851  0.50283215  1  0  0.428907  0  3.781445  0  0  0.39727  0  4.040379  0  0  0.416928  0  4.055292  0  0  0.230282  0.384291  0  4.030189  0
C  C67  1  0.26098096  0.03371446  0.00283112  1  0  0.428908  0  3.781395  0  0  0.397306  0  4.040265  0  0  0.416965  0  4.05518  0  0  0.230274  0.384336  0  4.030079  0
C  C68  1  0.73033510  0.91155411  0.53623703  1  0  -0.211985  0  3.66444  0  0  -0.231146  0  3.923401  0  0  -0.241513  0  3.940956  0  0  -0.096885  -0.224666  0  3.912415  0
C  C69  1  0.76966455  0.08844631  0.03623721  1  0  -0.212024  0  3.664372  0  0  -0.23123  0  3.923419  0  0  -0.241599  0  3.940977  0  0  -0.096877  -0.224747  0  3.912443  0
C  C70  1  0.26967133  0.08844533  0.46376234  1  0  -0.212039  0  3.66439  0  0  -0.231253  0  3.923462  0  0  -0.241624  0  3.941025  0  0  -0.09691  -0.224772  0  3.91249  0
C  C71  1  0.23032672  0.91155426  0.96376171  1  0  -0.212016  0  3.664352  0  0  -0.231249  0  3.923431  0  0  -0.241617  0  3.940991  0  0  -0.096895  -0.22477  0  3.912455  0
C  C72  1  0.77402957  0.93459515  0.59693817  1  0  0.02074  0  3.730985  0  0  -0.003273  0  3.992294  0  0  0.004338  0  4.00842  0  0  -0.070766  -0.00796  0  3.981807  0
C  C73  1  0.72597315  0.06540107  0.09693884  1  0  0.020786  0  3.730941  0  0  -0.003232  0  3.99224  0  0  0.00438  0  4.008363  0  0  -0.070764  -0.00792  0  3.981761  0
C  C74  1  0.22597584  0.06540208  0.40306120  1  0  0.020877  0  3.730823  0  0  -0.003124  0  3.992117  0  0  0.004489  0  4.008242  0  0  -0.070721  -0.007817  0  3.981645  0
C  C75  1  0.27402074  0.93459839  0.90306098  1  0  0.020833  0  3.730892  0  0  -0.003172  0  3.992184  0  0  0.004439  0  4.00831  0  0  -0.070737  -0.007858  0  3.981702  0
C  C76  1  0.85543741  0.08025391  0.61835190  1  0  -0.151407  0  3.769455  0  0  -0.169024  0  4.032724  0  0  -0.178407  0  4.054754  0  0  -0.100345  -0.163087  0  4.0179  0
C  C77  1  0.64456164  0.91974089  0.11835255  1  0  -0.15134  0  3.769606  0  0  -0.168916  0  4.03282  0  0  -0.1783  0  4.054862  0  0  -0.100308  -0.162979  0  4.017997  0
C  C78  1  0.14456384  0.91974111  0.38164792  1  0  -0.151372  0  3.769483  0  0  -0.168971  0  4.032719  0  0  -0.178354  0  4.054757  0  0  -0.100319  -0.163035  0  4.017905  0
C  C79  1  0.35543593  0.08025635  0.88164682  1  0  -0.151383  0  3.769577  0  0  -0.168996  0  4.032821  0  0  -0.178379  0  4.054858  0  0  -0.100346  -0.163056  0  4.017995  0
C  C80  1  0.88196621  0.19458434  0.57795220  1  0  0.154568  0  3.715868  0  0  0.120242  0  3.970284  0  0  0.12982  0  3.987326  0  0  0.041102  0.114297  0  3.958717  0
C  C81  1  0.61802659  0.80541438  0.07795178  1  0  0.154375  0  3.716044  0  0  0.120097  0  3.970435  0  0  0.129647  0  3.987467  0  0  0.041063  0.114156  0  3.958869  0
C  C82  1  0.11803446  0.80541622  0.42204898  1  0  0.154435  0  3.716009  0  0  0.120163  0  3.97041  0  0  0.129715  0  3.987442  0  0  0.041086  0.114222  0  3.958844  0
C  C83  1  0.38197146  0.19458728  0.92204624  1  0  0.154596  0  3.715873  0  0  0.120307  0  3.970277  0  0  0.129865  0  3.98731  0  0  0.041131  0.114363  0  3.958712  0
N  N84  1  0.80437798  0.23596905  0.38884836  1  0  -0.439433  0  3.249833  0  0  -0.365575  0  3.528646  0  0  -0.387087  0  3.540921  0  0  -0.340311  -0.351149  0  3.520099  0
N  N85  1  0.69562574  0.76403287  0.88884946  1  0  -0.439407  0  3.249787  0  0  -0.365576  0  3.528623  0  0  -0.387084  0  3.540906  0  0  -0.340344  -0.351157  0  3.520086  0
N  N86  1  0.19562583  0.76403150  0.61115101  1  0  -0.439383  0  3.249672  0  0  -0.365541  0  3.528518  0  0  -0.387045  0  3.540766  0  0  -0.34029  -0.351118  0  3.519971  0
N  N87  1  0.30437442  0.23596658  0.11115127  1  0  -0.439323  0  3.249729  0  0  -0.365462  0  3.528506  0  0  -0.386969  0  3.540812  0  0  -0.340296  -0.35104  0  3.519963  0
N  N88  1  0.71250444  0.00120389  0.43741535  1  0  -0.471338  0  3.353858  0  0  -0.408291  0  3.581724  0  0  -0.432774  0  3.593208  0  0  -0.391915  -0.391644  0  3.573602  0
N  N89  1  0.78749658  0.99879844  0.93741587  1  0  -0.471365  0  3.353982  0  0  -0.408318  0  3.58178  0  0  -0.432803  0  3.593274  0  0  -0.391879  -0.391606  0  3.573606  0
N  N90  1  0.28750145  0.99879777  0.56258492  1  0  -0.471416  0  3.353863  0  0  -0.408356  0  3.581702  0  0  -0.432844  0  3.593187  0  0  -0.391918  -0.391633  0  3.573518  0
N  N91  1  0.21250304  0.00120322  0.06258396  1  0  -0.471218  0  3.353806  0  0  -0.408182  0  3.581605  0  0  -0.432659  0  3.593106  0  0  -0.391839  -0.391495  0  3.573449  0
N  N92  1  0.83198935  0.17396391  0.51850982  1  0  -0.441043  0  3.225153  0  0  -0.361547  0  3.506525  0  0  -0.383566  0  3.516595  0  0  -0.342348  -0.346425  0  3.499511  0
N  N93  1  0.66800512  0.82603567  0.01851028  1  0  -0.441024  0  3.225218  0  0  -0.361584  0  3.506604  0  0  -0.383556  0  3.516636  0  0  -0.342362  -0.346461  0  3.499591  0
N  N94  1  0.16801289  0.82603664  0.48149045  1  0  -0.44101  0  3.225129  0  0  -0.361584  0  3.506575  0  0  -0.383556  0  3.516604  0  0  -0.342352  -0.346459  0  3.499558  0
N  N95  1  0.33199191  0.17396378  0.98148910  1  0  -0.441115  0  3.225162  0  0  -0.361683  0  3.506576  0  0  -0.383651  0  3.516598  0  0  -0.342355  -0.34656  0  3.499565  0
O  O96  1  0.86150978  0.50037385  0.54790306  1  0  -0.977606  0  1.786757  0  0  -0.911786  0  2.12886  0  0  -0.952028  0  2.10352  0  0  -0.581826  -0.883224  0  2.145677  0
O  O97  1  0.63849507  0.49962751  0.04789986  1  0  -0.977537  0  1.78671  0  0  -0.911727  0  2.128825  0  0  -0.95197  0  2.10349  0  0  -0.581804  -0.883162  0  2.145632  0
O  O98  1  0.13849611  0.49962781  0.45209991  1  0  -0.977578  0  1.786775  0  0  -0.911768  0  2.128889  0  0  -0.952015  0  2.103557  0  0  -0.581822  -0.883206  0  2.145709  0
O  O99  1  0.36150301  0.50037084  0.95209952  1  0  -0.977563  0  1.786701  0  0  -0.911754  0  2.128818  0  0  -0.951993  0  2.103482  0  0  -0.58181  -0.883188  0  2.145623  0
O  O100  1  0.64327012  0.55697066  0.65449963  1  0  -0.77333  0  1.416804  0  0  -0.760511  0  1.660816  0  0  -0.790786  0  1.649054  0  0  -0.559348  -0.740033  0  1.66878  0
O  O101  1  0.85672829  0.44302915  0.15449802  1  0  -0.773284  0  1.416838  0  0  -0.760457  0  1.660836  0  0  -0.790731  0  1.649072  0  0  -0.559313  -0.739973  0  1.668775  0
O  O102  1  0.35673056  0.44302989  0.34550199  1  0  -0.773241  0  1.416781  0  0  -0.760408  0  1.660766  0  0  -0.790687  0  1.649004  0  0  -0.559311  -0.739936  0  1.668736  0
O  O103  1  0.14326822  0.55696920  0.84550090  1  0  -0.773324  0  1.416793  0  0  -0.760501  0  1.660797  0  0  -0.790775  0  1.649035  0  0  -0.559351  -0.740015  0  1.668737  0
O  O104  1  0.43559922  0.29649712  0.58930702  1  0  -0.835479  0  1.512002  0  0  -0.819816  0  1.778663  0  0  -0.852073  0  1.766675  0  0  -0.570427  -0.797846  0  1.786162  0
O  O105  1  0.06440157  0.70350238  0.08930460  1  0  -0.835493  0  1.512042  0  0  -0.819844  0  1.778728  0  0  -0.852097  0  1.766731  0  0  -0.570444  -0.797868  0  1.786207  0
O  O106  1  0.56440302  0.70350343  0.41069415  1  0  -0.835492  0  1.512057  0  0  -0.81982  0  1.77873  0  0  -0.852079  0  1.766745  0  0  -0.570434  -0.797843  0  1.786216  0
O  O107  1  0.93559443  0.29649486  0.91069432  1  0  -0.83552  0  1.512015  0  0  -0.81986  0  1.77869  0  0  -0.852113  0  1.766699  0  0  -0.570431  -0.79788  0  1.786164  0
O  O108  1  0.43432341  0.58744600  0.54516411  1  0  -0.949391  0  1.764908  0  0  -0.909504  0  2.102243  0  0  -0.949747  0  2.083835  0  0  -0.584625  -0.881823  0  2.114968  0
O  O109  1  0.06567903  0.41255414  0.04516335  1  0  -0.949387  0  1.764959  0  0  -0.909508  0  2.1023  0  0  -0.949744  0  2.083881  0  0  -0.584612  -0.881826  0  2.115017  0
O  O110  1  0.56567935  0.41255566  0.45483752  1  0  -0.94943  0  1.76498  0  0  -0.909559  0  2.10234  0  0  -0.949766  0  2.083851  0  0  -0.584631  -0.881877  0  2.115072  0
O  O111  1  0.93432219  0.58744420  0.95483647  1  0  -0.94943  0  1.764955  0  0  -0.909546  0  2.102281  0  0  -0.949766  0  2.083831  0  0  -0.584606  -0.881862  0  2.114995  0
