# generated using pymatgen
data_Zn4H16C40N4O13F8
_symmetry_space_group_name_H-M   'P 1'
_cell_length_a   23.83851663
_cell_length_b   23.84057481
_cell_length_c   23.83847829
_cell_angle_alpha   67.00013297
_cell_angle_beta   72.27227257
_cell_angle_gamma   107.74116993
_symmetry_Int_Tables_number   1
_chemical_formula_structural   Zn4H16C40N4O13F8
_chemical_formula_sum   'Zn8 H32 C80 N8 O26 F16'
_cell_volume   10399.81945475
_cell_formula_units_Z   2
loop_
 _symmetry_equiv_pos_site_id
 _symmetry_equiv_pos_as_xyz
  1  'x, y, z'
loop_
 _atom_site_type_symbol
 _atom_site_label
 _atom_site_symmetry_multiplicity
 _atom_site_fract_x
 _atom_site_fract_y
 _atom_site_fract_z
 _atom_site_occupancy
 _atom_site_pbe_bader_charge
 _atom_site_pbe_bader_spin_density
 _atom_site_pbe_cm5_charge
 _atom_site_pbe_ddec_charge
 _atom_site_pbe_ddec_spin_density
 _atom_site_pbe_ddec_sum_bond_order
 _atom_site_pbe_magmom
Zn  Zn0  1  0.05695031  0.95704861  0.48708525  1  1.318782  0  0.674554  0.957562  0  2.389655  0
Zn  Zn1  1  0.05695001  0.09990757  0.45598267  1  1.315676  0  0.674627  0.95769  0  2.389666  0
Zn  Zn2  1  0.94305890  0.98709259  0.45702527  1  1.318633  0  0.674592  0.957726  0  2.389401  0
Zn  Zn3  1  0.94306625  0.95597524  0.59990366  1  1.315412  0  0.674605  0.957757  0  2.389489  0
Zn  Zn4  1  0.94413300  0.54403132  0.01291704  1  1.316897  0  0.674596  0.957669  0  2.38965  0
Zn  Zn5  1  0.05589657  0.51292024  0.04403439  1  1.316667  0  0.674696  0.957876  0  2.389209  0
Zn  Zn6  1  0.94412178  0.40010056  0.04296491  1  1.315653  0  0.674551  0.957666  0  2.389554  0
Zn  Zn7  1  0.05587665  0.54296233  0.90010121  1  1.315791  0  0.674574  0.957695  0  2.389487  0
H  H8  1  0.92233276  0.65122174  0.11377851  1  0.144423  0  0.121127  0.154825  0  0.97539  0
H  H9  1  0.07772723  0.61378780  0.15127504  1  0.143807  0  0.121158  0.154801  0  0.975164  0
H  H10  1  0.92413310  0.88918412  0.34717520  1  0.124077  0  0.120086  0.154228  0  0.975529  0
H  H11  1  0.07576403  0.84709833  0.38932205  1  0.122641  0  0.120142  0.154244  0  0.975742  0
H  H12  1  0.07770148  0.46390066  0.77108608  1  0.106622  0  0.121176  0.154891  0  0.97555  0
H  H13  1  0.92231799  0.27105493  0.96391981  1  0.105904  0  0.1212  0.154875  0  0.975281  0
H  H14  1  0.07578352  0.22868724  0.53494343  1  0.155907  0  0.120133  0.15416  0  0.975603  0
H  H15  1  0.92414583  0.03495551  0.72866169  1  0.127362  0  0.120113  0.154259  0  0.975534  0
H  H16  1  0.73641308  0.46508594  0.11071590  1  0.124461  0  0.120212  0.154192  0  0.975768  0
H  H17  1  0.73636242  0.27133367  0.15284280  1  0.126874  0  0.120081  0.15426  0  0.975553  0
H  H18  1  0.26503463  0.22894660  0.34874916  1  0.13485  0  0.121214  0.154919  0  0.97526  0
H  H19  1  0.26502371  0.03610514  0.38619025  1  0.163137  0  0.121192  0.154954  0  0.975387  0
H  H20  1  0.26363083  0.61072841  0.96507466  1  0.12451  0  0.120239  0.154177  0  0.975814  0
H  H21  1  0.26361532  0.65282829  0.77133561  1  0.126533  0  0.120148  0.154302  0  0.975573  0
H  H22  1  0.73499515  0.84878177  0.72890964  1  0.13466  0  0.121163  0.154859  0  0.975575  0
H  H23  1  0.73496784  0.88622822  0.53606461  1  0.162514  0  0.121135  0.154845  0  0.975309  0
H  H24  1  0.91643333  0.84195547  0.74988384  1  0.492908  0  0.290566  0.299764  0  1.004609  0
H  H25  1  0.90907026  0.80273484  0.83141967  1  0.431188  0  0.29636  0.283342  0  0.968335  0
H  H26  1  0.09183722  0.66630603  0.75012008  1  0.477342  0  0.290544  0.29966  0  1.004643  0
H  H27  1  0.13416271  0.74048100  0.66859390  1  0.436675  0  0.2963  0.28332  0  0.968365  0
H  H28  1  0.90816667  0.65805396  0.92552562  1  0.477723  0  0.290589  0.299765  0  1.004561  0
H  H29  1  0.86584887  0.69726849  0.89366540  1  0.43299  0  0.296371  0.283368  0  0.968373  0
H  H30  1  0.08359908  0.83370858  0.57447275  1  0.475576  0  0.29055  0.299642  0  1.004603  0
H  H31  1  0.09095800  0.75953752  0.60632227  1  0.432081  0  0.296423  0.283487  0  0.968326  0
H  H32  1  0.91641228  0.07448042  0.33367845  1  0.476283  0  0.290579  0.299673  0  1.004693  0
H  H33  1  0.90905477  0.10633891  0.25950159  1  0.431411  0  0.296374  0.283415  0  0.968369  0
H  H34  1  0.09184184  0.42552861  0.15808178  1  0.478659  0  0.290639  0.299789  0  1.004429  0
H  H35  1  0.13415495  0.39367085  0.19730973  1  0.432864  0  0.296419  0.283427  0  0.968186  0
H  H36  1  0.90816606  0.25012379  0.16629028  1  0.477374  0  0.290651  0.299878  0  1.004363  0
H  H37  1  0.86584444  0.16859490  0.24045793  1  0.436372  0  0.296331  0.283337  0  0.968336  0
H  H38  1  0.08358148  0.24988073  0.34197583  1  0.493747  0  0.290542  0.299654  0  1.004504  0
H  H39  1  0.09093697  0.33140778  0.30277414  1  0.431241  0  0.296302  0.283309  0  0.968168  0
C  C40  1  0.18202665  0.09102342  0.40897717  1  1.558432  0  0.230422  0.605528  0  4.158388  0
C  C41  1  0.00000137  0.13947999  0.36052146  1  1.481321  0  0.22275  0.624618  0  4.111796  0
C  C42  1  0.99998190  0.90960870  0.40963495  1  1.592888  0  0.228741  0.60683  0  4.157464  0
C  C43  1  0.81798291  0.90900116  0.59098918  1  1.557315  0  0.230544  0.605862  0  4.158117  0
C  C44  1  0.00001085  0.86052876  0.63947592  1  1.481177  0  0.222878  0.624989  0  4.111393  0
C  C45  1  0.99999054  0.09038914  0.59037875  1  1.600554  0  0.228649  0.606766  0  4.157637  0
C  C46  1  0.00002776  0.59099184  0.09103542  1  1.530239  0  0.230623  0.606131  0  4.157742  0
C  C47  1  0.00000617  0.36052322  0.13947998  1  1.474872  0  0.222883  0.625061  0  4.111147  0
C  C48  1  0.81924242  0.40962663  0.09037431  1  1.530072  0  0.228858  0.607293  0  4.157078  0
C  C49  1  0.00000294  0.40897877  0.90900658  1  1.550665  0  0.230357  0.605632  0  4.157928  0
C  C50  1  0.00000016  0.63947811  0.86052587  1  1.475015  0  0.222924  0.62498  0  4.111235  0
C  C51  1  0.18076721  0.59037054  0.90963216  1  1.529446  0  0.228942  0.607161  0  4.157274  0
C  C52  1  0.00000926  0.80457917  0.69542623  1  0.016559  0  -0.041187  -0.253865  0  3.951626  0
C  C53  1  0.00000287  0.69542829  0.80457414  1  -0.013738  0  -0.041233  -0.253948  0  3.951595  0
C  C54  1  0.95682678  0.77743389  0.76683424  1  0.44962  0  0.079624  0.175497  0  4.050118  0
C  C55  1  0.04427058  0.72365655  0.73316629  1  0.485024  0  0.079562  0.175494  0  4.050018  0
C  C56  1  0.95574110  0.72257494  0.82060904  1  0.400591  0  0.079551  0.175433  0  4.050175  0
C  C57  1  0.04319435  0.77635413  0.67939179  1  0.401147  0  0.079596  0.175309  0  4.049685  0
C  C58  1  0.99999735  0.19542903  0.30457892  1  0.016993  0  -0.041188  -0.253723  0  3.951361  0
C  C59  1  0.00000205  0.30457371  0.19543271  1  -0.013257  0  -0.041251  -0.253804  0  3.951458  0
C  C60  1  0.95681518  0.17939538  0.27634194  1  0.401184  0  0.079628  0.175538  0  4.049572  0
C  C61  1  0.04426781  0.32060932  0.22258850  1  0.400359  0  0.079498  0.175118  0  4.049723  0
C  C62  1  0.95573516  0.23316922  0.22365022  1  0.484555  0  0.079565  0.175369  0  4.049696  0
C  C63  1  0.04318120  0.26683472  0.27744748  1  0.441472  0  0.07946  0.1754  0  4.049602  0
C  C64  1  0.00002665  0.62857206  0.12860169  1  0.009608  0  -0.008189  0.021078  0  3.989639  0
C  C65  1  0.95626208  0.65656824  0.13551029  1  0.061106  0  -0.094829  -0.240218  0  3.979455  0
C  C66  1  0.95710218  0.69119662  0.17038923  1  0.442511  0  0.1138  0.275458  0  4.037072  0
C  C67  1  0.00000825  0.69967443  0.19971778  1  0.229644  0  -0.009977  -0.076844  0  4.125804  0
C  C68  1  0.04293847  0.67038546  0.19123263  1  0.440233  0  0.113615  0.27494  0  4.036637  0
C  C69  1  0.04378894  0.63550345  0.15660715  1  0.062088  0  -0.09494  -0.240079  0  3.979347  0
C  C70  1  0.99997037  0.73495178  0.23506685  1  -0.205785  0  -0.029625  -0.048623  0  4.119006  0
C  C71  1  0.99992834  0.76556414  0.26577529  1  -0.047386  0  -0.029942  -0.051399  0  4.120653  0
C  C72  1  0.99991098  0.80086367  0.30109726  1  0.111145  0  -0.008848  -0.07335  0  4.123924  0
C  C73  1  0.95788479  0.83129977  0.30844741  1  0.490429  0  0.113439  0.27458  0  4.035281  0
C  C74  1  0.95723145  0.86641781  0.34283348  1  0.05967  0  -0.095307  -0.242176  0  3.982092  0
C  C75  1  0.99995139  0.87202043  0.37212296  1  -0.040745  0  -0.010661  0.018719  0  3.991355  0
C  C76  1  0.04264598  0.84270658  0.36657288  1  0.095347  0  -0.095236  -0.242108  0  3.982083  0
C  C77  1  0.04194425  0.80824839  0.33153011  1  0.45947  0  0.113655  0.275533  0  4.034346  0
C  C78  1  0.00000817  0.37140422  0.87143222  1  0.013896  0  -0.008073  0.021142  0  3.990339  0
C  C79  1  0.04377307  0.40824769  0.79967426  1  0.094837  0  -0.095003  -0.24023  0  3.980289  0
C  C80  1  0.04291632  0.37252807  0.76588836  1  0.450863  0  0.113611  0.275088  0  4.037108  0
C  C81  1  0.99999600  0.30030911  0.80031791  1  0.217152  0  -0.009876  -0.076771  0  4.125802  0
C  C82  1  0.95708828  0.26586864  0.87253829  1  0.451441  0  0.113553  0.275143  0  4.037032  0
C  C83  1  0.95624825  0.29964540  0.90826752  1  0.095822  0  -0.094904  -0.240196  0  3.979947  0
C  C84  1  0.99996754  0.26499968  0.76499360  1  -0.205678  0  -0.029766  -0.048615  0  4.119202  0
C  C85  1  0.99994528  0.23434762  0.73432907  1  -0.047234  0  -0.029875  -0.051344  0  4.120563  0
C  C86  1  0.99993323  0.19903640  0.69901180  1  0.165703  0  -0.008751  -0.073389  0  4.1244  0
C  C87  1  0.04196542  0.23369671  0.62655825  1  0.416201  0  0.113668  0.275551  0  4.035757  0
C  C88  1  0.04266632  0.19995461  0.59080055  1  0.028396  0  -0.095372  -0.241953  0  3.982669  0
C  C89  1  0.99996618  0.12794866  0.62792665  1  0.014718  0  -0.01067  0.018595  0  3.991627  0
C  C90  1  0.95724576  0.09081868  0.69992716  1  0.059416  0  -0.095297  -0.242176  0  3.982343  0
C  C91  1  0.95790526  0.12658091  0.73366804  1  0.456346  0  0.11342  0.274725  0  4.035364  0
C  C92  1  0.74413992  0.37208619  0.12789582  1  0.02549  0  -0.010735  0.018641  0  3.991676  0
C  C93  1  0.70927608  0.40922831  0.13345126  1  0.108782  0  -0.095371  -0.242034  0  3.982382  0
C  C94  1  0.63977471  0.37349229  0.16848513  1  0.387102  0  0.113531  0.275147  0  4.034554  0
C  C95  1  0.60196363  0.30104143  0.19888956  1  0.184243  0  -0.008777  -0.072657  0  4.123707  0
C  C96  1  0.63974896  0.26636349  0.19155182  1  0.419667  0  0.113561  0.274406  0  4.035113  0
C  C97  1  0.70925172  0.30008600  0.15718319  1  0.132338  0  -0.095224  -0.242137  0  3.982398  0
C  C98  1  0.53134178  0.26573075  0.23419386  1  -0.021913  0  -0.03017  -0.052048  0  4.121163  0
C  C99  1  0.47001653  0.23503960  0.26490414  1  -0.132227  0  -0.029407  -0.049425  0  4.117781  0
C  C100  1  0.39938932  0.19970966  0.30026335  1  0.095988  0  -0.010044  -0.073298  0  4.120691  0
C  C101  1  0.36160109  0.23413854  0.30876203  1  0.395813  0  0.113696  0.274293  0  4.036167  0
C  C102  1  0.29209458  0.20035576  0.34340382  1  0.121609  0  -0.094875  -0.240377  0  3.980185  0
C  C103  1  0.25717166  0.12859634  0.37140230  1  -0.014606  0  -0.008217  0.021209  0  3.990008  0
C  C104  1  0.29209023  0.09175868  0.36446805  1  0.046421  0  -0.094978  -0.240465  0  3.979986  0
C  C105  1  0.36159829  0.12748462  0.32958587  1  0.446721  0  0.113755  0.274217  0  4.03622  0
C  C106  1  0.25587431  0.62789521  0.87208483  1  0.024845  0  -0.010576  0.018827  0  3.991084  0
C  C107  1  0.29075831  0.63345941  0.90921808  1  0.109482  0  -0.095498  -0.242165  0  3.982453  0
C  C108  1  0.36025829  0.66848877  0.87347159  1  0.388674  0  0.113632  0.275222  0  4.035016  0
C  C109  1  0.39804755  0.69889404  0.80101904  1  0.185906  0  -0.008732  -0.072694  0  4.123686  0
C  C110  1  0.36024434  0.69154189  0.76635173  1  0.418597  0  0.1133  0.273997  0  4.035429  0
C  C111  1  0.29074124  0.65717228  0.80008299  1  0.132728  0  -0.095371  -0.242212  0  3.98244  0
C  C112  1  0.46867244  0.73419835  0.76570458  1  -0.021194  0  -0.030125  -0.051817  0  4.121103  0
C  C113  1  0.52999117  0.76491218  0.73500918  1  -0.133073  0  -0.029483  -0.049538  0  4.11827  0
C  C114  1  0.60062198  0.80028066  0.69967273  1  0.094761  0  -0.009943  -0.073178  0  4.120597  0
C  C115  1  0.63842064  0.80878485  0.73410209  1  0.398074  0  0.113837  0.274321  0  4.036343  0
C  C116  1  0.70792764  0.84343671  0.70031742  1  0.121707  0  -0.094977  -0.24035  0  3.980394  0
C  C117  1  0.74283720  0.87143377  0.62855831  1  -0.014344  0  -0.008114  0.021053  0  3.990473  0
C  C118  1  0.70791032  0.86450419  0.59171891  1  0.046028  0  -0.094913  -0.240205  0  3.980362  0
C  C119  1  0.63840284  0.82960836  0.62744498  1  0.445855  0  0.113576  0.273912  0  4.036073  0
N  N120  1  0.91209421  0.80000249  0.78910424  1  -1.250453  0  -0.611951  -0.617303  0  3.334368  0
N  N121  1  0.08911046  0.70119578  0.71089812  1  -1.232683  0  -0.611849  -0.617159  0  3.334524  0
N  N122  1  0.91089832  0.70000467  0.88790915  1  -1.249769  0  -0.611946  -0.617327  0  3.334345  0
N  N123  1  0.08793061  0.79881943  0.61209015  1  -1.225321  0  -0.611984  -0.61727  0  3.334031  0
N  N124  1  0.91207922  0.11209713  0.29879284  1  -1.225538  0  -0.611973  -0.617347  0  3.334218  0
N  N125  1  0.08910608  0.38790913  0.20003547  1  -1.25079  0  -0.612099  -0.617392  0  3.333685  0
N  N126  1  0.91089365  0.21090371  0.20117733  1  -1.232145  0  -0.611939  -0.617312  0  3.333971  0
N  N127  1  0.08791383  0.28910149  0.30002842  1  -1.243525  0  -0.611831  -0.617181  0  3.333641  0
O  O128  1  0.00000400  0.00000353  0.49999988  1  -1.232109  0  -0.573971  -1.024955  0  2.563424  0
O  O129  1  0.15307399  0.02631453  0.43096093  1  -1.169221  0  -0.313602  -0.542103  0  2.332868  0
O  O130  1  0.04369369  0.15558707  0.38063553  1  -1.178161  0  -0.316947  -0.553443  0  2.380086  0
O  O131  1  0.96242930  0.93802807  0.41008905  1  -1.171426  0  -0.314174  -0.544511  0  2.334732  0
O  O132  1  0.15307959  0.12678295  0.41594843  1  -1.167355  0  -0.313684  -0.542077  0  2.332653  0
O  O133  1  0.03756624  0.91010364  0.43802545  1  -1.171697  0  -0.314193  -0.544481  0  2.334587  0
O  O134  1  0.95630857  0.07568760  0.38809156  1  -1.184745  0  -0.316995  -0.553511  0  2.380228  0
O  O135  1  0.84692819  0.93099558  0.52627579  1  -1.168835  0  -0.313722  -0.54217  0  2.332541  0
O  O136  1  0.95632117  0.88063580  0.65558674  1  -1.178201  0  -0.317003  -0.553667  0  2.379945  0
O  O137  1  0.84693957  0.91595833  0.62675398  1  -1.166894  0  -0.313686  -0.542271  0  2.332661  0
O  O138  1  0.04370136  0.88810965  0.57568016  1  -1.18449  0  -0.317034  -0.553553  0  2.380215  0
O  O139  1  0.03756964  0.12747702  0.52441274  1  -1.173448  0  -0.314058  -0.544296  0  2.334724  0
O  O140  1  0.96244629  0.02441629  0.62747013  1  -1.173941  0  -0.314203  -0.544612  0  2.335036  0
O  O141  1  0.00000967  0.50000686  0.00000401  1  -1.232433  0  -0.574015  -1.024989  0  2.563307  0
O  O142  1  0.95730361  0.58402796  0.06903822  1  -1.163879  0  -0.313682  -0.542251  0  2.332512  0
O  O143  1  0.03623302  0.42431593  0.11937992  1  -1.178466  0  -0.316811  -0.553455  0  2.379972  0
O  O144  1  0.84811911  0.37253451  0.08990836  1  -1.171147  0  -0.314301  -0.544791  0  2.334683  0
O  O145  1  0.04274889  0.56900060  0.08408711  1  -1.164132  0  -0.313796  -0.542477  0  2.332762  0
O  O146  1  0.84812564  0.47559312  0.06198229  1  -1.167756  0  -0.31412  -0.544558  0  2.334558  0
O  O147  1  0.96378877  0.34441610  0.11189047  1  -1.179177  0  -0.31719  -0.553924  0  2.380012  0
O  O148  1  0.95727726  0.37321639  0.97371599  1  -1.173859  0  -0.313543  -0.541908  0  2.332483  0
O  O149  1  0.03621460  0.61189782  0.84441525  1  -1.179295  0  -0.317123  -0.553737  0  2.379922  0
O  O150  1  0.04272446  0.47369242  0.87324592  1  -1.173983  0  -0.313589  -0.542205  0  2.332385  0
O  O151  1  0.96378015  0.61936853  0.92432192  1  -1.17849  0  -0.317039  -0.55361  0  2.380032  0
O  O152  1  0.15189575  0.56198467  0.97559856  1  -1.167931  0  -0.314164  -0.544486  0  2.334828  0
O  O153  1  0.15188367  0.58991146  0.87253585  1  -1.170693  0  -0.31435  -0.544774  0  2.334625  0
F  F154  1  0.08486492  0.67726287  0.21863448  1  -0.62684  0  -0.095429  -0.133034  0  1.319533  0
F  F155  1  0.91517001  0.71858368  0.17724112  1  -0.626477  0  -0.095489  -0.133166  0  1.31984  0
F  F156  1  0.08315831  0.77995943  0.32561261  1  -0.627574  0  -0.09574  -0.133262  0  1.318434  0
F  F157  1  0.91666264  0.82534027  0.28016402  1  -0.626633  0  -0.095244  -0.13261  0  1.318651  0
F  F158  1  0.91515709  0.19654964  0.90759131  1  -0.629805  0  -0.095432  -0.133136  0  1.319586  0
F  F159  1  0.08483913  0.40758928  0.69656773  1  -0.629532  0  -0.095394  -0.133071  0  1.319743  0
F  F160  1  0.91668930  0.09130718  0.80316697  1  -0.628602  0  -0.095274  -0.132729  0  1.318463  0
F  F161  1  0.08318317  0.30319498  0.59128999  1  -0.628675  0  -0.095633  -0.133298  0  1.318651  0
F  F162  1  0.60550653  0.19686477  0.21983407  1  -0.627818  0  -0.095406  -0.132679  0  1.318406  0
F  F163  1  0.60556175  0.40878439  0.17441054  1  -0.628131  0  -0.095652  -0.1332  0  1.318423  0
F  F164  1  0.39585500  0.09242368  0.32271440  1  -0.6285  0  -0.095461  -0.133176  0  1.319824  0
F  F165  1  0.39586586  0.30345693  0.28136777  1  -0.62777  0  -0.095472  -0.133256  0  1.319869  0
F  F166  1  0.39446895  0.71981549  0.69685207  1  -0.628211  0  -0.095295  -0.132479  0  1.318597  0
F  F167  1  0.39448780  0.67442414  0.90875381  1  -0.629163  0  -0.095594  -0.133077  0  1.318601  0
F  F168  1  0.60413183  0.82273566  0.59238817  1  -0.628691  0  -0.09542  -0.133114  0  1.319812  0
F  F169  1  0.60416672  0.78138986  0.80342214  1  -0.62701  0  -0.095529  -0.133266  0  1.32011  0
