# generated using pymatgen
data_CdH10C8(NO)6
_symmetry_space_group_name_H-M   'P 1'
_cell_length_a   9.87876376
_cell_length_b   11.17603681
_cell_length_c   12.55449624
_cell_angle_alpha   108.82417648
_cell_angle_beta   90.04259828
_cell_angle_gamma   89.98438937
_symmetry_Int_Tables_number   1
_chemical_formula_structural   CdH10C8(NO)6
_chemical_formula_sum   'Cd4 H40 C32 N24 O24'
_cell_volume   1311.94692356
_cell_formula_units_Z   4
loop_
 _symmetry_equiv_pos_site_id
 _symmetry_equiv_pos_as_xyz
  1  'x, y, z'
loop_
 _atom_site_type_symbol
 _atom_site_label
 _atom_site_symmetry_multiplicity
 _atom_site_fract_x
 _atom_site_fract_y
 _atom_site_fract_z
 _atom_site_occupancy
 _atom_site_hle17_bader_spin_density
 _atom_site_hle17_ddec_charge
 _atom_site_hle17_ddec_spin_density
 _atom_site_hle17_ddec_sum_bond_order
 _atom_site_hle17_magmom
 _atom_site_hse06_10hf_bader_spin_density
 _atom_site_hse06_10hf_ddec_charge
 _atom_site_hse06_10hf_ddec_spin_density
 _atom_site_hse06_10hf_ddec_sum_bond_order
 _atom_site_hse06_10hf_magmom
 _atom_site_hse06_bader_spin_density
 _atom_site_hse06_ddec_charge
 _atom_site_hse06_ddec_spin_density
 _atom_site_hse06_ddec_sum_bond_order
 _atom_site_hse06_magmom
 _atom_site_pbe_bader_spin_density
 _atom_site_pbe_cm5_charge
 _atom_site_pbe_ddec_charge
 _atom_site_pbe_ddec_spin_density
 _atom_site_pbe_ddec_sum_bond_order
 _atom_site_pbe_magmom
Cd  Cd0  1  0.64006455  0.37885851  0.64165068  1  0  1.124726  0  1.668455  0  0  0.932627  0  2.115953  0  0  0.98949  0  2.063822  0  0  0.770876  0.891554  0  2.152547  0
Cd  Cd1  1  0.35993386  0.62113997  0.35835011  1  0  1.124696  0  1.668501  0  0  0.932595  0  2.116016  0  0  0.989456  0  2.063886  0  0  0.770859  0.891516  0  2.152612  0
Cd  Cd2  1  0.14010164  0.12149683  0.85836385  1  0  1.125  0  1.667724  0  0  0.932962  0  2.115174  0  0  0.989822  0  2.063055  0  0  0.771045  0.892022  0  2.15169  0
Cd  Cd3  1  0.85990183  0.87850354  0.14163744  1  0  1.125011  0  1.667691  0  0  0.932958  0  2.115122  0  0  0.989819  0  2.063005  0  0  0.77107  0.892014  0  2.151633  0
H  H4  1  0.33423121  0.27375685  0.18821458  1  0  0.345428  0  0.871967  0  0  0.331889  0  0.92828  0  0  0.337987  0  0.924223  0  0  0.321457  0.327569  0  0.931157  0
H  H5  1  0.66577125  0.72623977  0.81178651  1  0  0.345397  0  0.871983  0  0  0.331852  0  0.928306  0  0  0.33795  0  0.92425  0  0  0.321426  0.327529  0  0.931189  0
H  H6  1  0.20030450  0.22958520  0.09204758  1  0  0.341413  0  0.931712  0  0  0.319889  0  0.999111  0  0  0.327593  0  0.993131  0  0  0.300678  0.314566  0  1.003173  0
H  H7  1  0.79969593  0.77041330  0.90795401  1  0  0.341423  0  0.931702  0  0  0.319906  0  0.999082  0  0  0.327611  0  0.9931  0  0  0.30069  0.314581  0  1.003143  0
H  H8  1  0.69971619  0.27019343  0.40778086  1  0  0.341378  0  0.931553  0  0  0.320187  0  0.998561  0  0  0.327906  0  0.992566  0  0  0.300933  0.314851  0  1.00265  0
H  H9  1  0.30028324  0.72980588  0.59221616  1  0  0.341404  0  0.931566  0  0  0.320207  0  0.998571  0  0  0.327925  0  0.992578  0  0  0.300935  0.314875  0  1.002654  0
H  H10  1  0.83326327  0.22562181  0.31142761  1  0  0.345426  0  0.871277  0  0  0.331908  0  0.927655  0  0  0.337986  0  0.923638  0  0  0.321122  0.327597  0  0.930514  0
H  H11  1  0.16673818  0.77437757  0.68857182  1  0  0.345464  0  0.871244  0  0  0.331943  0  0.927624  0  0  0.338021  0  0.923606  0  0  0.321129  0.327632  0  0.930485  0
H  H12  1  0.47677428  0.58842557  0.77613605  1  0  0.390524  0  0.927265  0  0  0.348403  0  1.011204  0  0  0.359666  0  0.995142  0  0  0.277211  0.340472  0  1.022502  0
H  H13  1  0.52322616  0.41157662  0.22386334  1  0  0.390615  0  0.927151  0  0  0.348489  0  1.011098  0  0  0.359752  0  0.995036  0  0  0.277235  0.340561  0  1.022395  0
H  H14  1  0.47353088  0.58935733  0.64737106  1  0  0.430866  0  0.86488  0  0  0.397581  0  0.930909  0  0  0.409445  0  0.91372  0  0  0.285763  0.389081  0  0.943187  0
H  H15  1  0.52647057  0.41064209  0.35262999  1  0  0.4309  0  0.864842  0  0  0.397624  0  0.930851  0  0  0.409487  0  0.913661  0  0  0.285775  0.389129  0  0.943124  0
H  H16  1  0.97698744  0.91187428  0.72390926  1  0  0.390312  0  0.927604  0  0  0.347866  0  1.011875  0  0  0.359128  0  0.995816  0  0  0.276912  0.339942  0  1.023171  0
H  H17  1  0.02301502  0.08812515  0.27609179  1  0  0.390309  0  0.927604  0  0  0.347885  0  1.01185  0  0  0.359147  0  0.995789  0  0  0.276919  0.339958  0  1.023151  0
H  H18  1  0.97332821  0.91101368  0.85267165  1  0  0.431312  0  0.864212  0  0  0.398053  0  0.930226  0  0  0.409919  0  0.913026  0  0  0.285873  0.389581  0  0.94248  0
H  H19  1  0.02667426  0.08898572  0.14732859  1  0  0.431304  0  0.864215  0  0  0.39805  0  0.930222  0  0  0.409915  0  0.913022  0  0  0.285877  0.389576  0  0.942477  0
H  H20  1  0.23268841  0.01281350  0.32606998  1  0  0.086533  0  0.91723  0  0  0.103138  0  0.976593  0  0  0.104244  0  0.975425  0  0  0.116063  0.102215  0  0.9776  0
H  H21  1  0.76731000  0.98718401  0.67392975  1  0  0.086522  0  0.917244  0  0  0.10309  0  0.976606  0  0  0.104196  0  0.975439  0  0  0.116051  0.102173  0  0.977602  0
H  H22  1  0.37166954  0.99863617  0.41124063  1  0  0.089189  0  0.907802  0  0  0.104899  0  0.968879  0  0  0.105977  0  0.968123  0  0  0.117183  0.103893  0  0.969856  0
H  H23  1  0.62833090  0.00136328  0.58876122  1  0  0.0892  0  0.907797  0  0  0.104888  0  0.968835  0  0  0.105968  0  0.968077  0  0  0.11718  0.103876  0  0.969817  0
H  H24  1  0.86512661  0.23363477  0.73420377  1  0  0.097676  0  0.936266  0  0  0.105518  0  1.001399  0  0  0.107886  0  0.998311  0  0  0.124495  0.103789  0  1.003603  0
H  H25  1  0.13486978  0.76636173  0.26579331  1  0  0.097611  0  0.936341  0  0  0.105485  0  1.001439  0  0  0.107851  0  0.998353  0  0  0.124494  0.103754  0  1.003646  0
H  H26  1  0.73309668  0.48723978  0.17403966  1  0  0.086294  0  0.917124  0  0  0.103017  0  0.976455  0  0  0.104102  0  0.975291  0  0  0.116095  0.102147  0  0.977393  0
H  H27  1  0.26690478  0.51276158  0.82596349  1  0  0.08635  0  0.917104  0  0  0.103037  0  0.976492  0  0  0.104121  0  0.975337  0  0  0.116101  0.102164  0  0.977435  0
H  H28  1  0.87196898  0.50147013  0.08891686  1  0  0.089285  0  0.908079  0  0  0.105013  0  0.969247  0  0  0.106029  0  0.968562  0  0  0.11726  0.104011  0  0.970224  0
H  H29  1  0.12803247  0.49853310  0.91108599  1  0  0.089291  0  0.908092  0  0  0.105026  0  0.969259  0  0  0.106038  0  0.968583  0  0  0.117263  0.104022  0  0.970233  0
H  H30  1  0.90061958  0.34193832  0.19596725  1  0  0.122343  0  0.974817  0  0  0.12987  0  1.044672  0  0  0.13401  0  1.041207  0  0  0.103683  0.126798  0  1.047266  0
H  H31  1  0.09938389  0.65806205  0.80403405  1  0  0.122331  0  0.974864  0  0  0.129874  0  1.044677  0  0  0.134014  0  1.041211  0  0  0.103688  0.126804  0  1.047271  0
H  H32  1  0.77225895  0.24763643  0.11041644  1  0  0.132494  0  0.935541  0  0  0.140231  0  1.003598  0  0  0.144166  0  1.000672  0  0  0.105847  0.137272  0  1.005918  0
H  H33  1  0.22774351  0.75236486  0.88958431  1  0  0.132475  0  0.93553  0  0  0.140181  0  1.003615  0  0  0.144118  0  1.000688  0  0  0.105827  0.137219  0  1.005935  0
H  H34  1  0.39978976  0.15845007  0.30435984  1  0  0.122591  0  0.974222  0  0  0.129759  0  1.04421  0  0  0.133918  0  1.040709  0  0  0.103727  0.126712  0  1.046751  0
H  H35  1  0.60020663  0.84154638  0.69563563  1  0  0.122564  0  0.974262  0  0  0.129798  0  1.044202  0  0  0.133955  0  1.040703  0  0  0.103728  0.126752  0  1.046738  0
H  H36  1  0.27149639  0.25253050  0.39001382  1  0  0.132414  0  0.936056  0  0  0.139913  0  1.004043  0  0  0.143817  0  1.001184  0  0  0.105716  0.136933  0  1.006383  0
H  H37  1  0.72850202  0.74746600  0.60998326  1  0  0.132402  0  0.93605  0  0  0.139931  0  1.004051  0  0  0.143836  0  1.00119  0  0  0.105707  0.136951  0  1.006394  0
H  H38  1  0.36518839  0.26661059  0.76567498  1  0  0.097471  0  0.936723  0  0  0.105249  0  1.001932  0  0  0.10762  0  0.998838  0  0  0.12442  0.103523  0  1.004125  0
H  H39  1  0.63481104  0.73339359  0.23432812  1  0  0.097449  0  0.936783  0  0  0.105277  0  1.001921  0  0  0.107648  0  0.998825  0  0  0.124415  0.10355  0  1.004116  0
H  H40  1  0.33470760  0.05125714  0.62125725  1  0  0.116211  0  0.944467  0  0  0.123336  0  1.010627  0  0  0.126638  0  1.005414  0  0  0.143397  0.12088  0  1.0146  0
H  H41  1  0.66528980  0.94874224  0.37874218  1  0  0.116233  0  0.944466  0  0  0.123353  0  1.010632  0  0  0.126656  0  1.005418  0  0  0.143415  0.120896  0  1.014605  0
H  H42  1  0.83484851  0.44892582  0.87895650  1  0  0.116301  0  0.94384  0  0  0.123581  0  1.009747  0  0  0.126887  0  1.004527  0  0  0.14346  0.121099  0  1.013761  0
H  H43  1  0.16515496  0.55107176  0.12104565  1  0  0.116247  0  0.94392  0  0  0.12353  0  1.009829  0  0  0.126836  0  1.004611  0  0  0.143456  0.12105  0  1.013836  0
C  C44  1  0.37380234  0.29490927  0.03733974  1  0  0.643278  0  3.795061  0  0  0.591739  0  4.07957  0  0  0.618393  0  4.08692  0  0  0.345903  0.574164  0  4.073916  0
C  C45  1  0.62619708  0.70509020  0.96266291  1  0  0.643406  0  3.794857  0  0  0.591891  0  4.079335  0  0  0.618537  0  4.086696  0  0  0.346026  0.574315  0  4.073681  0
C  C46  1  0.87336841  0.20494033  0.46247870  1  0  0.642365  0  3.795361  0  0  0.590541  0  4.079885  0  0  0.617105  0  4.087385  0  0  0.345469  0.573024  0  4.074166  0
C  C47  1  0.12662899  0.79505902  0.53751993  1  0  0.642334  0  3.7953  0  0  0.590506  0  4.079811  0  0  0.617067  0  4.087312  0  0  0.345447  0.572992  0  4.074093  0
C  C48  1  0.07338230  0.13716807  0.50746629  1  0  0.323008  0  3.813128  0  0  0.280861  0  4.081499  0  0  0.298167  0  4.09688  0  0  0.238083  0.269808  0  4.070885  0
C  C49  1  0.92661409  0.86283029  0.49253048  1  0  0.322939  0  3.813174  0  0  0.280902  0  4.081344  0  0  0.298212  0  4.096721  0  0  0.238126  0.269843  0  4.070737  0
C  C50  1  0.57372134  0.36279096  0.99247997  1  0  0.322795  0  3.812503  0  0  0.280555  0  4.081407  0  0  0.297873  0  4.096773  0  0  0.237927  0.269486  0  4.070797  0
C  C51  1  0.42627910  0.63721223  0.00752128  1  0  0.32267  0  3.812564  0  0  0.280509  0  4.081376  0  0  0.297826  0  4.096741  0  0  0.237966  0.26944  0  4.07077  0
C  C52  1  0.53494973  0.33673087  0.87886172  1  0  0.031203  0  3.835808  0  0  0.029532  0  4.095147  0  0  0.023846  0  4.119082  0  0  0.074222  0.032628  0  4.079509  0
C  C53  1  0.46504869  0.66326858  0.12114013  1  0  0.031286  0  3.835945  0  0  0.029641  0  4.095208  0  0  0.023954  0  4.119146  0  0  0.074271  0.032737  0  4.079576  0
C  C54  1  0.03475359  0.16338853  0.62108726  1  0  0.031079  0  3.836465  0  0  0.029904  0  4.094965  0  0  0.024207  0  4.11893  0  0  0.074422  0.033006  0  4.079312  0
C  C55  1  0.96524483  0.83660888  0.37890926  1  0  0.031216  0  3.836166  0  0  0.030001  0  4.094662  0  0  0.024303  0  4.118626  0  0  0.074463  0.033103  0  4.079015  0
C  C56  1  0.29220349  0.06271664  0.40116779  1  0  0.053483  0  3.60224  0  0  -0.01337  0  3.863967  0  0  -0.00698  0  3.87323  0  0  -0.046875  -0.017821  0  3.858135  0
C  C57  1  0.70779695  0.93728179  0.59883139  1  0  0.053476  0  3.602251  0  0  -0.013214  0  3.863807  0  0  -0.006823  0  3.873068  0  0  -0.046849  -0.017665  0  3.85797  0
C  C58  1  0.90556058  0.21165680  0.64925832  1  0  0.146977  0  3.695106  0  0  0.10427  0  3.959032  0  0  0.118753  0  3.971334  0  0  0.066107  0.094622  0  3.950852  0
C  C59  1  0.09443682  0.78833967  0.35073795  1  0  0.147013  0  3.695013  0  0  0.104264  0  3.958954  0  0  0.118748  0  3.971255  0  0  0.066091  0.094616  0  3.950782  0
C  C60  1  0.79259760  0.43735154  0.09897586  1  0  0.053317  0  3.602196  0  0  -0.013725  0  3.865033  0  0  -0.007237  0  3.874201  0  0  -0.046929  -0.01823  0  3.859244  0
C  C61  1  0.20740183  0.56265073  0.90102593  1  0  0.053277  0  3.602284  0  0  -0.013792  0  3.865196  0  0  -0.007314  0  3.874385  0  0  -0.046955  -0.0183  0  3.859406  0
C  C62  1  0.85226318  0.31727742  0.11273781  1  0  -0.310518  0  3.655616  0  0  -0.347011  0  3.907867  0  0  -0.355025  0  3.913766  0  0  -0.17021  -0.341267  0  3.903815  0
C  C63  1  0.14773827  0.68272387  0.88726293  1  0  -0.310497  0  3.655689  0  0  -0.346927  0  3.907867  0  0  -0.354936  0  3.913767  0  0  -0.170208  -0.341184  0  3.903812  0
C  C64  1  0.35161567  0.18293380  0.38758384  1  0  -0.311347  0  3.656294  0  0  -0.346382  0  3.906665  0  0  -0.354418  0  3.912634  0  0  -0.169921  -0.340605  0  3.902568  0
C  C65  1  0.64838781  0.81706369  0.61241510  1  0  -0.311295  0  3.656066  0  0  -0.346548  0  3.90656  0  0  -0.354583  0  3.912526  0  0  -0.169949  -0.34077  0  3.902459  0
C  C66  1  0.40571091  0.28850703  0.85062352  1  0  0.147704  0  3.694707  0  0  0.105408  0  3.958784  0  0  0.119916  0  3.971017  0  0  0.066425  0.095761  0  3.950615  0
C  C67  1  0.59428750  0.71149626  0.14938093  1  0  0.147727  0  3.694648  0  0  0.105375  0  3.958713  0  0  0.119881  0  3.970949  0  0  0.066391  0.095726  0  3.95055  0
C  C68  1  0.23808291  0.08700273  0.60396534  1  0  0.237586  0  3.625234  0  0  0.164234  0  3.91198  0  0  0.184049  0  3.919107  0  0  0.168909  0.15084  0  3.907391  0
C  C69  1  0.76191550  0.91299565  0.39603224  1  0  0.23752  0  3.625323  0  0  0.164131  0  3.912106  0  0  0.183945  0  3.919233  0  0  0.168847  0.150739  0  3.907513  0
C  C70  1  0.73826567  0.41311084  0.89614479  1  0  0.237701  0  3.624038  0  0  0.16419  0  3.910786  0  0  0.183985  0  3.917931  0  0  0.16908  0.150803  0  3.906201  0
C  C71  1  0.26173072  0.58689142  0.10385700  1  0  0.237746  0  3.623925  0  0  0.164221  0  3.91071  0  0  0.184015  0  3.917853  0  0  0.169064  0.150833  0  3.906131  0
C  C72  1  0.95799662  0.25186269  0.02666284  1  0  0.716912  0  3.808068  0  0  0.666712  0  4.103345  0  0  0.701064  0  4.097426  0  0  0.206363  0.643436  0  4.106234  0
C  C73  1  0.04200685  0.74813768  0.97333846  1  0  0.716769  0  3.808214  0  0  0.666553  0  4.103491  0  0  0.700904  0  4.097572  0  0  0.206356  0.643276  0  4.106376  0
C  C74  1  0.45751007  0.24830643  0.47366449  1  0  0.718009  0  3.806808  0  0  0.667229  0  4.102497  0  0  0.7016  0  4.096534  0  0  0.206599  0.643944  0  4.105389  0
C  C75  1  0.54248936  0.75169103  0.52633364  1  0  0.717981  0  3.806735  0  0  0.667248  0  4.102405  0  0  0.701618  0  4.096444  0  0  0.206613  0.643961  0  4.105295  0
N  N76  1  0.20280398  0.08910043  0.49891085  1  0  -0.153325  0  3.456464  0  0  -0.065321  0  3.691275  0  0  -0.084759  0  3.7129  0  0  -0.234311  -0.052275  0  3.676495  0
N  N77  1  0.79719443  0.91089703  0.50108728  1  0  -0.15338  0  3.456645  0  0  -0.065372  0  3.691293  0  0  -0.084813  0  3.712917  0  0  -0.234315  -0.052325  0  3.676512  0
N  N78  1  0.29187568  0.27359392  0.11468482  1  0  -0.68484  0  3.069599  0  0  -0.652584  0  3.310291  0  0  -0.674942  0  3.307812  0  0  -0.571609  -0.637218  0  3.311646  0
N  N79  1  0.70812476  0.72640369  0.88531813  1  0  -0.684887  0  3.069533  0  0  -0.652633  0  3.31023  0  0  -0.674989  0  3.307755  0  0  -0.571657  -0.63727  0  3.311585  0
N  N80  1  0.79119634  0.22603726  0.38508805  1  0  -0.683783  0  3.069597  0  0  -0.652037  0  3.310085  0  0  -0.674393  0  3.307711  0  0  -0.570931  -0.636672  0  3.311376  0
N  N81  1  0.20880309  0.77396113  0.61490952  1  0  -0.683829  0  3.069566  0  0  -0.652073  0  3.310063  0  0  -0.674427  0  3.307688  0  0  -0.570902  -0.636708  0  3.311349  0
N  N82  1  0.70313952  0.41085552  0.00114850  1  0  -0.15277  0  3.455277  0  0  -0.064308  0  3.689852  0  0  -0.083734  0  3.711441  0  0  -0.234371  -0.051275  0  3.675089  0
N  N83  1  0.29685991  0.58914956  0.99885325  1  0  -0.152714  0  3.455152  0  0  -0.064277  0  3.689745  0  0  -0.083697  0  3.711332  0  0  -0.234324  -0.051245  0  3.674985  0
N  N84  1  0.32640392  0.26663587  0.92925317  1  0  -0.497315  0  3.134124  0  0  -0.428598  0  3.415328  0  0  -0.455502  0  3.428446  0  0  -0.338776  -0.410649  0  3.406905  0
N  N85  1  0.67359450  0.73336448  0.07074732  1  0  -0.49743  0  3.133972  0  0  -0.428728  0  3.415213  0  0  -0.455629  0  3.428332  0  0  -0.33882  -0.410782  0  3.406795  0
N  N86  1  0.82612385  0.23339961  0.57055930  1  0  -0.496758  0  3.134939  0  0  -0.427649  0  3.415862  0  0  -0.454518  0  3.42908  0  0  -0.338688  -0.409739  0  3.407418  0
N  N87  1  0.17387558  0.76659686  0.42943697  1  0  -0.496797  0  3.134799  0  0  -0.427661  0  3.415704  0  0  -0.454528  0  3.428921  0  0  -0.338692  -0.409736  0  3.407215  0
N  N88  1  0.49677954  0.34651288  0.07308778  1  0  -0.498116  0  3.055659  0  0  -0.439328  0  3.314012  0  0  -0.459912  0  3.322554  0  0  -0.313715  -0.425731  0  3.308225  0
N  N89  1  0.50321786  0.65349032  0.92691427  1  0  -0.498064  0  3.055567  0  0  -0.439339  0  3.313908  0  0  -0.459913  0  3.322441  0  0  -0.313821  -0.425738  0  3.308119  0
N  N90  1  0.14085479  0.13031954  0.67922827  1  0  -0.4193  0  3.2037  0  0  -0.348993  0  3.492123  0  0  -0.371081  0  3.5079  0  0  -0.352977  -0.333851  0  3.481362  0
N  N91  1  0.85914059  0.86967981  0.32077036  1  0  -0.419252  0  3.203686  0  0  -0.348952  0  3.492134  0  0  -0.371039  0  3.507913  0  0  -0.352968  -0.333813  0  3.481374  0
N  N92  1  0.99633411  0.15332208  0.42677423  1  0  -0.497702  0  3.055433  0  0  -0.438681  0  3.313583  0  0  -0.459142  0  3.321947  0  0  -0.313585  -0.425151  0  3.307847  0
N  N93  1  0.00366532  0.84667536  0.57322309  1  0  -0.497657  0  3.05536  0  0  -0.438681  0  3.313465  0  0  -0.459141  0  3.321825  0  0  -0.313641  -0.425179  0  3.307799  0
N  N94  1  0.64098863  0.36988276  0.82080700  1  0  -0.419086  0  3.202322  0  0  -0.348567  0  3.490793  0  0  -0.370643  0  3.506583  0  0  -0.352541  -0.333434  0  3.480036  0
N  N95  1  0.35901080  0.63011759  0.17919349  1  0  -0.419081  0  3.202374  0  0  -0.348569  0  3.490843  0  0  -0.370643  0  3.506633  0  0  -0.352544  -0.333441  0  3.480095  0
N  N96  1  0.88270961  0.55727983  0.67220563  1  0  0.692566  0  4.154699  0  0  0.741471  0  4.425904  0  0  0.770938  0  4.431084  0  0  0.096746  0.721569  0  4.421864  0
N  N97  1  0.11728779  0.44272052  0.32779486  1  0  0.69282  0  4.154404  0  0  0.741613  0  4.425726  0  0  0.771079  0  4.430905  0  0  0.09681  0.721708  0  4.421694  0
N  N98  1  0.38280168  0.94201774  0.82654276  1  0  0.694466  0  4.156331  0  0  0.727384  0  4.448567  0  0  0.755963  0  4.455212  0  0  0.096276  0.709677  0  4.443185  0
N  N99  1  0.61720383  0.05798629  0.17345552  1  0  0.694236  0  4.156495  0  0  0.727214  0  4.44866  0  0  0.755795  0  4.455301  0  0  0.096226  0.709507  0  4.443282  0
O  O100  1  0.47358135  0.21859270  0.56247414  1  0  -0.646754  0  1.917607  0  0  -0.585181  0  2.157062  0  0  -0.614662  0  2.147861  0  0  -0.329719  -0.564181  0  2.163126  0
O  O101  1  0.52642010  0.78140381  0.43752374  1  0  -0.646726  0  1.917659  0  0  -0.585158  0  2.157095  0  0  -0.61464  0  2.147897  0  0  -0.329705  -0.564161  0  2.16316  0
O  O102  1  0.97399153  0.28167636  0.93790857  1  0  -0.646675  0  1.918728  0  0  -0.584731  0  2.157582  0  0  -0.614233  0  2.148387  0  0  -0.32955  -0.563723  0  2.16364  0
O  O103  1  0.02600891  0.71832593  0.06209403  1  0  -0.646603  0  1.918734  0  0  -0.584637  0  2.157565  0  0  -0.614141  0  2.148373  0  0  -0.329515  -0.563635  0  2.163625  0
O  O104  1  0.53110288  0.33403880  0.45419553  1  0  -0.664886  0  1.985172  0  0  -0.583349  0  2.201341  0  0  -0.613129  0  2.191291  0  0  -0.31833  -0.56233  0  2.207508  0
O  O105  1  0.46889351  0.66595951  0.54579964  1  0  -0.664865  0  1.985216  0  0  -0.583323  0  2.201362  0  0  -0.6131  0  2.191311  0  0  -0.318336  -0.562307  0  2.20753  0
O  O106  1  0.03151897  0.16599253  0.04606671  1  0  -0.664479  0  1.984314  0  0  -0.583161  0  2.200219  0  0  -0.612928  0  2.190145  0  0  -0.31815  -0.562165  0  2.206388  0
O  O107  1  0.96848552  0.83400682  0.95393192  1  0  -0.664424  0  1.984396  0  0  -0.583087  0  2.200265  0  0  -0.612859  0  2.190208  0  0  -0.318171  -0.562092  0  2.206434  0
O  O108  1  0.77267081  0.53435532  0.61236613  1  0  -0.509705  0  1.795981  0  0  -0.486117  0  2.024574  0  0  -0.50724  0  2.014425  0  0  -0.21984  -0.47104  0  2.03108  0
O  O109  1  0.22732558  0.46564603  0.38763622  1  0  -0.509743  0  1.795892  0  0  -0.486133  0  2.024555  0  0  -0.507253  0  2.014405  0  0  -0.219848  -0.471052  0  2.031061  0
O  O110  1  0.47029200  0.53415031  0.69571695  1  0  -0.832463  0  1.868  0  0  -0.768868  0  2.067473  0  0  -0.791773  0  2.032253  0  0  -0.595733  -0.752336  0  2.091865  0
O  O111  1  0.52970641  0.46584815  0.30428304  1  0  -0.832582  0  1.867907  0  0  -0.768996  0  2.0674  0  0  -0.791903  0  2.032179  0  0  -0.595775  -0.75246  0  2.091794  0
O  O112  1  0.97018977  0.96619585  0.80428863  1  0  -0.833  0  1.866976  0  0  -0.769051  0  2.066727  0  0  -0.791915  0  2.031452  0  0  -0.595696  -0.752546  0  2.091037  0
O  O113  1  0.02981472  0.03380449  0.19571186  1  0  -0.832953  0  1.86696  0  0  -0.76903  0  2.066684  0  0  -0.791894  0  2.031405  0  0  -0.595702  -0.752524  0  2.090982  0
O  O114  1  0.91192505  0.48984478  0.73243274  1  0  -0.47861  0  1.768835  0  0  -0.471509  0  1.972877  0  0  -0.488582  0  1.968631  0  0  -0.193907  -0.459318  0  1.975443  0
O  O115  1  0.08807336  0.51015371  0.26756805  1  0  -0.47866  0  1.768806  0  0  -0.471503  0  1.972872  0  0  -0.488577  0  1.968627  0  0  -0.193875  -0.459303  0  1.975432  0
O  O116  1  0.27261762  0.96503440  0.88608636  1  0  -0.511995  0  1.798202  0  0  -0.483051  0  2.032495  0  0  -0.503926  0  2.022596  0  0  -0.220253  -0.46878  0  2.038812  0
O  O117  1  0.72739092  0.03497070  0.11391619  1  0  -0.511996  0  1.79817  0  0  -0.483065  0  2.032388  0  0  -0.503943  0  2.022488  0  0  -0.220348  -0.468794  0  2.038703  0
O  O118  1  0.41327635  0.01036742  0.76750097  1  0  -0.477347  0  1.768141  0  0  -0.4652  0  1.977859  0  0  -0.481933  0  1.97403  0  0  -0.193226  -0.453912  0  1.980105  0
O  O119  1  0.58672005  0.98963651  0.23249409  1  0  -0.47723  0  1.768128  0  0  -0.465069  0  1.977809  0  0  -0.481799  0  1.973979  0  0  -0.193153  -0.453777  0  1.980055  0
O  O120  1  0.95546972  0.64719089  0.66845596  1  0  -0.427836  0  1.778978  0  0  -0.428408  0  1.982444  0  0  -0.441193  0  1.97601  0  0  -0.17822  -0.41944  0  1.986933  0
O  O121  1  0.04452667  0.35280859  0.33154669  1  0  -0.427995  0  1.77886  0  0  -0.428534  0  1.982345  0  0  -0.441321  0  1.97591  0  0  -0.178294  -0.419564  0  1.986833  0
O  O122  1  0.45441267  0.85099934  0.82943073  1  0  -0.429019  0  1.780521  0  0  -0.423762  0  1.990171  0  0  -0.436316  0  1.984115  0  0  -0.177652  -0.415592  0  1.994323  0
O  O123  1  0.54559689  0.14900737  0.17056349  1  0  -0.428959  0  1.780728  0  0  -0.423722  0  1.99033  0  0  -0.436278  0  1.984274  0  0  -0.177602  -0.415554  0  1.994486  0
