# generated using pymatgen
data_CaH18(C11O3)2
_symmetry_space_group_name_H-M   'P 1'
_cell_length_a   7.66425299
_cell_length_b   11.38558886
_cell_length_c   11.93880820
_cell_angle_alpha   118.46360205
_cell_angle_beta   93.81062360
_cell_angle_gamma   89.99231265
_symmetry_Int_Tables_number   1
_chemical_formula_structural   CaH18(C11O3)2
_chemical_formula_sum   'Ca2 H36 C44 O12'
_cell_volume   913.25561482
_cell_formula_units_Z   2
loop_
 _symmetry_equiv_pos_site_id
 _symmetry_equiv_pos_as_xyz
  1  'x, y, z'
loop_
 _atom_site_type_symbol
 _atom_site_label
 _atom_site_symmetry_multiplicity
 _atom_site_fract_x
 _atom_site_fract_y
 _atom_site_fract_z
 _atom_site_occupancy
 _atom_site_hle17_bader_spin_density
 _atom_site_hle17_ddec_charge
 _atom_site_hle17_ddec_spin_density
 _atom_site_hle17_ddec_sum_bond_order
 _atom_site_hle17_magmom
 _atom_site_hse06_10hf_bader_spin_density
 _atom_site_hse06_10hf_ddec_charge
 _atom_site_hse06_10hf_ddec_spin_density
 _atom_site_hse06_10hf_ddec_sum_bond_order
 _atom_site_hse06_10hf_magmom
 _atom_site_hse06_bader_spin_density
 _atom_site_hse06_ddec_charge
 _atom_site_hse06_ddec_spin_density
 _atom_site_hse06_ddec_sum_bond_order
 _atom_site_hse06_magmom
 _atom_site_pbe_bader_spin_density
 _atom_site_pbe_cm5_charge
 _atom_site_pbe_ddec_charge
 _atom_site_pbe_ddec_spin_density
 _atom_site_pbe_ddec_sum_bond_order
 _atom_site_pbe_magmom
Ca  Ca0  1  0.75000687  0.95427862  0.00002082  1  0  1.573043  0  1.078676  0  0  1.440986  0  1.429965  0  0  1.485202  0  1.383957  0  0  0.88323  1.407691  0  1.462601  0
Ca  Ca1  1  0.24999252  0.04572157  0.99997891  1  0  1.57306  0  1.078629  0  0  1.440999  0  1.429905  0  0  1.485201  0  1.383924  0  0  0.883237  1.40771  0  1.462544  0
H  H2  1  0.02472734  0.91362628  0.16686631  1  0  0.442166  0  0.855559  0  0  0.407706  0  0.924334  0  0  0.419779  0  0.906653  0  0  0.301109  0.399123  0  0.936885  0
H  H3  1  0.47526396  0.74680195  0.83318011  1  0  0.442153  0  0.855623  0  0  0.407673  0  0.924426  0  0  0.41975  0  0.906739  0  0  0.301129  0.399085  0  0.936991  0
H  H4  1  0.97526858  0.08638390  0.83313951  1  0  0.442201  0  0.855508  0  0  0.407731  0  0.9243  0  0  0.419805  0  0.906617  0  0  0.301087  0.399153  0  0.936847  0
H  H5  1  0.52473273  0.25319623  0.16682196  1  0  0.442178  0  0.855578  0  0  0.407691  0  0.924397  0  0  0.419768  0  0.906714  0  0  0.301125  0.399103  0  0.936963  0
H  H6  1  0.85799645  0.85713633  0.20402680  1  0  0.41905  0  0.846537  0  0  0.398459  0  0.907953  0  0  0.40573  0  0.897487  0  0  0.315747  0.393266  0  0.915436  0
H  H7  1  0.64205202  0.65320855  0.79605824  1  0  0.418987  0  0.847144  0  0  0.398363  0  0.908194  0  0  0.40563  0  0.897734  0  0  0.315776  0.393173  0  0.915675  0
H  H8  1  0.14200148  0.14286086  0.79596816  1  0  0.419  0  0.846644  0  0  0.398399  0  0.908051  0  0  0.405671  0  0.897582  0  0  0.3157  0.393207  0  0.915534  0
H  H9  1  0.35794210  0.34679063  0.20394083  1  0  0.419015  0  0.847092  0  0  0.398388  0  0.908152  0  0  0.405657  0  0.897689  0  0  0.315788  0.393197  0  0.915632  0
H  H10  1  0.93423919  0.67194790  0.96453027  1  0  0.094193  0  0.975936  0  0  0.102965  0  1.041764  0  0  0.106805  0  1.038906  0  0  0.106545  0.100136  0  1.043942  0
H  H11  1  0.56574731  0.70745183  0.03534442  1  0  0.094243  0  0.97641  0  0  0.102871  0  1.042323  0  0  0.106696  0  1.039499  0  0  0.106446  0.100065  0  1.044448  0
H  H12  1  0.06576152  0.32805229  0.03547120  1  0  0.094138  0  0.975989  0  0  0.10292  0  1.041814  0  0  0.106759  0  1.038958  0  0  0.106541  0.100091  0  1.043994  0
H  H13  1  0.43425325  0.29254536  0.96465233  1  0  0.094223  0  0.976338  0  0  0.102839  0  1.042265  0  0  0.106659  0  1.039453  0  0  0.106453  0.100036  0  1.044389  0
H  H14  1  0.84775126  0.43355115  0.89513961  1  0  0.0913  0  0.951822  0  0  0.103126  0  1.010417  0  0  0.105367  0  1.010881  0  0  0.098306  0.101541  0  1.010127  0
H  H15  1  0.65223041  0.53837781  0.10469781  1  0  0.090913  0  0.952656  0  0  0.102904  0  1.011048  0  0  0.105146  0  1.011508  0  0  0.098213  0.101309  0  1.010768  0
H  H16  1  0.15224693  0.56645103  0.10486434  1  0  0.091311  0  0.951754  0  0  0.103131  0  1.010374  0  0  0.105373  0  1.010835  0  0  0.098303  0.101551  0  1.010069  0
H  H17  1  0.34777424  0.46162338  0.89530009  1  0  0.090957  0  0.95244  0  0  0.102937  0  1.010861  0  0  0.105181  0  1.011321  0  0  0.098206  0.101348  0  1.010561  0
H  H18  1  0.92877433  0.25423899  0.68519969  1  0  0.080203  0  0.994875  0  0  0.089395  0  1.062643  0  0  0.091613  0  1.062535  0  0  0.094018  0.087753  0  1.062874  0
H  H19  1  0.57125432  0.56888713  0.31464985  1  0  0.080322  0  0.99449  0  0  0.089584  0  1.062207  0  0  0.091803  0  1.062103  0  0  0.093994  0.087928  0  1.06245  0
H  H20  1  0.07122377  0.74576120  0.31480585  1  0  0.080208  0  0.994864  0  0  0.089381  0  1.062643  0  0  0.091597  0  1.062539  0  0  0.094004  0.087738  0  1.06287  0
H  H21  1  0.42875431  0.43111507  0.68535034  1  0  0.080274  0  0.994492  0  0  0.089567  0  1.062179  0  0  0.09179  0  1.062071  0  0  0.093988  0.087912  0  1.062415  0
H  H22  1  0.05688033  0.18484748  0.48343593  1  0  0.087688  0  0.969868  0  0  0.101261  0  1.029655  0  0  0.103456  0  1.029313  0  0  0.099429  0.099626  0  1.030053  0
H  H23  1  0.44329486  0.70127303  0.51651215  1  0  0.087392  0  0.970482  0  0  0.101122  0  1.030061  0  0  0.103339  0  1.029694  0  0  0.099419  0.099486  0  1.03047  0
H  H24  1  0.94311898  0.81515071  0.51656541  1  0  0.08769  0  0.969906  0  0  0.101264  0  1.029691  0  0  0.103453  0  1.029359  0  0  0.099453  0.09963  0  1.030087  0
H  H25  1  0.55671106  0.29872717  0.48348535  1  0  0.087402  0  0.970473  0  0  0.101076  0  1.030141  0  0  0.103261  0  1.029811  0  0  0.099395  0.099451  0  1.030531  0
H  H26  1  0.22593488  0.23684867  0.34088593  1  0  0.099552  0  0.956246  0  0  0.107704  0  1.020804  0  0  0.111494  0  1.018439  0  0  0.107507  0.104962  0  1.022617  0
H  H27  1  0.27423716  0.89578794  0.65902184  1  0  0.099706  0  0.955861  0  0  0.107856  0  1.020423  0  0  0.111646  0  1.018054  0  0  0.107505  0.105109  0  1.022245  0
H  H28  1  0.77406316  0.76315051  0.65911581  1  0  0.099521  0  0.956282  0  0  0.107672  0  1.020848  0  0  0.111464  0  1.01848  0  0  0.10749  0.104929  0  1.022675  0
H  H29  1  0.72576741  0.10421125  0.34097599  1  0  0.099731  0  0.95583  0  0  0.107866  0  1.020414  0  0  0.111653  0  1.018053  0  0  0.1075  0.10512  0  1.022226  0
H  H30  1  0.32237255  0.47406353  0.41271968  1  0  0.071763  0  0.967243  0  0  0.083725  0  1.031762  0  0  0.086268  0  1.030791  0  0  0.093887  0.081885  0  1.03253  0
H  H31  1  0.17779168  0.06118090  0.58715642  1  0  0.071767  0  0.967446  0  0  0.083735  0  1.031987  0  0  0.086276  0  1.031044  0  0  0.093811  0.081882  0  1.032757  0
H  H32  1  0.67762162  0.52593665  0.58728068  1  0  0.071724  0  0.967313  0  0  0.083666  0  1.031851  0  0  0.086188  0  1.030903  0  0  0.09388  0.081828  0  1.032614  0
H  H33  1  0.82221289  0.93881829  0.41284056  1  0  0.071775  0  0.967392  0  0  0.08372  0  1.031962  0  0  0.086262  0  1.031017  0  0  0.093795  0.08187  0  1.032727  0
H  H34  1  0.25153000  0.65416679  0.62178880  1  0  0.09875  0  0.984263  0  0  0.107441  0  1.049083  0  0  0.110318  0  1.048145  0  0  0.101287  0.105386  0  1.049796  0
H  H35  1  0.24863396  0.03228011  0.37807456  1  0  0.098741  0  0.984099  0  0  0.107428  0  1.04888  0  0  0.11031  0  1.047933  0  0  0.101301  0.105377  0  1.049593  0
H  H36  1  0.74846015  0.34583139  0.37821132  1  0  0.098753  0  0.98428  0  0  0.107451  0  1.049084  0  0  0.110329  0  1.048141  0  0  0.101293  0.105395  0  1.049788  0
H  H37  1  0.75136664  0.96771808  0.62192180  1  0  0.09873  0  0.984121  0  0  0.107413  0  1.048898  0  0  0.110293  0  1.047952  0  0  0.101302  0.105359  0  1.04962  0
C  C38  1  0.12021269  0.77008092  0.84844286  1  0  0.681462  0  3.892679  0  0  0.629703  0  4.185883  0  0  0.664341  0  4.177403  0  0  0.223779  0.606118  0  4.19081  0
C  C39  1  0.37972302  0.92169756  0.15155030  1  0  0.681696  0  3.891504  0  0  0.629933  0  4.184851  0  0  0.664543  0  4.176365  0  0  0.224031  0.606363  0  4.189789  0
C  C40  1  0.87978521  0.22991527  0.15155499  1  0  0.681521  0  3.892666  0  0  0.629727  0  4.185917  0  0  0.664366  0  4.177435  0  0  0.223841  0.60614  0  4.190843  0
C  C41  1  0.62027640  0.07830363  0.84844738  1  0  0.681793  0  3.891349  0  0  0.62997  0  4.184726  0  0  0.664595  0  4.176241  0  0  0.22408  0.606412  0  4.189658  0
C  C42  1  0.06866882  0.62586440  0.79788660  1  0  -0.107572  0  3.721682  0  0  -0.089024  0  3.954405  0  0  -0.096286  0  3.975775  0  0  -0.013258  -0.084388  0  3.940077  0
C  C43  1  0.43137011  0.82794458  0.20200591  1  0  -0.10792  0  3.721562  0  0  -0.089672  0  3.954761  0  0  -0.096844  0  3.976015  0  0  -0.013713  -0.085095  0  3.940512  0
C  C44  1  0.93133183  0.37413479  0.20211358  1  0  -0.107728  0  3.721698  0  0  -0.08915  0  3.954428  0  0  -0.096412  0  3.975795  0  0  -0.01331  -0.08452  0  3.940108  0
C  C45  1  0.56863058  0.17205561  0.79799220  1  0  -0.107938  0  3.721576  0  0  -0.089581  0  3.954675  0  0  -0.0968  0  3.975988  0  0  -0.013703  -0.085024  0  3.940451  0
C  C46  1  0.97089039  0.59230091  0.87305900  1  0  -0.08979  0  3.765188  0  0  -0.111835  0  4.013071  0  0  -0.111573  0  4.032368  0  0  -0.087539  -0.111715  0  3.999914  0
C  C47  1  0.52912485  0.71923022  0.12680967  1  0  -0.09016  0  3.765393  0  0  -0.111998  0  4.013371  0  0  -0.11178  0  4.032657  0  0  -0.087322  -0.111851  0  4.000229  0
C  C48  1  0.02910906  0.40770028  0.12694538  1  0  -0.089653  0  3.76528  0  0  -0.111707  0  4.013152  0  0  -0.111446  0  4.032451  0  0  -0.0875  -0.111586  0  4.0  0
C  C49  1  0.47088088  0.28076597  0.87318265  1  0  -0.090029  0  3.76539  0  0  -0.111883  0  4.013352  0  0  -0.11165  0  4.032649  0  0  -0.087279  -0.111731  0  4.000215  0
C  C50  1  0.92236456  0.45799010  0.83381854  1  0  -0.084185  0  3.800397  0  0  -0.097038  0  4.055646  0  0  -0.100583  0  4.077774  0  0  -0.099128  -0.094667  0  4.040486  0
C  C51  1  0.57764174  0.62411681  0.16604462  1  0  -0.083356  0  3.800698  0  0  -0.096351  0  4.055885  0  0  -0.09989  0  4.078016  0  0  -0.099025  -0.093972  0  4.04072  0
C  C52  1  0.07763223  0.54201008  0.16618444  1  0  -0.08425  0  3.800436  0  0  -0.097115  0  4.055695  0  0  -0.10066  0  4.077824  0  0  -0.099165  -0.094739  0  4.040529  0
C  C53  1  0.42236408  0.37588138  0.83395196  1  0  -0.083509  0  3.80066  0  0  -0.09651  0  4.055868  0  0  -0.100048  0  4.077996  0  0  -0.099075  -0.09413  0  4.040701  0
C  C54  1  0.96780357  0.35817343  0.71741544  1  0  -0.104916  0  3.754899  0  0  -0.127735  0  4.004729  0  0  -0.128231  0  4.02553  0  0  -0.089483  -0.127191  0  3.990534  0
C  C55  1  0.53224617  0.64066070  0.28246118  1  0  -0.105076  0  3.755453  0  0  -0.128133  0  4.005195  0  0  -0.128638  0  4.025995  0  0  -0.089489  -0.127578  0  3.990998  0
C  C56  1  0.03219448  0.64182576  0.28258713  1  0  -0.104873  0  3.754842  0  0  -0.127649  0  4.004661  0  0  -0.128146  0  4.025461  0  0  -0.089451  -0.127099  0  3.990454  0
C  C57  1  0.46776098  0.35933750  0.71753797  1  0  -0.105025  0  3.755572  0  0  -0.128091  0  4.005286  0  0  -0.128601  0  4.026088  0  0  -0.089491  -0.127533  0  3.991085  0
C  C58  1  0.06220154  0.38848500  0.63578892  1  0  0.049106  0  3.795222  0  0  0.067986  0  4.017551  0  0  0.066518  0  4.04287  0  0  -0.008565  0.068891  0  4.000359  0
C  C59  1  0.43792332  0.75257703  0.36410937  1  0  0.048454  0  3.795565  0  0  0.067991  0  4.016995  0  0  0.066527  0  4.042317  0  0  -0.00874  0.068898  0  3.999803  0
C  C60  1  0.93779385  0.61151318  0.36421310  1  0  0.048922  0  3.795141  0  0  0.067757  0  4.017552  0  0  0.066293  0  4.04286  0  0  -0.008666  0.068659  0  4.000363  0
C  C61  1  0.56208007  0.24742516  0.63589060  1  0  0.04858  0  3.795446  0  0  0.068104  0  4.016923  0  0  0.066644  0  4.042233  0  0  -0.008702  0.069007  0  3.999732  0
C  C62  1  0.10312968  0.28682465  0.51379552  1  0  -0.103429  0  3.724624  0  0  -0.122037  0  3.969221  0  0  -0.124337  0  3.990996  0  0  -0.086299  -0.120315  0  3.9544  0
C  C63  1  0.39703997  0.77289024  0.48613105  1  0  -0.102797  0  3.724916  0  0  -0.121753  0  3.969333  0  0  -0.124076  0  3.991109  0  0  -0.086373  -0.120028  0  3.954517  0
C  C64  1  0.89686837  0.71317454  0.48620706  1  0  -0.103261  0  3.724568  0  0  -0.121858  0  3.969172  0  0  -0.124155  0  3.990953  0  0  -0.086217  -0.120131  0  3.954358  0
C  C65  1  0.60296852  0.22710896  0.51386609  1  0  -0.102886  0  3.725077  0  0  -0.121809  0  3.969526  0  0  -0.124107  0  3.991315  0  0  -0.086398  -0.120094  0  3.954693  0
C  C66  1  0.19593602  0.31587119  0.43461861  1  0  -0.069471  0  3.762158  0  0  -0.085189  0  4.017341  0  0  -0.08709  0  4.037368  0  0  -0.090288  -0.083844  0  4.003657  0
C  C67  1  0.30423922  0.88109671  0.56528328  1  0  -0.069499  0  3.761294  0  0  -0.085156  0  4.016522  0  0  -0.087054  0  4.036541  0  0  -0.089975  -0.083807  0  4.002854  0
C  C68  1  0.80406333  0.68412799  0.56538318  1  0  -0.069524  0  3.762289  0  0  -0.085249  0  4.01747  0  0  -0.087147  0  4.037494  0  0  -0.090302  -0.08391  0  4.003805  0
C  C69  1  0.69576539  0.11890348  0.43471416  1  0  -0.069508  0  3.76137  0  0  -0.08514  0  4.016557  0  0  -0.087037  0  4.036566  0  0  -0.089963  -0.083782  0  4.002866  0
C  C70  1  0.25037343  0.44970698  0.47527607  1  0  -0.069025  0  3.793914  0  0  -0.084422  0  4.051599  0  0  -0.08605  0  4.073413  0  0  -0.093522  -0.083144  0  4.036663  0
C  C71  1  0.24978773  0.97429056  0.52461594  1  0  -0.069484  0  3.794535  0  0  -0.084974  0  4.052162  0  0  -0.086618  0  4.073958  0  0  -0.09364  -0.083681  0  4.037221  0
C  C72  1  0.74962070  0.55029221  0.52472634  1  0  -0.068936  0  3.793968  0  0  -0.084302  0  4.051625  0  0  -0.085912  0  4.073439  0  0  -0.093524  -0.083027  0  4.036697  0
C  C73  1  0.75021814  0.02570864  0.47538027  1  0  -0.069478  0  3.794512  0  0  -0.084956  0  4.052138  0  0  -0.086597  0  4.073931  0  0  -0.093626  -0.083668  0  4.037193  0
C  C74  1  0.21178606  0.55137836  0.59264059  1  0  -0.124609  0  3.747621  0  0  -0.145915  0  4.000257  0  0  -0.148654  0  4.021152  0  0  -0.094846  -0.144044  0  3.986094  0
C  C75  1  0.28836274  0.95862450  0.40723317  1  0  -0.124479  0  3.748533  0  0  -0.145664  0  4.001029  0  0  -0.148387  0  4.021907  0  0  -0.094848  -0.143805  0  3.986864  0
C  C76  1  0.78820809  0.44862182  0.40735809  1  0  -0.124639  0  3.747602  0  0  -0.14595  0  4.00025  0  0  -0.148684  0  4.021134  0  0  -0.094798  -0.144069  0  3.986071  0
C  C77  1  0.71164179  0.04137369  0.59276420  1  0  -0.124434  0  3.748679  0  0  -0.145592  0  4.001148  0  0  -0.148315  0  4.022027  0  0  -0.094826  -0.143732  0  3.986994  0
C  C78  1  0.11727123  0.52438799  0.67675166  1  0  0.042755  0  3.752207  0  0  0.055379  0  3.96988  0  0  0.055983  0  3.994108  0  0  -0.002744  0.055032  0  3.953526  0
C  C79  1  0.38282884  0.84754896  0.32315221  1  0  0.043333  0  3.752122  0  0  0.055847  0  3.969629  0  0  0.056415  0  3.993853  0  0  -0.002451  0.055517  0  3.953277  0
C  C80  1  0.88272547  0.47561020  0.32324957  1  0  0.042841  0  3.752171  0  0  0.055455  0  3.969881  0  0  0.056058  0  3.994109  0  0  -0.002764  0.055109  0  3.953521  0
C  C81  1  0.61717572  0.15245023  0.67684478  1  0  0.043314  0  3.752033  0  0  0.055757  0  3.969582  0  0  0.056339  0  3.993815  0  0  -0.002433  0.055436  0  3.953234  0
O  O82  1  0.00908304  0.85834285  0.90468575  1  0  -0.735097  0  2.028681  0  0  -0.672068  0  2.282156  0  0  -0.701454  0  2.273538  0  0  -0.380092  -0.651005  0  2.287283  0
O  O83  1  0.49083384  0.95381068  0.09531632  1  0  -0.735112  0  2.027505  0  0  -0.671996  0  2.280956  0  0  -0.70139  0  2.27235  0  0  -0.380218  -0.65093  0  2.286077  0
O  O84  1  0.99092154  0.14165634  0.09531459  1  0  -0.735058  0  2.028644  0  0  -0.672016  0  2.282138  0  0  -0.701401  0  2.273521  0  0  -0.380145  -0.65095  0  2.287258  0
O  O85  1  0.50916438  0.04619251  0.90468390  1  0  -0.735202  0  2.027474  0  0  -0.67204  0  2.280906  0  0  -0.701434  0  2.272294  0  0  -0.380207  -0.650974  0  2.286029  0
O  O86  1  0.27504809  0.80408647  0.83853943  1  0  -0.683166  0  1.997638  0  0  -0.617998  0  2.224848  0  0  -0.644932  0  2.214509  0  0  -0.329451  -0.598897  0  2.231374  0
O  O87  1  0.22492014  0.96563282  0.16152693  1  0  -0.683246  0  1.997884  0  0  -0.618038  0  2.225078  0  0  -0.644962  0  2.21475  0  0  -0.329649  -0.598935  0  2.231562  0
O  O88  1  0.72495244  0.19591072  0.16145229  1  0  -0.683143  0  1.997678  0  0  -0.617989  0  2.224951  0  0  -0.644924  0  2.214611  0  0  -0.32944  -0.598886  0  2.231473  0
O  O89  1  0.77508042  0.03436437  0.83847066  1  0  -0.68333  0  1.997886  0  0  -0.618085  0  2.22507  0  0  -0.645011  0  2.214737  0  0  -0.329695  -0.598985  0  2.231564  0
O  O90  1  0.89495266  0.89474454  0.15135218  1  0  -0.87322  0  1.802276  0  0  -0.822153  0  1.990345  0  0  -0.841138  0  1.959638  0  0  -0.607897  -0.808449  0  2.011875  0
O  O91  1  0.60504739  0.74345501  0.84869483  1  0  -0.873166  0  1.802871  0  0  -0.822032  0  1.990579  0  0  -0.841019  0  1.959875  0  0  -0.607946  -0.808326  0  2.012113  0
O  O92  1  0.10503994  0.10527863  0.84866192  1  0  -0.873192  0  1.802319  0  0  -0.822113  0  1.990345  0  0  -0.841098  0  1.95964  0  0  -0.607805  -0.808405  0  2.011872  0
O  O93  1  0.39494531  0.25654117  0.15131119  1  0  -0.873228  0  1.802834  0  0  -0.822058  0  1.990506  0  0  -0.841046  0  1.959793  0  0  -0.607947  -0.808352  0  2.012041  0
