# generated using pymatgen
data_ZnH20C27(NO2)6
_symmetry_space_group_name_H-M   'P 1'
_cell_length_a   5.29315445
_cell_length_b   11.04574150
_cell_length_c   12.52658705
_cell_angle_alpha   112.64906411
_cell_angle_beta   102.16286445
_cell_angle_gamma   90.01869947
_symmetry_Int_Tables_number   1
_chemical_formula_structural   ZnH20C27(NO2)6
_chemical_formula_sum   'Zn1 H20 C27 N6 O12'
_cell_volume   658.03696335
_cell_formula_units_Z   1
loop_
 _symmetry_equiv_pos_site_id
 _symmetry_equiv_pos_as_xyz
  1  'x, y, z'
loop_
 _atom_site_type_symbol
 _atom_site_label
 _atom_site_symmetry_multiplicity
 _atom_site_fract_x
 _atom_site_fract_y
 _atom_site_fract_z
 _atom_site_occupancy
 _atom_site_hle17_bader_spin_density
 _atom_site_hle17_ddec_charge
 _atom_site_hle17_ddec_spin_density
 _atom_site_hle17_ddec_sum_bond_order
 _atom_site_hle17_magmom
 _atom_site_hse06_10hf_bader_spin_density
 _atom_site_hse06_10hf_ddec_charge
 _atom_site_hse06_10hf_ddec_spin_density
 _atom_site_hse06_10hf_ddec_sum_bond_order
 _atom_site_hse06_10hf_magmom
 _atom_site_hse06_bader_spin_density
 _atom_site_hse06_ddec_charge
 _atom_site_hse06_ddec_spin_density
 _atom_site_hse06_ddec_sum_bond_order
 _atom_site_hse06_magmom
 _atom_site_pbe_bader_spin_density
 _atom_site_pbe_cm5_charge
 _atom_site_pbe_ddec_charge
 _atom_site_pbe_ddec_spin_density
 _atom_site_pbe_ddec_sum_bond_order
 _atom_site_pbe_magmom
Zn  Zn0  1  0.86815472  0.49997067  0.99996632  1  0  1.006514  0  1.767231  0  0  0.80668  0  2.230872  0  0  0.855565  0  2.179225  0  0  0.700427  0.772309  0  2.266818  0
H  H1  1  0.08277184  0.74431079  0.91239666  1  0  0.115702  0  0.944991  0  0  0.126248  0  1.004241  0  0  0.129479  0  1.003314  0  0  0.110324  0.123961  0  1.005127  0
H  H2  1  0.17013947  0.25555912  0.08760043  1  0  0.116749  0  0.944063  0  0  0.127245  0  1.003307  0  0  0.13046  0  1.00243  0  0  0.111243  0.124967  0  1.004185  0
H  H3  1  0.36693600  0.56171966  0.87465648  1  0  0.093578  0  0.967263  0  0  0.098981  0  1.034579  0  0  0.101981  0  1.031062  0  0  0.116948  0.096654  0  1.037384  0
H  H4  1  0.49204959  0.43813717  0.12514289  1  0  0.092658  0  0.968339  0  0  0.099066  0  1.03465  0  0  0.102093  0  1.031092  0  0  0.116651  0.096691  0  1.037548  0
H  H5  1  0.92866835  0.77396877  0.17703297  1  0  0.080551  0  0.963013  0  0  0.090207  0  1.025275  0  0  0.092331  0  1.023788  0  0  0.115672  0.088647  0  1.026403  0
H  H6  1  0.75243075  0.22570272  0.82296283  1  0  0.079382  0  0.961482  0  0  0.089055  0  1.024  0  0  0.091166  0  1.02248  0  0  0.11552  0.087505  0  1.025135  0
H  H7  1  0.67237961  0.96868495  0.22654185  1  0  0.11387  0  0.948504  0  0  0.123781  0  1.009768  0  0  0.126671  0  1.009247  0  0  0.105992  0.121718  0  1.010337  0
H  H8  1  0.44663085  0.03095816  0.77356820  1  0  0.11454  0  0.94789  0  0  0.124701  0  1.008532  0  0  0.127637  0  1.00796  0  0  0.106597  0.122622  0  1.00908  0
H  H9  1  0.33625176  0.08180037  0.14250575  1  0  0.081747  0  0.949819  0  0  0.09656  0  1.016176  0  0  0.097545  0  1.016333  0  0  0.093483  0.095881  0  1.016206  0
H  H10  1  0.19318138  0.91798285  0.85741880  1  0  0.081169  0  0.949177  0  0  0.095799  0  1.016295  0  0  0.096736  0  1.016457  0  0  0.093475  0.095106  0  1.016333  0
H  H11  1  0.10396808  0.99459941  0.17339780  1  0  0.08189  0  0.941873  0  0  0.10226  0  1.00258  0  0  0.102452  0  1.002996  0  0  0.097579  0.102245  0  1.002286  0
H  H12  1  0.93055784  0.00558860  0.82698340  1  0  0.082188  0  0.941416  0  0  0.102734  0  1.002314  0  0  0.102935  0  1.002656  0  0  0.097822  0.102665  0  1.002082  0
H  H13  1  0.88275708  0.08573324  0.03614794  1  0  0.075619  0  0.948753  0  0  0.093664  0  1.010941  0  0  0.094449  0  1.011865  0  0  0.091027  0.093069  0  1.010383  0
H  H14  1  0.84665208  0.91422679  0.96421001  1  0  0.075859  0  0.948323  0  0  0.094306  0  1.010021  0  0  0.094994  0  1.011084  0  0  0.091235  0.093766  0  1.009359  0
H  H15  1  0.65017837  0.42620091  0.54655621  1  0  0.125313  0  0.943214  0  0  0.127347  0  1.014768  0  0  0.131487  0  1.011509  0  0  0.115845  0.124278  0  1.017168  0
H  H16  1  0.10311028  0.57399781  0.45342164  1  0  0.124847  0  0.944123  0  0  0.126763  0  1.015819  0  0  0.131033  0  1.012399  0  0  0.115731  0.123625  0  1.018284  0
H  H17  1  0.13669600  0.16762439  0.33952067  1  0  0.134086  0  0.962106  0  0  0.132289  0  1.039548  0  0  0.137516  0  1.034099  0  0  0.122093  0.128516  0  1.043421  0
H  H18  1  0.79664130  0.83245867  0.66047456  1  0  0.134961  0  0.962404  0  0  0.133198  0  1.039571  0  0  0.138378  0  1.034161  0  0  0.122795  0.129506  0  1.043319  0
H  H19  1  0.27453420  0.26617543  0.71688976  1  0  0.127071  0  0.954019  0  0  0.127911  0  1.027518  0  0  0.131702  0  1.024539  0  0  0.118641  0.12513  0  1.029742  0
H  H20  1  0.55733805  0.73414716  0.28305348  1  0  0.125663  0  0.95636  0  0  0.127546  0  1.028924  0  0  0.131259  0  1.026021  0  0  0.118457  0.124807  0  1.031074  0
C  C21  1  0.26802697  0.75668772  0.97484325  1  0  -0.172169  0  3.690182  0  0  -0.193402  0  3.946164  0  0  -0.202087  0  3.965424  0  0  -0.085468  -0.187945  0  3.93345  0
C  C22  1  0.29338792  0.24307396  0.02523445  1  0  -0.172402  0  3.688838  0  0  -0.193559  0  3.945417  0  0  -0.202285  0  3.964665  0  0  -0.085865  -0.188127  0  3.932801  0
C  C23  1  0.42459596  0.65279562  0.95259964  1  0  0.160117  0  3.683168  0  0  0.122104  0  3.942773  0  0  0.132798  0  3.956259  0  0  0.050794  0.115059  0  3.93392  0
C  C24  1  0.47211370  0.34698746  0.04734158  1  0  0.159842  0  3.681363  0  0  0.120848  0  3.941404  0  0  0.131506  0  3.954887  0  0  0.050369  0.113812  0  3.932582  0
C  C25  1  0.74031157  0.77230474  0.12089018  1  0  0.1243  0  3.726239  0  0  0.091874  0  3.977333  0  0  0.09959  0  3.996054  0  0  0.040509  0.086869  0  3.964517  0
C  C26  1  0.61995046  0.22738178  0.87908055  1  0  0.125491  0  3.725573  0  0  0.09302  0  3.976532  0  0  0.100767  0  3.995261  0  0  0.040322  0.08799  0  3.963717  0
C  C27  1  0.59607072  0.88025091  0.14732828  1  0  -0.16953  0  3.695137  0  0  -0.186577  0  3.941752  0  0  -0.195443  0  3.963194  0  0  -0.085879  -0.1808  0  3.927383  0
C  C28  1  0.44919606  0.11942159  0.85271068  1  0  -0.170106  0  3.693601  0  0  -0.186786  0  3.939506  0  0  -0.195748  0  3.960901  0  0  -0.085599  -0.180911  0  3.92512  0
C  C29  1  0.35327029  0.87488335  0.07328785  1  0  0.167475  0  3.685591  0  0  0.184922  0  3.917399  0  0  0.191047  0  3.9395  0  0  0.018245  0.181015  0  3.902397  0
C  C30  1  0.28028556  0.12488159  0.92679596  1  0  0.165746  0  3.685153  0  0  0.183051  0  3.91758  0  0  0.189214  0  3.939549  0  0  0.017156  0.179072  0  3.902665  0
C  C31  1  0.19849891  0.99302514  0.10249495  1  0  -0.165637  0  3.69683  0  0  -0.207219  0  3.942512  0  0  -0.208892  0  3.955397  0  0  -0.159822  -0.206068  0  3.933622  0
C  C32  1  0.09602965  0.00688050  0.89767778  1  0  -0.16239  0  3.693278  0  0  -0.204893  0  3.941091  0  0  -0.206375  0  3.953603  0  0  -0.158951  -0.203727  0  3.93229  0
C  C33  1  0.99067125  0.99996444  0.00015456  1  0  -0.108692  0  3.688619  0  0  -0.152677  0  3.95143  0  0  -0.153699  0  3.965087  0  0  -0.16981  -0.151792  0  3.942032  0
C  C34  1  0.86460385  0.42317172  0.75812498  1  0  0.629941  0  3.926807  0  0  0.580524  0  4.219747  0  0  0.614513  0  4.213847  0  0  0.202588  0.557526  0  4.22288  0
C  C35  1  0.10613958  0.57684696  0.24185247  1  0  0.632123  0  3.926105  0  0  0.582633  0  4.219132  0  0  0.616633  0  4.213151  0  0  0.203604  0.55965  0  4.222276  0
C  C36  1  0.95697343  0.35600545  0.64462183  1  0  -0.02718  0  3.671423  0  0  -0.003082  0  3.908994  0  0  -0.012567  0  3.929252  0  0  -0.001309  0.002676  0  3.895465  0
C  C37  1  0.31188802  0.64425892  0.35533690  1  0  -0.029018  0  3.673132  0  0  -0.004949  0  3.910617  0  0  -0.014416  0  3.930869  0  0  -0.001709  0.000785  0  3.897109  0
C  C38  1  0.81516606  0.36723344  0.54169715  1  0  -0.06505  0  3.657203  0  0  -0.109148  0  3.918504  0  0  -0.104757  0  3.934977  0  0  -0.060078  -0.111361  0  3.907212  0
C  C39  1  0.27299324  0.63295228  0.45825622  1  0  -0.061766  0  3.656948  0  0  -0.104849  0  3.917474  0  0  -0.100539  0  3.933869  0  0  -0.058144  -0.107028  0  3.906278  0
C  C40  1  0.88186018  0.29916152  0.43379013  1  0  0.076088  0  3.707894  0  0  0.066165  0  3.960789  0  0  0.060786  0  3.983108  0  0  0.079194  0.069225  0  3.945818  0
C  C41  1  0.44746053  0.70102270  0.56617451  1  0  0.076514  0  3.706404  0  0  0.06516  0  3.960781  0  0  0.059796  0  3.983113  0  0  0.078101  0.068199  0  3.945818  0
C  C42  1  0.08792427  0.22076229  0.42437953  1  0  -0.098191  0  3.675883  0  0  -0.143073  0  3.94336  0  0  -0.138166  0  3.957066  0  0  -0.060656  -0.145731  0  3.934093  0
C  C43  1  0.66302871  0.77942350  0.57559997  1  0  -0.101111  0  3.678695  0  0  -0.145056  0  3.946593  0  0  -0.140071  0  3.960293  0  0  -0.061633  -0.147717  0  3.937196  0
C  C44  1  0.22519421  0.21094039  0.52783759  1  0  0.070965  0  3.67831  0  0  0.068363  0  3.937565  0  0  0.062939  0  3.958578  0  0  0.082564  0.071428  0  3.923632  0
C  C45  1  0.69681677  0.78932491  0.47214342  1  0  0.07194  0  3.679603  0  0  0.068665  0  3.939728  0  0  0.063196  0  3.960789  0  0  0.083729  0.071763  0  3.92569  0
C  C46  1  0.16488948  0.27731837  0.63802326  1  0  -0.024255  0  3.589315  0  0  -0.068046  0  3.846977  0  0  -0.06077  0  3.859782  0  0  -0.045287  -0.072478  0  3.838457  0
C  C47  1  0.52645608  0.72296663  0.36193528  1  0  -0.023735  0  3.590872  0  0  -0.068187  0  3.848209  0  0  -0.060815  0  3.861063  0  0  -0.045836  -0.072633  0  3.839662  0
N  N48  1  0.65700338  0.65952408  0.02441137  1  0  -0.348296  0  3.30781  0  0  -0.259663  0  3.588318  0  0  -0.28081  0  3.602041  0  0  -0.336077  -0.245317  0  3.579068  0
N  N49  1  0.63289320  0.34020449  0.97550700  1  0  -0.347425  0  3.305995  0  0  -0.259066  0  3.587167  0  0  -0.280195  0  3.600897  0  0  -0.335787  -0.244726  0  3.577895  0
N  N50  1  0.71707849  0.29982561  0.32372806  1  0  0.480987  0  3.933361  0  0  0.533261  0  4.19076  0  0  0.554989  0  4.198375  0  0  0.061754  0.518689  0  4.185733  0
N  N51  1  0.39271588  0.70027835  0.67622318  1  0  0.479468  0  3.930347  0  0  0.533363  0  4.190113  0  0  0.555059  0  4.197798  0  0  0.062194  0.518819  0  4.185053  0
N  N52  1  0.43687378  0.12398611  0.51732579  1  0  0.504991  0  3.90526  0  0  0.527977  0  4.212412  0  0  0.549626  0  4.220354  0  0  0.058372  0.513511  0  4.207059  0
N  N53  1  0.91906460  0.87623062  0.48255500  1  0  0.505037  0  3.90805  0  0  0.528153  0  4.215349  0  0  0.549812  0  4.223281  0  0  0.058329  0.513666  0  4.210035  0
O  O54  1  0.01393549  0.42208822  0.85426028  1  0  -0.641333  0  2.039661  0  0  -0.563615  0  2.305919  0  0  -0.59362  0  2.293646  0  0  -0.323471  -0.542348  0  2.313602  0
O  O55  1  0.15929427  0.57795251  0.14567186  1  0  -0.64243  0  2.040196  0  0  -0.56493  0  2.307275  0  0  -0.595032  0  2.2951  0  0  -0.324076  -0.543625  0  2.31483  0
O  O56  1  0.65204444  0.47156337  0.75143800  1  0  -0.590928  0  1.936112  0  0  -0.551994  0  2.167362  0  0  -0.576077  0  2.16219  0  0  -0.312737  -0.534925  0  2.170328  0
O  O57  1  0.90048139  0.52827027  0.24860943  1  0  -0.59184  0  1.93466  0  0  -0.553093  0  2.166358  0  0  -0.577153  0  2.161155  0  0  -0.313539  -0.535996  0  2.169302  0
O  O58  1  0.48295263  0.06702030  0.41744039  1  0  -0.363231  0  1.759929  0  0  -0.347971  0  1.978348  0  0  -0.361538  0  1.976836  0  0  -0.130444  -0.338872  0  1.979505  0
O  O59  1  0.06493301  0.93324595  0.58239892  1  0  -0.36302  0  1.761283  0  0  -0.347613  0  1.979397  0  0  -0.361186  0  1.977929  0  0  -0.13039  -0.338513  0  1.980482  0
O  O60  1  0.55904353  0.11242153  0.60823441  1  0  -0.353458  0  1.785915  0  0  -0.337018  0  2.007738  0  0  -0.350308  0  2.006168  0  0  -0.116921  -0.328146  0  2.008985  0
O  O61  1  0.95042121  0.88767171  0.39155933  1  0  -0.353412  0  1.787408  0  0  -0.337333  0  2.009925  0  0  -0.350621  0  2.008333  0  0  -0.117053  -0.328455  0  2.011185  0
O  O62  1  0.77990092  0.23498355  0.22921639  1  0  -0.334712  0  1.779957  0  0  -0.32288  0  1.975799  0  0  -0.335866  0  1.973841  0  0  -0.111329  -0.314125  0  1.977247  0
O  O63  1  0.55040995  0.76484082  0.77064076  1  0  -0.334926  0  1.779729  0  0  -0.325032  0  1.977582  0  0  -0.33797  0  1.975527  0  0  -0.11268  -0.31636  0  1.979124  0
O  O64  1  0.52057859  0.36092870  0.33143432  1  0  -0.340583  0  1.757245  0  0  -0.328005  0  1.947874  0  0  -0.342228  0  1.946824  0  0  -0.117678  -0.318525  0  1.948769  0
O  O65  1  0.18815557  0.63948597  0.66867978  1  0  -0.338154  0  1.752972  0  0  -0.326707  0  1.94503  0  0  -0.340907  0  1.943919  0  0  -0.117152  -0.317172  0  1.945846  0
