# generated using pymatgen
data_CdH8C14S3OF8
_symmetry_space_group_name_H-M   'P 1'
_cell_length_a   7.51410899
_cell_length_b   9.04433642
_cell_length_c   26.32330000
_cell_angle_alpha   90.00000000
_cell_angle_beta   90.00000000
_cell_angle_gamma   99.55844191
_symmetry_Int_Tables_number   1
_chemical_formula_structural   CdH8C14S3OF8
_chemical_formula_sum   'Cd4 H32 C56 S12 O4 F32'
_cell_volume   1764.09862957
_cell_formula_units_Z   4
loop_
 _symmetry_equiv_pos_site_id
 _symmetry_equiv_pos_as_xyz
  1  'x, y, z'
loop_
 _atom_site_type_symbol
 _atom_site_label
 _atom_site_symmetry_multiplicity
 _atom_site_fract_x
 _atom_site_fract_y
 _atom_site_fract_z
 _atom_site_occupancy
 _atom_site_hle17_bader_spin_density
 _atom_site_hle17_ddec_charge
 _atom_site_hle17_ddec_spin_density
 _atom_site_hle17_ddec_sum_bond_order
 _atom_site_hle17_magmom
 _atom_site_hse06_10hf_bader_spin_density
 _atom_site_hse06_10hf_ddec_charge
 _atom_site_hse06_10hf_ddec_spin_density
 _atom_site_hse06_10hf_ddec_sum_bond_order
 _atom_site_hse06_10hf_magmom
 _atom_site_hse06_bader_spin_density
 _atom_site_hse06_ddec_charge
 _atom_site_hse06_ddec_spin_density
 _atom_site_hse06_ddec_sum_bond_order
 _atom_site_hse06_magmom
 _atom_site_pbe_bader_charge
 _atom_site_pbe_bader_spin_density
 _atom_site_pbe_cm5_charge
 _atom_site_pbe_ddec_charge
 _atom_site_pbe_ddec_spin_density
 _atom_site_pbe_ddec_sum_bond_order
 _atom_site_pbe_magmom
Cd  Cd0  1  0.23275964  0.96072648  0.48947282  1  0  0.804817  0  2.014049  0  0  0.646204  0  2.467838  0  0  0.692887  0  2.43137  0  0.997355  0  0.534893  0.613743  0  2.49227  0
Cd  Cd1  1  0.26724218  0.53927494  0.98947130  1  0  0.804836  0  2.014032  0  0  0.646403  0  2.467605  0  0  0.692915  0  2.431375  0  0.997344  0  0.534907  0.613772  0  2.492264  0
Cd  Cd2  1  0.76723833  0.03927335  0.51052794  1  0  0.804848  0  2.013973  0  0  0.646408  0  2.467532  0  0  0.692929  0  2.431286  0  0.997369  0  0.534912  0.613787  0  2.492174  0
Cd  Cd3  1  0.73276179  0.46072825  0.01052718  1  0  0.804859  0  2.014005  0  0  0.646235  0  2.467812  0  0  0.692465  0  2.431873  0  0.997356  0  0.534917  0.613789  0  2.492219  0
H  H4  1  0.25377318  0.48861886  0.50655845  1  0  0.157237  0  0.942345  0  0  0.16967  0  1.0068  0  0  0.172714  0  1.004434  0  0.134623  0  0.098461  0.167487  0  1.008461  0
H  H5  1  0.24622215  0.01137937  0.00655845  1  0  0.157238  0  0.942336  0  0  0.169707  0  1.006687  0  0  0.172718  0  1.004411  0  0.134549  0  0.098469  0.167494  0  1.008445  0
H  H6  1  0.74622412  0.51137760  0.49344155  1  0  0.157286  0  0.942313  0  0  0.169744  0  1.006671  0  0  0.172755  0  1.004402  0  0.134558  0  0.09848  0.16753  0  1.008429  0
H  H7  1  0.75377294  0.98861934  0.99344193  1  0  0.157238  0  0.942334  0  0  0.169675  0  1.006784  0  0  0.172717  0  1.004401  0  0.13458  0  0.098468  0.167491  0  1.008447  0
H  H8  1  0.30137672  0.38697594  0.45130360  1  0  0.145464  0  0.96602  0  0  0.162861  0  1.027339  0  0  0.164502  0  1.027797  0  0.105711  0  0.089319  0.161578  0  1.027241  0
H  H9  1  0.19862016  0.11302341  0.95130398  1  0  0.145448  0  0.965997  0  0  0.162847  0  1.027306  0  0  0.164481  0  1.027777  0  0.105699  0  0.08931  0.161561  0  1.027226  0
H  H10  1  0.69862103  0.61302277  0.54869564  1  0  0.145467  0  0.966016  0  0  0.162857  0  1.027329  0  0  0.164493  0  1.027803  0  0.10574  0  0.089307  0.161572  0  1.027247  0
H  H11  1  0.80137648  0.88697641  0.04869640  1  0  0.145417  0  0.966063  0  0  0.162796  0  1.027407  0  0  0.164436  0  1.02784  0  0.105736  0  0.089287  0.161522  0  1.027299  0
H  H12  1  0.07359904  0.41831322  0.46309999  1  0  0.159047  0  0.938619  0  0  0.175026  0  0.998261  0  0  0.177368  0  0.997832  0  0.12734  0  0.099988  0.173303  0  0.998701  0
H  H13  1  0.42639784  0.08168614  0.96309999  1  0  0.159037  0  0.93863  0  0  0.175024  0  0.998263  0  0  0.177363  0  0.997836  0  0.127383  0  0.099997  0.173298  0  0.998712  0
H  H14  1  0.92639826  0.58168325  0.53690001  1  0  0.159073  0  0.938638  0  0  0.175062  0  0.998262  0  0  0.177403  0  0.99784  0  0.127371  0  0.099998  0.173338  0  0.99871  0
H  H15  1  0.57359770  0.91831481  0.03690077  1  0  0.159021  0  0.938631  0  0  0.175001  0  0.998274  0  0  0.177343  0  0.997822  0  0.127328  0  0.099974  0.173278  0  0.998715  0
H  H16  1  0.04412377  0.52869725  0.37413774  1  0  0.152588  0  0.962773  0  0  0.164099  0  1.029875  0  0  0.16692  0  1.028354  0  0.127639  0  0.096626  0.162029  0  1.031078  0
H  H17  1  0.45587229  0.97130866  0.87413812  1  0  0.152583  0  0.962725  0  0  0.164086  0  1.029847  0  0  0.166907  0  1.028319  0  0.127481  0  0.096638  0.162017  0  1.031053  0
H  H18  1  0.95587066  0.47130482  0.62586188  1  0  0.152562  0  0.962792  0  0  0.16407  0  1.029905  0  0  0.16689  0  1.028377  0  0.127264  0  0.096616  0.162  0  1.031111  0
H  H19  1  0.54412414  0.02869678  0.12586226  1  0  0.15256  0  0.962758  0  0  0.16407  0  1.029867  0  0  0.166889  0  1.028305  0  0.127452  0  0.096619  0.162  0  1.03107  0
H  H20  1  0.26711548  0.49417568  0.35741871  1  0  0.154308  0  0.924042  0  0  0.175575  0  0.975123  0  0  0.177581  0  0.974395  0  0.094771  0  0.104846  0.174098  0  0.975696  0
H  H21  1  0.23288097  0.00582816  0.85741909  1  0  0.154244  0  0.924089  0  0  0.175516  0  0.975168  0  0  0.17747  0  0.974569  0  0.094695  0  0.1048  0.174051  0  0.975732  0
H  H22  1  0.73288162  0.50582639  0.64258091  1  0  0.154259  0  0.924093  0  0  0.17553  0  0.975173  0  0  0.177485  0  0.974571  0  0.094724  0  0.104826  0.17406  0  0.97574  0
H  H23  1  0.76711657  0.99417616  0.14258129  1  0  0.154294  0  0.924057  0  0  0.175561  0  0.975134  0  0  0.177513  0  0.974513  0  0.094766  0  0.104845  0.174085  0  0.975708  0
H  H24  1  0.20795156  0.67626242  0.34707768  1  0  0.146266  0  0.933021  0  0  0.163327  0  0.9931  0  0  0.165288  0  0.992172  0  0.090142  0  0.099374  0.161965  0  0.993645  0
H  H25  1  0.29204561  0.82374237  0.84707692  1  0  0.146296  0  0.932978  0  0  0.16334  0  0.993077  0  0  0.165291  0  0.992174  0  0.090269  0  0.099384  0.161977  0  0.993631  0
H  H26  1  0.79204420  0.32373965  0.65292232  1  0  0.146249  0  0.933016  0  0  0.163306  0  0.9931  0  0  0.165258  0  0.992193  0  0.090229  0  0.099374  0.161943  0  0.993651  0
H  H27  1  0.70795215  0.17626306  0.15292232  1  0  0.146269  0  0.932992  0  0  0.163311  0  0.993099  0  0  0.165158  0  0.992432  0  0.090138  0  0.099371  0.161948  0  0.993645  0
H  H28  1  0.73366796  0.72417709  0.26524866  1  0  0.171224  0  0.917641  0  0  0.172459  0  0.985664  0  0  0.177778  0  0.980691  0  0.151747  0  0.117289  0.168715  0  0.989188  0
H  H29  1  0.76632978  0.77582321  0.76524790  1  0  0.171189  0  0.917702  0  0  0.17247  0  0.985671  0  0  0.177702  0  0.98089  0  0.151702  0  0.11729  0.168724  0  0.989204  0
H  H30  1  0.26633200  0.27581938  0.73475286  1  0  0.17122  0  0.917668  0  0  0.17251  0  0.985617  0  0  0.17774  0  0.980835  0  0.151786  0  0.117306  0.168769  0  0.989135  0
H  H31  1  0.23368041  0.22418446  0.23475362  1  0  0.171247  0  0.917556  0  0  0.172508  0  0.985552  0  0  0.177774  0  0.98066  0  0.151755  0  0.117326  0.168762  0  0.989079  0
H  H32  1  0.66430725  0.19332707  0.25644543  1  0  0.167467  0  0.905879  0  0  0.176228  0  0.96173  0  0  0.180319  0  0.959234  0  0.151673  0  0.12189  0.173315  0  0.963615  0
H  H33  1  0.83569309  0.30667564  0.75644315  1  0  0.167496  0  0.905757  0  0  0.176196  0  0.961688  0  0  0.180278  0  0.959232  0  0.151683  0  0.121888  0.173283  0  0.963574  0
H  H34  1  0.33569183  0.80667163  0.74355533  1  0  0.167495  0  0.905858  0  0  0.176234  0  0.961743  0  0  0.180295  0  0.959315  0  0.151724  0  0.121869  0.17332  0  0.963631  0
H  H35  1  0.16430732  0.69332306  0.24355571  1  0  0.167455  0  0.905861  0  0  0.176188  0  0.961747  0  0  0.180273  0  0.959245  0  0.151701  0  0.121891  0.173275  0  0.963633  0
C  C36  1  0.50745933  0.07246738  0.31695418  1  0  0.223688  0  3.842645  0  0  0.194442  0  4.151267  0  0  0.203564  0  4.161594  0  0.529371  0  0.080829  0.188296  0  4.14382  0
C  C37  1  0.99254301  0.42753197  0.81695228  1  0  0.223761  0  3.842544  0  0  0.194478  0  4.151167  0  0  0.203592  0  4.161505  0  0.529398  0  0.080822  0.188332  0  4.143729  0
C  C38  1  0.49254552  0.92753357  0.68304734  1  0  0.22379  0  3.842514  0  0  0.194524  0  4.151149  0  0  0.203642  0  4.161475  0  0.529444  0  0.080865  0.188377  0  4.143711  0
C  C39  1  0.00745761  0.57246113  0.18304696  1  0  0.223783  0  3.842444  0  0  0.194557  0  4.151057  0  0  0.203426  0  4.162248  0  0.529287  0  0.080907  0.18841  0  4.143615  0
C  C40  1  0.54837242  0.17477855  0.40293618  1  0  -0.056562  0  3.877676  0  0  -0.060784  0  4.158852  0  0  -0.057207  0  4.178393  0  0.010463  0  -0.035212  -0.06336  0  4.145739  0
C  C41  1  0.95163037  0.32522304  0.90293466  1  0  -0.056449  0  3.877648  0  0  -0.06073  0  4.158903  0  0  -0.057151  0  4.178415  0  0.010634  0  -0.035196  -0.063291  0  4.145759  0
C  C42  1  0.45162778  0.82522576  0.59706420  1  0  -0.05648  0  3.877639  0  0  -0.060722  0  4.158871  0  0  -0.057137  0  4.178386  0  0.010486  0  -0.035185  -0.063288  0  4.145738  0
C  C43  1  0.04837204  0.67477230  0.09706458  1  0  -0.056525  0  3.877666  0  0  -0.06073  0  4.158837  0  0  -0.057385  0  4.179136  0  0.010368  0  -0.035183  -0.063285  0  4.145673  0
C  C44  1  0.97160842  0.01050145  0.33454240  1  0  0.151125  0  3.78427  0  0  0.119004  0  4.089041  0  0  0.125287  0  4.099627  0  0.503771  0  0.073543  0.114515  0  4.082113  0
C  C45  1  0.52839658  0.48949791  0.83454278  1  0  0.151104  0  3.784155  0  0  0.118964  0  4.088998  0  0  0.125246  0  4.099585  0  0.503773  0  0.073542  0.114478  0  4.082092  0
C  C46  1  0.02839200  0.98949726  0.66545760  1  0  0.15128  0  3.784217  0  0  0.119159  0  4.088952  0  0  0.125445  0  4.099539  0  0.503762  0  0.07362  0.114673  0  4.082046  0
C  C47  1  0.47160805  0.51050192  0.16545570  1  0  0.150931  0  3.784119  0  0  0.118859  0  4.088932  0  0  0.125239  0  4.099169  0  0.504115  0  0.073528  0.114368  0  4.082002  0
C  C48  1  0.91594116  0.96920299  0.38426223  1  0  -0.053049  0  3.855894  0  0  -0.05788  0  4.135131  0  0  -0.055045  0  4.156635  0  0.043656  0  -0.032041  -0.060021  0  4.120803  0
C  C49  1  0.58406722  0.53079732  0.88426223  1  0  -0.052946  0  3.855885  0  0  -0.057901  0  4.135472  0  0  -0.054964  0  4.156624  0  0.043974  0  -0.032  -0.059951  0  4.120827  0
C  C50  1  0.08406146  0.03079348  0.61573853  1  0  -0.053172  0  3.855979  0  0  -0.05814  0  4.135604  0  0  -0.055201  0  4.156754  0  0.043768  0  -0.032071  -0.060186  0  4.120952  0
C  C51  1  0.41593474  0.46920251  0.11573663  1  0  -0.053003  0  3.855895  0  0  -0.057931  0  4.135199  0  0  -0.055198  0  4.15699  0  0.043639  0  -0.032018  -0.060066  0  4.120863  0
C  C52  1  0.46767864  0.06565815  0.36852484  1  0  0.146005  0  3.78671  0  0  0.113751  0  4.087838  0  0  0.120779  0  4.098558  0  0.435013  0  0.070194  0.109572  0  4.080491  0
C  C53  1  0.03232755  0.43434121  0.86852294  1  0  0.145792  0  3.786739  0  0  0.113565  0  4.08788  0  0  0.120597  0  4.098568  0  0.435749  0  0.070146  0.109388  0  4.080525  0
C  C54  1  0.53232466  0.93434168  0.63147630  1  0  0.145855  0  3.786728  0  0  0.1136  0  4.08789  0  0  0.120638  0  4.098577  0  0.43495  0  0.070184  0.109424  0  4.080533  0
C  C55  1  0.96767862  0.56565301  0.13147592  1  0  0.14598  0  3.786637  0  0  0.113601  0  4.087881  0  0  0.119301  0  4.099342  0  0.435131  0  0.070156  0.109421  0  4.08054  0
C  C56  1  0.79489143  0.83381551  0.38908799  1  0  0.155135  0  3.779754  0  0  0.12454  0  4.080708  0  0  0.131753  0  4.090304  0  0.507494  0  0.076467  0.119043  0  4.074815  0
C  C57  1  0.70511208  0.66618704  0.88908761  1  0  0.155228  0  3.779925  0  0  0.124094  0  4.081294  0  0  0.131875  0  4.090478  0  0.507473  0  0.076527  0.119165  0  4.075024  0
C  C58  1  0.20510876  0.16618208  0.61091277  1  0  0.155176  0  3.779764  0  0  0.124044  0  4.081051  0  0  0.131836  0  4.090233  0  0.508033  0  0.076537  0.119116  0  4.074778  0
C  C59  1  0.29488879  0.33382064  0.11091087  1  0  0.155195  0  3.779661  0  0  0.124676  0  4.080598  0  0  0.131864  0  4.090231  0  0.507804  0  0.076519  0.119178  0  4.074703  0
C  C60  1  0.21730389  0.46472544  0.46676329  1  0  -0.424365  0  3.555623  0  0  -0.491703  0  3.801005  0  0  -0.495478  0  3.8051  0  -0.290311  0  -0.2398  -0.488784  0  3.798211  0
C  C61  1  0.28269299  0.03527392  0.96676367  1  0  -0.424315  0  3.555535  0  0  -0.491629  0  3.800827  0  0  -0.495427  0  3.804972  0  -0.290268  0  -0.239795  -0.488751  0  3.798121  0
C  C62  1  0.78269386  0.53527327  0.53323633  1  0  -0.42445  0  3.555598  0  0  -0.491759  0  3.800886  0  0  -0.495555  0  3.80504  0  -0.290308  0  -0.239827  -0.488878  0  3.798178  0
C  C63  1  0.71730233  0.96472591  0.03323671  1  0  -0.424268  0  3.555603  0  0  -0.491599  0  3.801012  0  0  -0.495371  0  3.805069  0  -0.290286  0  -0.239754  -0.488688  0  3.798211  0
C  C64  1  0.73125200  0.74798530  0.34696410  1  0  0.228389  0  3.808149  0  0  0.198838  0  4.115332  0  0  0.208941  0  4.123108  0  0.476194  0  0.08346  0.191624  0  4.11062  0
C  C65  1  0.76874530  0.75201949  0.84696372  1  0  0.228391  0  3.808319  0  0  0.198723  0  4.115898  0  0  0.208917  0  4.123361  0  0.476204  0  0.083484  0.19162  0  4.110825  0
C  C66  1  0.26874419  0.25201229  0.65303818  1  0  0.228376  0  3.808165  0  0  0.198717  0  4.115709  0  0  0.20891  0  4.123159  0  0.475699  0  0.083405  0.191614  0  4.110635  0
C  C67  1  0.23125047  0.24798931  0.15303742  1  0  0.228353  0  3.80809  0  0  0.198791  0  4.115293  0  0  0.208859  0  4.123141  0  0.475929  0  0.083451  0.191577  0  4.110581  0
C  C68  1  0.67527989  0.29027428  0.38192628  1  0  0.154542  0  3.776061  0  0  0.121232  0  4.078604  0  0  0.127917  0  4.088055  0  0.523731  0  0.075373  0.116319  0  4.072892  0
C  C69  1  0.82471802  0.20972956  0.88192552  1  0  0.154588  0  3.776116  0  0  0.121272  0  4.078635  0  0  0.127948  0  4.088069  0  0.523814  0  0.075389  0.116354  0  4.072928  0
C  C70  1  0.32471632  0.70973003  0.61807372  1  0  0.154527  0  3.776034  0  0  0.121198  0  4.078599  0  0  0.127873  0  4.088035  0  0.523733  0  0.075305  0.116283  0  4.072886  0
C  C71  1  0.17527996  0.79027027  0.11807448  1  0  0.154526  0  3.776193  0  0  0.121232  0  4.078635  0  0  0.127915  0  4.088014  0  0.523769  0  0.075347  0.11631  0  4.072937  0
C  C72  1  0.63197360  0.18800123  0.29672799  1  0  -0.271883  0  3.767739  0  0  -0.316607  0  4.055508  0  0  -0.321202  0  4.070422  0  0.05431  0  -0.115039  -0.31339  0  4.045457  0
C  C73  1  0.86802918  0.31200037  0.79672647  1  0  -0.271791  0  3.767652  0  0  -0.316467  0  4.055362  0  0  -0.321199  0  4.070548  0  0.054176  0  -0.11499  -0.313253  0  4.045317  0
C  C74  1  0.36802703  0.81199860  0.70327277  1  0  -0.27186  0  3.767695  0  0  -0.316574  0  4.055456  0  0  -0.321285  0  4.070644  0  0.054201  0  -0.115011  -0.313357  0  4.045408  0
C  C75  1  0.13197078  0.68799610  0.20327353  1  0  -0.271686  0  3.767602  0  0  -0.3164  0  4.055307  0  0  -0.321079  0  4.070371  0  0.054157  0  -0.114991  -0.313183  0  4.045255  0
C  C76  1  0.71548633  0.29627062  0.33034346  1  0  0.230423  0  3.826084  0  0  0.198012  0  4.139737  0  0  0.208698  0  4.147103  0  0.561893  0  0.083142  0.19051  0  4.135024  0
C  C77  1  0.78451246  0.20373097  0.83034194  1  0  0.230246  0  3.826241  0  0  0.197922  0  4.139768  0  0  0.208529  0  4.147378  0  0.561906  0  0.083055  0.190421  0  4.135064  0
C  C78  1  0.28451498  0.70373257  0.66965654  1  0  0.230379  0  3.82628  0  0  0.198002  0  4.139897  0  0  0.208608  0  4.147501  0  0.561869  0  0.083184  0.1905  0  4.13519  0
C  C79  1  0.21548107  0.79626661  0.16965768  1  0  0.230175  0  3.826336  0  0  0.197807  0  4.139902  0  0  0.208411  0  4.147442  0  0.561889  0  0.083053  0.190306  0  4.135195  0
C  C80  1  0.18737925  0.57673638  0.37151611  1  0  -0.425731  0  3.572738  0  0  -0.498924  0  3.823691  0  0  -0.502572  0  3.828467  0  -0.230497  0  -0.234618  -0.496058  0  3.820279  0
C  C81  1  0.31261659  0.92326841  0.87151611  1  0  -0.425683  0  3.572644  0  0  -0.498868  0  3.823628  0  0  -0.502545  0  3.828476  0  -0.230391  0  -0.234585  -0.496  0  3.82019  0
C  C82  1  0.81261496  0.42326457  0.62848389  1  0  -0.425598  0  3.572737  0  0  -0.498794  0  3.823689  0  0  -0.502476  0  3.828554  0  -0.230145  0  -0.234564  -0.495935  0  3.820288  0
C  C83  1  0.68737984  0.07673703  0.12848389  1  0  -0.425663  0  3.572672  0  0  -0.498847  0  3.823641  0  0  -0.502599  0  3.82869  0  -0.230304  0  -0.234603  -0.495977  0  3.820218  0
C  C84  1  0.90825296  0.92347920  0.29265100  1  0  0.21513  0  3.833996  0  0  0.186744  0  4.141176  0  0  0.195086  0  4.152225  0  0.486719  0  0.078824  0.180832  0  4.13397  0
C  C85  1  0.59175010  0.57652110  0.79265100  1  0  0.215002  0  3.833913  0  0  0.186641  0  4.141081  0  0  0.194984  0  4.152127  0  0.486597  0  0.078771  0.18073  0  4.133901  0
C  C86  1  0.09174301  0.07651726  0.70734938  1  0  0.21519  0  3.833817  0  0  0.186825  0  4.140952  0  0  0.195163  0  4.151994  0  0.486509  0  0.07886  0.180913  0  4.133774  0
C  C87  1  0.40825563  0.42347760  0.20735052  1  0  0.215211  0  3.833897  0  0  0.186792  0  4.141117  0  0  0.19581  0  4.151286  0  0.486614  0  0.078825  0.18088  0  4.13391  0
C  C88  1  0.78700759  0.79058197  0.29797442  1  0  -0.268989  0  3.754566  0  0  -0.31371  0  4.040949  0  0  -0.31767  0  4.054982  0  0.084455  0  -0.116026  -0.310838  0  4.031436  0
C  C89  1  0.71298838  0.70942281  0.79797366  1  0  -0.268964  0  3.754543  0  0  -0.313729  0  4.040909  0  0  -0.317722  0  4.055058  0  0.08447  0  -0.116022  -0.310855  0  4.031413  0
C  C90  1  0.21298506  0.20941785  0.70202596  1  0  -0.269053  0  3.754554  0  0  -0.31385  0  4.040899  0  0  -0.317861  0  4.055099  0  0.084387  0  -0.116041  -0.310975  0  4.031407  0
C  C91  1  0.28701560  0.29058710  0.20202406  1  0  -0.269051  0  3.754529  0  0  -0.313784  0  4.040949  0  0  -0.317575  0  4.054535  0  0.084472  0  -0.116038  -0.310911  0  4.031434  0
S  S92  1  0.50168297  0.17447919  0.46786041  1  0  -0.382648  0  2.350184  0  0  -0.347443  0  2.736971  0  0  -0.368434  0  2.729879  0  -0.276025  0  -0.190692  -0.332297  0  2.741404  0
S  S93  1  0.99831871  0.32552353  0.96785965  1  0  -0.382622  0  2.350099  0  0  -0.347247  0  2.736667  0  0  -0.368395  0  2.729879  0  -0.276115  0  -0.190662  -0.332255  0  2.741337  0
S  S94  1  0.49831101  0.82552064  0.53213959  1  0  -0.382628  0  2.350217  0  0  -0.34722  0  2.736691  0  0  -0.368361  0  2.729838  0  -0.276016  0  -0.190676  -0.332225  0  2.741362  0
S  S95  1  0.00168793  0.67447966  0.03213997  1  0  -0.382606  0  2.350169  0  0  -0.347393  0  2.736905  0  0  -0.368547  0  2.730272  0  -0.276003  0  -0.190684  -0.332255  0  2.741328  0
S  S96  1  0.99218646  0.08812312  0.43491925  1  0  -0.350652  0  2.260527  0  0  -0.314903  0  2.644324  0  0  -0.336015  0  2.63815  0  -0.277624  0  -0.194014  -0.299742  0  2.648339  0
S  S97  1  0.50782143  0.41187735  0.93491925  1  0  -0.350687  0  2.260585  0  0  -0.314992  0  2.644568  0  0  -0.336039  0  2.638299  0  -0.277829  0  -0.194027  -0.299759  0  2.648439  0
S  S98  1  0.00781506  0.91187446  0.56508113  1  0  -0.350636  0  2.260566  0  0  -0.314947  0  2.644522  0  0  -0.335995  0  2.638194  0  -0.277703  0  -0.194032  -0.299715  0  2.648391  0
S  S99  1  0.49218275  0.58812023  0.06507961  1  0  -0.350671  0  2.260514  0  0  -0.314908  0  2.644378  0  0  -0.336148  0  2.638585  0  -0.277651  0  -0.19403  -0.299752  0  2.648396  0
S  S100  1  0.26779061  0.63880659  0.43342058  1  0  0.694783  0  3.59438  0  0  0.661674  0  4.04468  0  0  0.679145  0  4.040663  0  1.166017  0  0.266738  0.649471  0  4.047042  0
S  S101  1  0.23220832  0.86119372  0.93341982  1  0  0.694726  0  3.594409  0  0  0.661584  0  4.04485  0  0  0.679108  0  4.040676  0  1.165972  0  0.266706  0.649426  0  4.047066  0
S  S102  1  0.73220869  0.36119324  0.56657980  1  0  0.694744  0  3.594472  0  0  0.66161  0  4.044901  0  0  0.679133  0  4.040724  0  1.165964  0  0.26672  0.649455  0  4.047115  0
S  S103  1  0.76779121  0.13880723  0.06657942  1  0  0.694729  0  3.594386  0  0  0.661605  0  4.044692  0  0  0.678753  0  4.041274  0  1.166006  0  0.266713  0.649401  0  4.047056  0
O  O104  1  0.12761292  0.73239122  0.45215493  1  0  -0.627684  0  1.957399  0  0  -0.551397  0  2.226651  0  0  -0.576937  0  2.21982  0  -1.219378  0  -0.3714  -0.533253  0  2.230567  0
O  O105  1  0.37238890  0.76761020  0.95215266  1  0  -0.627662  0  1.957439  0  0  -0.551447  0  2.226813  0  0  -0.576939  0  2.219857  0  -1.219355  0  -0.371399  -0.533241  0  2.2306  0
O  O106  1  0.87238772  0.26760860  0.54784696  1  0  -0.627675  0  1.957459  0  0  -0.551465  0  2.226829  0  0  -0.576953  0  2.219876  0  -1.219358  0  -0.371399  -0.533265  0  2.230621  0
O  O107  1  0.62761351  0.23239187  0.04784507  1  0  -0.627673  0  1.957402  0  0  -0.551362  0  2.226633  0  0  -0.577051  0  2.220315  0  -1.219366  0  -0.371389  -0.533219  0  2.230547  0
F  F108  1  0.76261879  0.39920969  0.41270167  1  0  -0.167626  0  1.281449  0  0  -0.108249  0  1.448696  0  0  -0.116754  0  1.439282  0  -0.642522  0  -0.080374  -0.102121  0  1.455306  0
F  F109  1  0.73737359  0.10079976  0.91270130  1  0  -0.167565  0  1.281456  0  0  -0.108215  0  1.44874  0  0  -0.116716  0  1.439303  0  -0.642504  0  -0.080328  -0.102082  0  1.455332  0
F  F110  1  0.23737566  0.60079911  0.58729719  1  0  -0.167613  0  1.281476  0  0  -0.108233  0  1.448744  0  0  -0.116733  0  1.439308  0  -0.642475  0  -0.080342  -0.1021  0  1.455334  0
F  F111  1  0.26262084  0.89920231  0.08729833  1  0  -0.16759  0  1.281546  0  0  -0.108199  0  1.448746  0  0  -0.116706  0  1.439318  0  -0.642433  0  -0.080334  -0.102071  0  1.45536  0
F  F112  1  0.34753212  0.94628615  0.38528148  1  0  -0.179838  0  1.330055  0  0  -0.117642  0  1.509452  0  0  -0.131276  0  1.504227  0  -0.646288  0  -0.086577  -0.110396  0  1.515154  0
F  F113  1  0.15248212  0.55371079  0.88527768  1  0  -0.179809  0  1.330069  0  0  -0.117593  0  1.509435  0  0  -0.131228  0  1.504203  0  -0.647098  0  -0.086578  -0.110345  0  1.515131  0
F  F114  1  0.65247894  0.05371255  0.61471928  1  0  -0.179809  0  1.329983  0  0  -0.117607  0  1.509379  0  0  -0.13126  0  1.504156  0  -0.646312  0  -0.08661  -0.110358  0  1.515072  0
F  F115  1  0.84752649  0.44628231  0.11471852  1  0  -0.179935  0  1.330051  0  0  -0.117625  0  1.509398  0  0  -0.127616  0  1.501091  0  -0.646353  0  -0.086593  -0.110382  0  1.515103  0
F  F116  1  0.08710575  0.14077499  0.32639639  1  0  -0.170762  0  1.236861  0  0  -0.116659  0  1.3986  0  0  -0.12514  0  1.389727  0  -0.630871  0  -0.093989  -0.110464  0  1.404644  0
F  F117  1  0.41290754  0.35921988  0.82639715  1  0  -0.170733  0  1.23685  0  0  -0.116634  0  1.398618  0  0  -0.125117  0  1.389753  0  -0.630898  0  -0.093968  -0.11044  0  1.404663  0
F  F118  1  0.91290287  0.85922483  0.67360437  1  0  -0.17077  0  1.236882  0  0  -0.116689  0  1.398638  0  0  -0.125172  0  1.389772  0  -0.630937  0  -0.094006  -0.110494  0  1.404684  0
F  F119  1  0.58710750  0.64077210  0.17360057  1  0  -0.170661  0  1.236934  0  0  -0.116552  0  1.398665  0  0  -0.124942  0  1.3897  0  -0.631203  0  -0.093965  -0.110358  0  1.404708  0
F  F120  1  0.60945785  0.62081196  0.35413417  1  0  -0.175174  0  1.246622  0  0  -0.132466  0  1.425322  0  0  -0.140998  0  1.415177  0  -0.632798  0  -0.09132  -0.126226  0  1.432244  0
F  F121  1  0.89054099  0.87918723  0.85413265  1  0  -0.175178  0  1.24668  0  0  -0.132526  0  1.425522  0  0  -0.141118  0  1.415409  0  -0.632808  0  -0.091342  -0.126228  0  1.432309  0
F  F122  1  0.39054543  0.37918114  0.64586545  1  0  -0.175162  0  1.246603  0  0  -0.132513  0  1.425434  0  0  -0.141103  0  1.415319  0  -0.632752  0  -0.091305  -0.126214  0  1.432219  0
F  F123  1  0.10945079  0.12082157  0.14586697  1  0  -0.175133  0  1.246569  0  0  -0.132422  0  1.42527  0  0  -0.141075  0  1.415312  0  -0.63274  0  -0.091324  -0.126182  0  1.432191  0
F  F124  1  0.73365051  0.78575395  0.43569803  1  0  -0.171913  0  1.302456  0  0  -0.115079  0  1.481237  0  0  -0.125194  0  1.472954  0  -0.633585  0  -0.088371  -0.106929  0  1.486314  0
F  F125  1  0.76635611  0.71425083  0.93569727  1  0  -0.171967  0  1.302512  0  0  -0.1137  0  1.480227  0  0  -0.125288  0  1.473043  0  -0.633569  0  -0.08842  -0.107017  0  1.486401  0
F  F126  1  0.26634835  0.21424363  0.56430273  1  0  -0.171945  0  1.302469  0  0  -0.113651  0  1.480147  0  0  -0.125256  0  1.472973  0  -0.633543  0  -0.088435  -0.106967  0  1.48632  0
F  F127  1  0.23364120  0.28575236  0.06430159  1  0  -0.171949  0  1.3024  0  0  -0.115153  0  1.481192  0  0  -0.125277  0  1.472922  0  -0.633612  0  -0.088417  -0.107006  0  1.486274  0
F  F128  1  0.84041761  0.41029530  0.31283388  1  0  -0.167505  0  1.249169  0  0  -0.122478  0  1.42417  0  0  -0.131096  0  1.413375  0  -0.62779  0  -0.087632  -0.116132  0  1.431463  0
F  F129  1  0.65957387  0.08970966  0.81283388  1  0  -0.167522  0  1.249164  0  0  -0.12252  0  1.424131  0  0  -0.131176  0  1.413449  0  -0.627806  0  -0.087635  -0.116176  0  1.431425  0
F  F130  1  0.15958724  0.58970565  0.68716726  1  0  -0.167539  0  1.249253  0  0  -0.122516  0  1.424241  0  0  -0.131172  0  1.41356  0  -0.627752  0  -0.087666  -0.116172  0  1.431535  0
F  F131  1  0.34041125  0.91029241  0.18716840  1  0  -0.167505  0  1.249249  0  0  -0.122501  0  1.424229  0  0  -0.131153  0  1.413551  0  -0.627732  0  -0.087647  -0.116157  0  1.431523  0
F  F132  1  0.42269121  0.96168962  0.28644205  1  0  -0.180643  0  1.228896  0  0  -0.129368  0  1.389188  0  0  -0.13782  0  1.379808  0  -0.631432  0  -0.097812  -0.123581  0  1.395946  0
F  F133  1  0.07731393  0.53830844  0.78644015  1  0  -0.180683  0  1.228867  0  0  -0.129389  0  1.389155  0  0  -0.137838  0  1.379767  0  -0.631438  0  -0.097822  -0.123602  0  1.395915  0
F  F134  1  0.57731719  0.03830909  0.71355909  1  0  -0.180694  0  1.228903  0  0  -0.129394  0  1.389189  0  0  -0.137846  0  1.379803  0  -0.631437  0  -0.097828  -0.123608  0  1.395948  0
F  F135  1  0.92268337  0.46168802  0.21355909  1  0  -0.180708  0  1.228878  0  0  -0.129425  0  1.389151  0  0  -0.138001  0  1.380023  0  -0.631386  0  -0.097852  -0.123639  0  1.39591  0
F  F136  1  0.96305430  0.97353318  0.24546049  1  0  -0.182632  0  1.21764  0  0  -0.128853  0  1.375076  0  0  -0.137079  0  1.365541  0  -0.62494  0  -0.096341  -0.12287  0  1.381575  0
F  F137  1  0.53694764  0.52646152  0.74546049  1  0  -0.182619  0  1.217591  0  0  -0.128845  0  1.375027  0  0  -0.137074  0  1.36549  0  -0.624864  0  -0.096367  -0.122862  0  1.381526  0
F  F138  1  0.03694587  0.02645768  0.75453951  1  0  -0.182688  0  1.217592  0  0  -0.128889  0  1.375001  0  0  -0.137117  0  1.365467  0  -0.624837  0  -0.096372  -0.122907  0  1.381502  0
F  F139  1  0.46307496  0.47354167  0.25453799  1  0  -0.182613  0  1.217698  0  0  -0.128817  0  1.375144  0  0  -0.139039  0  1.367491  0  -0.624936  0  -0.096359  -0.122834  0  1.381643  0
