# generated using pymatgen
data_H8AuC4SI
_symmetry_space_group_name_H-M   'P 1'
_cell_length_a   8.07115962
_cell_length_b   11.27453053
_cell_length_c   15.95600000
_cell_angle_alpha   90.00000000
_cell_angle_beta   90.00000000
_cell_angle_gamma   90.00000000
_symmetry_Int_Tables_number   1
_chemical_formula_structural   H8AuC4SI
_chemical_formula_sum   'H64 Au8 C32 S8 I8'
_cell_volume   1451.97263413
_cell_formula_units_Z   8
loop_
 _symmetry_equiv_pos_site_id
 _symmetry_equiv_pos_as_xyz
  1  'x, y, z'
loop_
 _atom_site_type_symbol
 _atom_site_label
 _atom_site_symmetry_multiplicity
 _atom_site_fract_x
 _atom_site_fract_y
 _atom_site_fract_z
 _atom_site_occupancy
 _atom_site_pbe_bader_charge
 _atom_site_pbe_bader_spin_density
 _atom_site_pbe_cm5_charge
 _atom_site_pbe_ddec_charge
 _atom_site_pbe_ddec_spin_density
 _atom_site_pbe_ddec_sum_bond_order
 _atom_site_pbe_magmom
H  H0  1  0.65387135  0.07531666  0.32552833  1  0.063363  0  0.085619  0.097961  0  1.039656  0
H  H1  1  0.15387256  0.57531442  0.17447293  1  0.063325  0  0.085639  0.097979  0  1.039558  0
H  H2  1  0.84612749  0.07531311  0.82552645  1  0.063345  0  0.085612  0.097954  0  1.039588  0
H  H3  1  0.34612746  0.57531619  0.67447293  1  0.063383  0  0.085636  0.097965  0  1.039594  0
H  H4  1  0.55057516  0.21538192  0.33527137  1  0.087245  0  0.079436  0.097382  0  1.051908  0
H  H5  1  0.05057390  0.71537968  0.16472926  1  0.087334  0  0.079432  0.097382  0  1.0519  0
H  H6  1  0.94942491  0.21537837  0.83527074  1  0.087268  0  0.079446  0.0974  0  1.051901  0
H  H7  1  0.44942613  0.71538145  0.66472926  1  0.087242  0  0.07943  0.097357  0  1.051952  0
H  H8  1  0.90407703  0.17076365  0.26944159  1  0.028638  0  0.080486  0.087733  0  1.010306  0
H  H9  1  0.40407577  0.67076230  0.23055904  1  0.028635  0  0.080483  0.087758  0  1.010283  0
H  H10  1  0.59592304  0.17076365  0.76944034  1  0.028633  0  0.080517  0.087751  0  1.010326  0
H  H11  1  0.09592302  0.67076585  0.73055904  1  0.028612  0  0.080507  0.087735  0  1.010246  0
H  H12  1  0.74184136  0.24121093  0.21429556  1  0.039871  0  0.089364  0.096992  0  1.020937  0
H  H13  1  0.24184133  0.74120958  0.28570569  1  0.039837  0  0.089354  0.097015  0  1.020983  0
H  H14  1  0.75815995  0.24121004  0.71429431  1  0.039834  0  0.089351  0.096992  0  1.020996  0
H  H15  1  0.25815993  0.74121224  0.78570569  1  0.039824  0  0.08935  0.096992  0  1.021003  0
H  H16  1  0.94748095  0.38955946  0.28537666  1  0.033691  0  0.082207  0.083624  0  1.032153  0
H  H17  1  0.44747969  0.88955810  0.21462459  1  0.033675  0  0.082217  0.083604  0  1.032098  0
H  H18  1  0.55252284  0.38955857  0.78537666  1  0.033696  0  0.082215  0.083626  0  1.032161  0
H  H19  1  0.05252405  0.88956254  0.71462459  1  0.033736  0  0.082214  0.083613  0  1.032148  0
H  H20  1  0.73807486  0.40674953  0.31789672  1  0.034852  0  0.079638  0.086734  0  1.015446  0
H  H21  1  0.23807360  0.90674818  0.18210391  1  0.034845  0  0.07963  0.086693  0  1.015466  0
H  H22  1  0.76192893  0.40674776  0.81789734  1  0.034822  0  0.079623  0.086697  0  1.015472  0
H  H23  1  0.26193138  0.90675084  0.68210328  1  0.034772  0  0.079642  0.086732  0  1.015519  0
H  H24  1  0.87750340  0.38885344  0.45256017  1  0.066183  0  0.079999  0.100037  0  1.052059  0
H  H25  1  0.37750090  0.88885209  0.04744109  1  0.066234  0  0.080003  0.100062  0  1.052092  0
H  H26  1  0.62250039  0.38884989  0.95255954  1  0.066245  0  0.080006  0.100042  0  1.052113  0
H  H27  1  0.12249913  0.88885475  0.54744109  1  0.066205  0  0.079996  0.100049  0  1.052069  0
H  H28  1  0.02228428  0.28320736  0.41106982  1  0.087827  0  0.077966  0.093757  0  1.055318  0
H  H29  1  0.52228431  0.78320778  0.08893081  1  0.087832  0  0.077965  0.093773  0  1.0553  0
H  H30  1  0.47771574  0.28320736  0.91106919  1  0.087834  0  0.077965  0.093772  0  1.055294  0
H  H31  1  0.97771700  0.78321133  0.58893206  1  0.087872  0  0.077978  0.093728  0  1.055302  0
H  H32  1  0.37430929  0.11128091  0.68381487  1  0.099459  0  0.076402  0.088811  0  1.07865  0
H  H33  1  0.87430931  0.61128133  0.81618513  1  0.099456  0  0.0764  0.088826  0  1.078612  0
H  H34  1  0.12568950  0.11128268  0.18381424  1  0.099452  0  0.07643  0.088823  0  1.07865  0
H  H35  1  0.62569076  0.61127955  0.31618513  1  0.099432  0  0.076402  0.088799  0  1.07863  0
H  H36  1  0.27735668  0.21134805  0.75632928  1  0.102181  0  0.077901  0.10001  0  1.038097  0
H  H37  1  0.77735794  0.71134935  0.74367072  1  0.102169  0  0.077919  0.100014  0  1.038087  0
H  H38  1  0.22264087  0.21135071  0.25632865  1  0.102199  0  0.077925  0.100035  0  1.038062  0
H  H39  1  0.72264337  0.71134758  0.24367135  1  0.102191  0  0.07791  0.100035  0  1.038069  0
H  H40  1  0.12887367  0.10552457  0.59573703  1  0.067632  0  0.077276  0.084774  0  1.026474  0
H  H41  1  0.62887618  0.60552499  0.90426235  1  0.067643  0  0.07729  0.084778  0  1.026457  0
H  H42  1  0.37112511  0.10552457  0.09573703  1  0.067617  0  0.077265  0.084747  0  1.026472  0
H  H43  1  0.87112513  0.60552410  0.40426297  1  0.067609  0  0.077292  0.084787  0  1.026451  0
H  H44  1  0.03879988  0.11051014  0.69721735  1  0.054656  0  0.091821  0.101913  0  0.995257  0
H  H45  1  0.53880114  0.61051056  0.80278203  1  0.054671  0  0.091829  0.101914  0  0.995245  0
H  H46  1  0.46119767  0.11051192  0.19721797  1  0.054686  0  0.091835  0.101933  0  0.995208  0
H  H47  1  0.96120017  0.61050968  0.30278328  1  0.054629  0  0.091829  0.101914  0  0.995242  0
H  H48  1  0.92673300  0.27235369  0.59353033  1  0.044025  0  0.082181  0.089134  0  1.027869  0
H  H49  1  0.42673546  0.77235411  0.90647029  1  0.044074  0  0.082175  0.089118  0  1.027892  0
H  H50  1  0.57326335  0.27235458  0.09352908  1  0.042716  0  0.082191  0.089157  0  1.027856  0
H  H51  1  0.07326333  0.77235411  0.40647092  1  0.044054  0  0.082212  0.089178  0  1.027856  0
H  H52  1  0.01250006  0.33112066  0.68700426  1  0.037991  0  0.079657  0.084764  0  1.017671  0
H  H53  1  0.51250132  0.83112108  0.81299574  1  0.037984  0  0.079654  0.084759  0  1.017667  0
H  H54  1  0.48749872  0.33112066  0.18700175  1  0.038029  0  0.079665  0.084739  0  1.017694  0
H  H55  1  0.98749751  0.83112019  0.31299699  1  0.038026  0  0.079673  0.084757  0  1.017664  0
H  H56  1  0.15620060  0.44216741  0.57721171  1  0.068509  0  0.084435  0.098758  0  1.045778  0
H  H57  1  0.65620187  0.94216961  0.92278704  1  0.068481  0  0.084428  0.098755  0  1.045762  0
H  H58  1  0.34379694  0.44216653  0.07721108  1  0.06852  0  0.084422  0.098722  0  1.045815  0
H  H59  1  0.84379449  0.94216695  0.42278955  1  0.068532  0  0.084399  0.098693  0  1.04586  0
H  H60  1  0.18489536  0.31184447  0.51531775  1  0.072011  0  0.079233  0.095019  0  1.059812  0
H  H61  1  0.68489663  0.81184666  0.98468162  1  0.07199  0  0.079235  0.095058  0  1.059793  0
H  H62  1  0.31510218  0.31184447  0.01531650  1  0.071973  0  0.079211  0.095003  0  1.059861  0
H  H63  1  0.81510097  0.81184223  0.48468288  1  0.071983  0  0.079226  0.095025  0  1.059813  0
Au  Au64  1  0.46234125  0.00040623  0.52398910  1  -0.059898  0  0.101877  0.002152  0  3.100002  0
Au  Au65  1  0.96233879  0.50040576  0.97601028  1  -0.059923  0  0.101882  0.002161  0  3.099983  0
Au  Au66  1  0.03766002  0.00040623  0.02398972  1  -0.059924  0  0.101884  0.002187  0  3.099943  0
Au  Au67  1  0.53766128  0.50040576  0.47601090  1  -0.059916  0  0.101906  0.002232  0  3.099966  0
Au  Au68  1  0.55456096  0.25260564  0.53046691  1  0.111803  0  0.211371  -0.073199  0  2.996127  0
Au  Au69  1  0.05456341  0.75260429  0.96953309  1  0.111647  0  0.211389  -0.073163  0  2.996139  0
Au  Au70  1  0.94543664  0.25260475  0.03046566  1  0.111805  0  0.211366  -0.073221  0  2.996148  0
Au  Au71  1  0.44543785  0.75260517  0.46953246  1  0.111765  0  0.211386  -0.073168  0  2.996149  0
C  C72  1  0.67139671  0.17068116  0.33572575  1  -0.112259  0  -0.154575  -0.188141  0  3.841388  0
C  C73  1  0.17139545  0.67067981  0.16427613  1  -0.11235  0  -0.154598  -0.188154  0  3.841327  0
C  C74  1  0.82860336  0.17067850  0.83572324  1  -0.112323  0  -0.1546  -0.188205  0  3.841456  0
C  C75  1  0.32860334  0.67068070  0.66427551  1  -0.11229  0  -0.154599  -0.188164  0  3.841418  0
C  C76  1  0.79561554  0.22881396  0.27684445  1  -0.004879  0  -0.173602  -0.141277  0  3.928331  0
C  C77  1  0.29561304  0.72881261  0.22315681  1  -0.004906  0  -0.173615  -0.141401  0  3.928489  0
C  C78  1  0.70438701  0.22881219  0.77684319  1  -0.004909  0  -0.173601  -0.14127  0  3.928447  0
C  C79  1  0.20438823  0.72881616  0.72315681  1  -0.004827  0  -0.173611  -0.141274  0  3.928286  0
C  C80  1  0.84446973  0.34581662  0.31808285  1  -0.000444  0  -0.172452  -0.134117  0  3.917138  0
C  C81  1  0.34446723  0.84581526  0.18191840  1  -0.000377  0  -0.172444  -0.133975  0  3.917071  0
C  C82  1  0.65553282  0.34581484  0.81808223  1  -0.000376  0  -0.172466  -0.134067  0  3.917148  0
C  C83  1  0.15553403  0.84581881  0.68191777  1  -0.000434  0  -0.172442  -0.134049  0  3.917083  0
C  C84  1  0.89440184  0.31608766  0.40777137  1  -0.127135  0  -0.157351  -0.182656  0  3.81178  0
C  C85  1  0.39440058  0.81608631  0.09222988  1  -0.127267  0  -0.157363  -0.182746  0  3.811937  0
C  C86  1  0.60560071  0.31608500  0.90777074  1  -0.127249  0  -0.157352  -0.182697  0  3.811926  0
C  C87  1  0.10560193  0.81608986  0.59222988  1  -0.127212  0  -0.157373  -0.182689  0  3.811813  0
C  C88  1  0.28592050  0.18464183  0.69025194  1  -0.197015  0  -0.158191  -0.188434  0  3.827368  0
C  C89  1  0.78592176  0.68464314  0.80974743  1  -0.197023  0  -0.158196  -0.188464  0  3.827324  0
C  C90  1  0.21407581  0.18464361  0.19025132  1  -0.197033  0  -0.158253  -0.188536  0  3.827386  0
C  C91  1  0.71407831  0.68464137  0.30974806  1  -0.197026  0  -0.1582  -0.188467  0  3.827296  0
C  C92  1  0.11584209  0.15995078  0.65257646  1  -0.032103  0  -0.171693  -0.133458  0  3.905841  0
C  C93  1  0.61584335  0.65995209  0.84742354  1  -0.032084  0  -0.171695  -0.133406  0  3.90579  0
C  C94  1  0.38415422  0.15994990  0.15257583  1  -0.032097  0  -0.171691  -0.133407  0  3.90577  0
C  C95  1  0.88415672  0.65995032  0.34742479  1  -0.032292  0  -0.171722  -0.133469  0  3.905776  0
C  C96  1  0.04173502  0.28030879  0.62998809  1  -0.020014  0  -0.17269  -0.137889  0  3.927939  0
C  C97  1  0.54173628  0.78031010  0.87001191  1  -0.020041  0  -0.172688  -0.137901  0  3.928002  0
C  C98  1  0.45826253  0.28030790  0.12998747  1  -0.01867  0  -0.17268  -0.137848  0  3.927844  0
C  C99  1  0.95826751  0.78030743  0.37001316  1  -0.019824  0  -0.17276  -0.137921  0  3.92785  0
C  C100  1  0.17312010  0.34573058  0.57941276  1  -0.105022  0  -0.156063  -0.186111  0  3.826041  0
C  C101  1  0.67312261  0.84573189  0.92058661  1  -0.105002  0  -0.15604  -0.186115  0  3.826001  0
C  C102  1  0.32687496  0.34573058  0.07941276  1  -0.105059  0  -0.156051  -0.186116  0  3.826113  0
C  C103  1  0.82687746  0.84572923  0.42058787  1  -0.105013  0  -0.155986  -0.186052  0  3.826086  0
S  S104  1  0.76424210  0.18975247  0.44016984  1  0.068946  0  0.005509  0.187318  0  3.215694  0
S  S105  1  0.26424208  0.68975111  0.05983141  1  0.069249  0  0.005523  0.187345  0  3.215781  0
S  S106  1  0.73575673  0.18974892  0.94016796  1  0.069216  0  0.005515  0.187339  0  3.215778  0
S  S107  1  0.23575794  0.68975200  0.55983204  1  0.069038  0  0.005507  0.187313  0  3.215776  0
S  S108  1  0.36899654  0.31449203  0.63410692  1  0.069339  0  0.010356  0.195379  0  3.19596  0
S  S109  1  0.86899904  0.81449245  0.86589308  1  0.069336  0  0.010315  0.195338  0  3.19597  0
S  S110  1  0.13099976  0.31449292  0.13410567  1  0.069155  0  0.010368  0.195454  0  3.195968  0
S  S111  1  0.63100103  0.81448979  0.36589308  1  0.069356  0  0.010338  0.195382  0  3.196013  0
I  I112  1  0.66482021  0.94395771  0.64460391  1  -0.294009  0  -0.157166  -0.255794  0  1.72549  0
I  I113  1  0.16481770  0.44395906  0.85539421  1  -0.293996  0  -0.157154  -0.255774  0  1.72543  0
I  I114  1  0.83518110  0.94395682  0.14460391  1  -0.294006  0  -0.157162  -0.255805  0  1.725483  0
I  I115  1  0.33518108  0.44395729  0.35539672  1  -0.29399  0  -0.157173  -0.255816  0  1.725504  0
I  I116  1  0.24229728  0.05516593  0.41098145  1  -0.285457  0  -0.158946  -0.251191  0  1.727105  0
I  I117  1  0.74229234  0.55516990  0.08901479  1  -0.285422  0  -0.158958  -0.251205  0  1.727099  0
I  I118  1  0.25770770  0.05516948  0.91098458  1  -0.285427  0  -0.158968  -0.251209  0  1.727084  0
I  I119  1  0.75770896  0.55516901  0.58901542  1  -0.285424  0  -0.15897  -0.251222  0  1.727084  0
