# generated using pymatgen
data_Zn4H18C30O13
_symmetry_space_group_name_H-M   'P 1'
_cell_length_a   18.25292099
_cell_length_b   18.22596740
_cell_length_c   18.23120042
_cell_angle_alpha   119.49557067
_cell_angle_beta   120.22283189
_cell_angle_gamma   90.03345160
_symmetry_Int_Tables_number   1
_chemical_formula_structural   Zn4H18C30O13
_chemical_formula_sum   'Zn8 H36 C60 O26'
_cell_volume   4305.45444088
_cell_formula_units_Z   2
loop_
 _symmetry_equiv_pos_site_id
 _symmetry_equiv_pos_as_xyz
  1  'x, y, z'
loop_
 _atom_site_type_symbol
 _atom_site_label
 _atom_site_symmetry_multiplicity
 _atom_site_fract_x
 _atom_site_fract_y
 _atom_site_fract_z
 _atom_site_occupancy
 _atom_site_pbe_bader_charge
 _atom_site_pbe_bader_spin_density
 _atom_site_pbe_cm5_charge
 _atom_site_pbe_ddec_charge
 _atom_site_pbe_ddec_spin_density
 _atom_site_pbe_ddec_sum_bond_order
 _atom_site_pbe_magmom
Zn  Zn0  1  0.96110850  0.04874491  0.90166804  1  1.317222  0  0.661905  0.954126  0  2.390293  0
Zn  Zn1  1  0.13839410  0.05062027  0.08128830  1  1.29581  0  0.661719  0.953959  0  2.390797  0
Zn  Zn2  1  0.96203212  0.87579295  0.90591175  1  1.300292  0  0.661273  0.951063  0  2.404236  0
Zn  Zn3  1  0.96362569  0.05183331  0.08108442  1  1.304893  0  0.661321  0.952488  0  2.396721  0
Zn  Zn4  1  0.55054195  0.46206010  0.08031067  1  1.314225  0  0.661631  0.95424  0  2.388933  0
Zn  Zn5  1  0.37411155  0.46333957  0.90323812  1  1.309076  0  0.661367  0.952952  0  2.392521  0
Zn  Zn6  1  0.54996473  0.46417600  0.90472205  1  1.294285  0  0.661808  0.952786  0  2.397667  0
Zn  Zn7  1  0.55021050  0.63794482  0.08136809  1  1.298602  0  0.661618  0.952675  0  2.39656  0
H  H8  1  0.11577534  0.29015286  0.94666016  1  0.056653  0  0.100089  0.088573  0  0.991563  0
H  H9  1  0.29297052  0.41338003  0.11427200  1  0.060564  0  0.098702  0.082163  0  0.99486  0
H  H10  1  0.33582375  0.28523712  0.16237290  1  0.045139  0  0.100018  0.088315  0  0.992315  0
H  H11  1  0.39503101  0.21856435  0.03150137  1  0.086062  0  0.10003  0.088063  0  0.992285  0
H  H12  1  0.21783146  0.09526233  0.86384182  1  0.070316  0  0.098549  0.08212  0  0.993215  0
H  H13  1  0.17488172  0.22340769  0.81566913  1  0.045557  0  0.099849  0.087901  0  0.991269  0
H  H14  1  0.84959989  0.89444471  0.55118422  1  0.051551  0  0.100238  0.08867  0  0.990126  0
H  H15  1  0.84595108  0.72020478  0.42155806  1  0.052156  0  0.098863  0.082112  0  0.994946  0
H  H16  1  0.85553747  0.67673787  0.55587984  1  0.07714  0  0.100341  0.088812  0  0.990141  0
H  H17  1  0.66487749  0.61298693  0.43371554  1  0.055431  0  0.100385  0.089247  0  0.99054  0
H  H18  1  0.66851607  0.78721287  0.56333371  1  0.060248  0  0.099109  0.083236  0  0.993046  0
H  H19  1  0.65892675  0.83058503  0.42888179  1  0.071741  0  0.100635  0.088963  0  0.99043  0
H  H20  1  0.71916374  0.16256723  0.81444709  1  0.076489  0  0.10006  0.088227  0  0.991247  0
H  H21  1  0.59475767  0.16934458  0.86708112  1  0.047109  0  0.098848  0.082628  0  0.993473  0
H  H22  1  0.72199981  0.15916822  0.03399136  1  0.064726  0  0.099995  0.088527  0  0.990843  0
H  H23  1  0.79146082  0.34882695  0.16435721  1  0.080124  0  0.100066  0.088254  0  0.990868  0
H  H24  1  0.91579786  0.34194215  0.11157011  1  0.033842  0  0.098742  0.082269  0  0.993035  0
H  H25  1  0.78862189  0.35219291  0.94477359  1  0.064817  0  0.100156  0.088515  0  0.99055  0
H  H26  1  0.33590909  0.89461490  0.17323156  1  0.062144  0  0.100026  0.088404  0  0.991833  0
H  H27  1  0.29166442  0.71726533  0.12003256  1  0.056558  0  0.098844  0.082414  0  0.995421  0
H  H28  1  0.11533141  0.67752367  0.95292498  1  0.071837  0  0.099732  0.08779  0  0.991745  0
H  H29  1  0.17563128  0.61884138  0.82317480  1  0.059438  0  0.100028  0.088119  0  0.99194  0
H  H30  1  0.21987357  0.79627318  0.87634659  1  0.063423  0  0.099084  0.083037  0  0.99362  0
H  H31  1  0.39634260  0.83607910  0.04356957  1  0.066041  0  0.099923  0.088039  0  0.991038  0
H  H32  1  0.33693647  0.29463900  0.43104792  1  0.063187  0  0.099748  0.087534  0  0.992026  0
H  H33  1  0.29300653  0.42080706  0.56152688  1  0.04997  0  0.098689  0.08253  0  0.995146  0
H  H34  1  0.11650347  0.29627865  0.42964585  1  0.065101  0  0.099985  0.088491  0  0.991119  0
H  H35  1  0.17715231  0.22891635  0.55381766  1  0.05441  0  0.100014  0.088587  0  0.991415  0
H  H36  1  0.22104268  0.10260327  0.42327912  1  0.061392  0  0.098891  0.082819  0  0.992106  0
H  H37  1  0.39752268  0.22727010  0.55516690  1  0.07913  0  0.100286  0.08891  0  0.990348  0
H  H38  1  0.85270952  0.68018708  0.95019116  1  0.063017  0  0.10003  0.087568  0  0.992872  0
H  H39  1  0.84654593  0.71945453  0.11849489  1  0.076183  0  0.098812  0.082186  0  0.9951  0
H  H40  1  0.85577644  0.89695840  0.17247542  1  0.08005  0  0.099929  0.088162  0  0.991799  0
H  H41  1  0.66485746  0.83868692  0.04466721  1  0.062596  0  0.100091  0.088178  0  0.991702  0
H  H42  1  0.67105453  0.79921606  0.87622950  1  0.059798  0  0.09877  0.082386  0  0.992777  0
H  H43  1  0.66179830  0.62163463  0.82243186  1  0.07752  0  0.100196  0.08861  0  0.991768  0
C  C44  1  0.14571855  0.14709556  0.99241578  1  1.557251  0  0.224042  0.603759  0  4.18317  0
C  C45  1  0.20305961  0.20555381  0.99315176  1  0.002224  0  -0.008165  -0.029694  0  3.649227  0
C  C46  1  0.17815066  0.27475035  0.96533060  1  -0.016407  0  -0.07641  -0.06782  0  3.643233  0
C  C47  1  0.27548550  0.34194370  0.05878723  1  -0.031377  0  -0.068914  -0.059433  0  3.620776  0
C  C48  1  0.30082800  0.27220805  0.08562005  1  -0.011862  0  -0.076197  -0.067176  0  3.64405  0
C  C49  1  0.33260818  0.23388193  0.01276468  1  -0.038577  0  -0.076099  -0.066301  0  3.644407  0
C  C50  1  0.23528642  0.16668842  0.91930073  1  -0.053437  0  -0.068994  -0.059876  0  3.618807  0
C  C51  1  0.20995895  0.23646948  0.89245782  1  0.009946  0  -0.076101  -0.066128  0  3.640629  0
C  C52  1  0.30771426  0.30307202  0.98494106  1  0.031594  0  -0.008783  -0.031317  0  3.650462  0
C  C53  1  0.36533642  0.36172707  0.98619716  1  1.521394  0  0.223895  0.60397  0  4.182396  0
C  C54  1  0.87011038  0.86453193  0.71187043  1  1.500179  0  0.224264  0.603938  0  4.181951  0
C  C55  1  0.81371711  0.80665571  0.59728652  1  0.011866  0  -0.008345  -0.031197  0  3.64734  0
C  C56  1  0.80814431  0.83157032  0.52417346  1  0.000773  0  -0.076188  -0.066242  0  3.642944  0
C  C57  1  0.80733091  0.73584997  0.45455527  1  -0.005286  0  -0.068906  -0.058817  0  3.616215  0
C  C58  1  0.81142268  0.71037113  0.52675253  1  -0.025814  0  -0.075786  -0.066804  0  3.639608  0
C  C59  1  0.70631938  0.67584203  0.46067727  1  -0.004589  0  -0.076088  -0.06716  0  3.641915  0
C  C60  1  0.70712836  0.77157731  0.53031696  1  -0.015305  0  -0.069156  -0.060973  0  3.616239  0
C  C61  1  0.70308204  0.79706264  0.45816234  1  -0.030369  0  -0.075987  -0.066808  0  3.642722  0
C  C62  1  0.70075984  0.70080171  0.38757284  1  -0.002807  0  -0.008156  -0.031007  0  3.646304  0
C  C63  1  0.64396513  0.64399191  0.27291909  1  1.547898  0  0.224644  0.604542  0  4.182799  0
C  C64  1  0.86103959  0.14134843  0.98426143  1  1.514601  0  0.224441  0.604736  0  4.181612  0
C  C65  1  0.80334572  0.19868841  0.98407664  1  0.016585  0  -0.008471  -0.031436  0  3.648885  0
C  C66  1  0.73456635  0.20435719  0.89195565  1  -0.0467  0  -0.076187  -0.066789  0  3.64183  0
C  C67  1  0.66681821  0.20674020  0.92119758  1  -0.001607  0  -0.069071  -0.060509  0  3.619333  0
C  C68  1  0.73622101  0.20258081  0.01430882  1  -0.012688  0  -0.07644  -0.066825  0  3.644898  0
C  C69  1  0.77602167  0.30698851  0.08682906  1  -0.049311  0  -0.076307  -0.06673  0  3.643309  0
C  C70  1  0.84373991  0.30457502  0.05753729  1  0.010869  0  -0.068759  -0.05944  0  3.616982  0
C  C71  1  0.77431828  0.30881386  0.96446670  1  -0.0035  0  -0.076311  -0.066448  0  3.640413  0
C  C72  1  0.70718988  0.31262186  0.99473886  1  0.024965  0  -0.008342  -0.031074  0  3.649662  0
C  C73  1  0.64933902  0.36975754  0.99504298  1  1.524649  0  0.224982  0.604829  0  4.183065  0
C  C74  1  0.14657871  0.86741781  0.00206004  1  1.587096  0  0.224964  0.605765  0  4.183794  0
C  C75  1  0.20374136  0.80964352  0.00334081  1  -0.005447  0  -0.008672  -0.031648  0  3.650299  0
C  C76  1  0.30104323  0.83296296  0.09566905  1  -0.028364  0  -0.076423  -0.067522  0  3.643362  0
C  C77  1  0.27500915  0.73572401  0.06607837  1  -0.036147  0  -0.069189  -0.05981  0  3.62044  0
C  C78  1  0.17807418  0.71209680  0.97284332  1  -0.034095  0  -0.075906  -0.066719  0  3.642027  0
C  C79  1  0.21057063  0.68056115  0.90069568  1  8.3e-05  0  -0.075856  -0.065047  0  3.640046  0
C  C80  1  0.23668361  0.77772711  0.93024894  1  -0.043665  0  -0.068675  -0.060332  0  3.618564  0
C  C81  1  0.33354656  0.80152241  0.02355438  1  -0.017835  0  -0.076026  -0.065517  0  3.642464  0
C  C82  1  0.30796830  0.70394116  0.99298761  1  0.039838  0  -0.008386  -0.032347  0  3.650444  0
C  C83  1  0.36542650  0.64641594  0.99220307  1  1.532052  0  0.224237  0.605885  0  4.181579  0
C  C84  1  0.14724690  0.15422265  0.27297362  1  1.608867  0  0.22447  0.603589  0  4.187555  0
C  C85  1  0.20461815  0.21304728  0.38748490  1  -0.023902  0  -0.007738  -0.030694  0  3.650108  0
C  C86  1  0.30199992  0.28050121  0.45921767  1  -0.004518  0  -0.076116  -0.065911  0  3.642568  0
C  C87  1  0.27625316  0.34940034  0.52930135  1  -0.040076  0  -0.068864  -0.060648  0  3.619648  0
C  C88  1  0.17928542  0.28141885  0.45842767  1  -0.028706  0  -0.076155  -0.066986  0  3.641907  0
C  C89  1  0.21198074  0.24291402  0.52547121  1  0.010093  0  -0.076142  -0.067508  0  3.641158  0
C  C90  1  0.23779416  0.17400940  0.45546887  1  -0.032559  0  -0.068804  -0.059615  0  3.616064  0
C  C91  1  0.33469421  0.24199647  0.52622618  1  -0.050167  0  -0.076739  -0.068198  0  3.641793  0
C  C92  1  0.30937785  0.31032212  0.59723548  1  0.029679  0  -0.007855  -0.028113  0  3.645021  0
C  C93  1  0.36660120  0.36807907  0.71186238  1  1.561809  0  0.224466  0.603356  0  4.185302  0
C  C94  1  0.87145350  0.86943650  0.00010495  1  1.54086  0  0.224131  0.605481  0  4.184895  0
C  C95  1  0.81545335  0.81225368  0.00190149  1  0.030034  0  -0.008526  -0.033159  0  3.655226  0
C  C96  1  0.81038972  0.71460664  0.97097238  1  -0.005198  0  -0.075797  -0.064687  0  3.644267  0
C  C97  1  0.80849153  0.73813747  0.06489873  1  -0.036448  0  -0.069257  -0.060058  0  3.621186  0
C  C98  1  0.81219316  0.83542987  0.09487797  1  -0.041588  0  -0.076106  -0.066486  0  3.643045  0
C  C99  1  0.70707789  0.80412939  0.02380134  1  -0.023501  0  -0.076134  -0.065963  0  3.642789  0
C  C100  1  0.70898662  0.78054188  0.92984949  1  -0.03728  0  -0.069233  -0.059854  0  3.618398  0
C  C101  1  0.70533838  0.68328693  0.89990655  1  -0.04854  0  -0.075948  -0.066674  0  3.641545  0
C  C102  1  0.70199271  0.70654928  0.99291481  1  -0.008689  0  -0.008438  -0.03101  0  3.652248  0
C  C103  1  0.64459621  0.64843007  0.99243068  1  1.54737  0  0.223636  0.603885  0  4.18466  0
O  O104  1  0.00636669  0.00696565  0.99236354  1  -1.213537  0  -0.571578  -1.029886  0  2.544466  0
O  O105  1  0.18635933  0.12207827  0.05250183  1  -1.177977  0  -0.320241  -0.552247  0  2.322472  0
O  O106  1  0.06081697  0.12535705  0.92999108  1  -1.159957  0  -0.319934  -0.551692  0  2.320481  0
O  O107  1  0.32501185  0.38547545  0.92473698  1  -1.161266  0  -0.319917  -0.551054  0  2.320503  0
O  O108  1  0.45014327  0.38501625  0.05055172  1  -1.173075  0  -0.319424  -0.552105  0  2.322335  0
O  O109  1  0.89131996  0.82489715  0.75756716  1  -1.165637  0  -0.318769  -0.549197  0  2.322237  0
O  O110  1  0.89066297  0.94880011  0.75470894  1  -1.151942  0  -0.3195  -0.551864  0  2.321055  0
O  O111  1  0.62419318  0.68503339  0.22887768  1  -1.173598  0  -0.320032  -0.551905  0  2.321454  0
O  O112  1  0.62145652  0.55948157  0.22838456  1  -1.185076  0  -0.318953  -0.550756  0  2.322042  0
O  O113  1  0.88478093  0.12048739  0.04853166  1  -1.161646  0  -0.320311  -0.553115  0  2.324477  0
O  O114  1  0.88347922  0.11964583  0.92213969  1  -1.172306  0  -0.319407  -0.550615  0  2.31966  0
O  O115  1  0.62446982  0.39040784  0.93048327  1  -1.160887  0  -0.320131  -0.551306  0  2.325953  0
O  O116  1  0.62780007  0.39142728  0.05794186  1  -1.186785  0  -0.32023  -0.552495  0  2.31995  0
O  O117  1  0.06180237  0.82757731  0.93739332  1  -1.177607  0  -0.320234  -0.552056  0  2.326426  0
O  O118  1  0.18725752  0.95173274  0.06326848  1  -1.187602  0  -0.32045  -0.552338  0  2.319366  0
O  O119  1  0.45025058  0.68625348  0.05642237  1  -1.17512  0  -0.319252  -0.552161  0  2.324548  0
O  O120  1  0.32492198  0.56209691  0.92883129  1  -1.167236  0  -0.319798  -0.55172  0  2.320294  0
O  O121  1  0.06238695  0.13151796  0.22861699  1  -1.188497  0  -0.319809  -0.5505  0  2.323128  0
O  O122  1  0.18770032  0.12959713  0.22897128  1  -1.182426  0  -0.319667  -0.551542  0  2.323289  0
O  O123  1  0.45151900  0.39077661  0.75659802  1  -1.183056  0  -0.319422  -0.550869  0  2.32408  0
O  O124  1  0.32590121  0.39153443  0.75564331  1  -1.183068  0  -0.319731  -0.551884  0  2.323406  0
O  O125  1  0.89613913  0.95383575  0.06407194  1  -1.172767  0  -0.319318  -0.55128  0  2.320124  0
O  O126  1  0.88784048  0.82896075  0.93240609  1  -1.176947  0  -0.320444  -0.55239  0  2.326864  0
O  O127  1  0.62429507  0.56427477  0.93138179  1  -1.161015  0  -0.319398  -0.551411  0  2.323467  0
O  O128  1  0.62213099  0.68767629  0.05457444  1  -1.161496  0  -0.31964  -0.551188  0  2.324267  0
O  O129  1  0.50614348  0.50670184  0.99238662  1  -1.211551  0  -0.571827  -1.030299  0  2.541498  0
