# generated using pymatgen
data_DyH10C11NO7
_symmetry_space_group_name_H-M   'P 1'
_cell_length_a   8.07108243
_cell_length_b   8.07110555
_cell_length_c   17.82851574
_cell_angle_alpha   91.29932374
_cell_angle_beta   91.29939391
_cell_angle_gamma   89.68691112
_symmetry_Int_Tables_number   1
_chemical_formula_structural   DyH10C11NO7
_chemical_formula_sum   'Dy4 H40 C44 N4 O28'
_cell_volume   1160.78368879
_cell_formula_units_Z   4
loop_
 _symmetry_equiv_pos_site_id
 _symmetry_equiv_pos_as_xyz
  1  'x, y, z'
loop_
 _atom_site_type_symbol
 _atom_site_label
 _atom_site_symmetry_multiplicity
 _atom_site_fract_x
 _atom_site_fract_y
 _atom_site_fract_z
 _atom_site_occupancy
 _atom_site_hle17_bader_spin_density
 _atom_site_hle17_ddec_charge
 _atom_site_hle17_ddec_spin_density
 _atom_site_hle17_ddec_sum_bond_order
 _atom_site_hle17_magmom
 _atom_site_hse06_10hf_bader_spin_density
 _atom_site_hse06_10hf_ddec_charge
 _atom_site_hse06_10hf_ddec_spin_density
 _atom_site_hse06_10hf_ddec_sum_bond_order
 _atom_site_hse06_10hf_magmom
 _atom_site_hse06_bader_spin_density
 _atom_site_hse06_ddec_charge
 _atom_site_hse06_ddec_spin_density
 _atom_site_hse06_ddec_sum_bond_order
 _atom_site_hse06_magmom
 _atom_site_pbe_bader_spin_density
 _atom_site_pbe_cm5_charge
 _atom_site_pbe_ddec_charge
 _atom_site_pbe_ddec_spin_density
 _atom_site_pbe_ddec_sum_bond_order
 _atom_site_pbe_magmom
Dy  Dy0  1  0.54249750  0.75762981  0.51288105  1  0  2.241888  0  1.637041  0  0  2.096902  0  2.105965  0  0  2.229351  0  1.915742  0  0  1.512141  2.057378  0  2.138952  0
Dy  Dy1  1  0.24236802  0.45750035  0.98712100  1  0  2.241885  0  1.637083  0  0  2.096898  0  2.106019  0  0  2.229347  0  1.915793  0  0  1.512124  2.057386  0  2.138987  0
Dy  Dy2  1  0.45750448  0.24236993  0.48711859  1  0  2.241869  0  1.637113  0  0  2.096899  0  2.106004  0  0  2.229322  0  1.915823  0  0  1.512123  2.057367  0  2.13899  0
Dy  Dy3  1  0.75762901  0.54250060  0.01287973  1  0  2.241885  0  1.637108  0  0  2.09689  0  2.10606  0  0  2.229351  0  1.915818  0  0  1.512152  2.05738  0  2.139032  0
H  H4  1  0.41879128  0.42260378  0.68805221  1  0  0.130245  0  0.894435  0  0  0.142284  0  0.945933  0  0  0.145832  0  0.941661  0  0  0.14955  0.139844  0  0.94863  0
H  H5  1  0.57739642  0.58121648  0.81194662  1  0  0.130283  0  0.894491  0  0  0.142313  0  0.945988  0  0  0.145861  0  0.941714  0  0  0.149536  0.139831  0  0.948734  0
H  H6  1  0.58121193  0.57739847  0.31194914  1  0  0.130257  0  0.894465  0  0  0.142272  0  0.945961  0  0  0.145821  0  0.941685  0  0  0.149543  0.139786  0  0.948717  0
H  H7  1  0.42259931  0.41878441  0.18805074  1  0  0.130271  0  0.894466  0  0  0.142294  0  0.945973  0  0  0.145846  0  0.941697  0  0  0.149539  0.139801  0  0.948733  0
H  H8  1  0.18396073  0.43213185  0.77936662  1  0  0.136727  0  0.965237  0  0  0.141471  0  1.028653  0  0  0.145794  0  1.026768  0  0  0.118698  0.138474  0  1.03013  0
H  H9  1  0.56787136  0.81605209  0.72063444  1  0  0.136718  0  0.965163  0  0  0.14146  0  1.028599  0  0  0.145782  0  1.026719  0  0  0.118699  0.138435  0  1.030099  0
H  H10  1  0.81604366  0.56787539  0.22063533  1  0  0.136801  0  0.965226  0  0  0.141536  0  1.028641  0  0  0.145862  0  1.026751  0  0  0.118753  0.138538  0  1.030129  0
H  H11  1  0.43212309  0.18395252  0.27936405  1  0  0.13674  0  0.965129  0  0  0.141438  0  1.028611  0  0  0.145762  0  1.026725  0  0  0.118697  0.138415  0  1.030118  0
H  H12  1  0.90216209  0.53677232  0.73290999  1  0  0.113671  0  0.922585  0  0  0.125899  0  0.977933  0  0  0.129206  0  0.974807  0  0  0.117857  0.123509  0  0.980001  0
H  H13  1  0.46322173  0.09784305  0.76709673  1  0  0.113673  0  0.922681  0  0  0.12592  0  0.978043  0  0  0.129221  0  0.97492  0  0  0.117877  0.123505  0  0.980127  0
H  H14  1  0.09784364  0.46322623  0.26709079  1  0  0.113725  0  0.922576  0  0  0.125946  0  0.977927  0  0  0.129257  0  0.974801  0  0  0.117871  0.123553  0  0.979996  0
H  H15  1  0.53677041  0.90215415  0.23290506  1  0  0.113665  0  0.922623  0  0  0.125914  0  0.977993  0  0  0.12922  0  0.974868  0  0  0.117857  0.123505  0  0.980071  0
H  H16  1  0.12760052  0.62343446  0.51961989  1  0  0.13638  0  0.931977  0  0  0.140502  0  0.997147  0  0  0.144405  0  0.992676  0  0  0.144663  0.137674  0  1.000225  0
H  H17  1  0.37656841  0.87239409  0.98038434  1  0  0.136366  0  0.931891  0  0  0.140477  0  0.997073  0  0  0.14438  0  0.992604  0  0  0.144656  0.137647  0  1.000148  0
H  H18  1  0.87240145  0.37656778  0.48038145  1  0  0.136353  0  0.932025  0  0  0.14049  0  0.997167  0  0  0.144381  0  0.992712  0  0  0.144656  0.137665  0  1.000241  0
H  H19  1  0.62343863  0.12760203  0.01961867  1  0  0.13637  0  0.931938  0  0  0.140445  0  0.997155  0  0  0.144377  0  0.992647  0  0  0.144654  0.137624  0  1.000225  0
H  H20  1  0.87214568  0.11165102  0.31161180  1  0  0.088281  0  0.965415  0  0  0.101389  0  1.0312  0  0  0.102485  0  1.03236  0  0  0.090183  0.100733  0  1.030209  0
H  H21  1  0.88834162  0.12785264  0.18838882  1  0  0.088226  0  0.965522  0  0  0.10136  0  1.031284  0  0  0.102449  0  1.032442  0  0  0.090144  0.100688  0  1.030308  0
H  H22  1  0.12785256  0.88834867  0.68838669  1  0  0.088269  0  0.965423  0  0  0.101383  0  1.031212  0  0  0.102477  0  1.03237  0  0  0.090174  0.100728  0  1.030222  0
H  H23  1  0.11165664  0.87214832  0.81161192  1  0  0.088254  0  0.965478  0  0  0.101368  0  1.031252  0  0  0.102464  0  1.032414  0  0  0.090157  0.100694  0  1.030275  0
H  H24  1  0.84019124  0.89650079  0.29007731  1  0  0.093523  0  0.941998  0  0  0.108889  0  1.005847  0  0  0.110155  0  1.006  0  0  0.094961  0.108079  0  1.005603  0
H  H25  1  0.10349233  0.15980680  0.20992310  1  0  0.093509  0  0.942057  0  0  0.108869  0  1.005906  0  0  0.110133  0  1.00605  0  0  0.094945  0.108038  0  1.005679  0
H  H26  1  0.15980449  0.10350136  0.70992118  1  0  0.093499  0  0.942029  0  0  0.108854  0  1.005877  0  0  0.110112  0  1.006041  0  0  0.094955  0.108056  0  1.00562  0
H  H27  1  0.89650720  0.84019168  0.79007708  1  0  0.093489  0  0.942068  0  0  0.10885  0  1.005906  0  0  0.110121  0  1.006054  0  0  0.094935  0.108015  0  1.005682  0
H  H28  1  0.99876990  0.03819866  0.43589404  1  0  0.077917  0  0.932197  0  0  0.09576  0  0.992044  0  0  0.096891  0  0.992518  0  0  0.097482  0.095  0  0.991497  0
H  H29  1  0.96179369  0.00123158  0.06410496  1  0  0.077873  0  0.932184  0  0  0.095745  0  0.992014  0  0  0.096853  0  0.992518  0  0  0.097469  0.094991  0  0.991462  0
H  H30  1  0.00123209  0.96179731  0.56410276  1  0  0.077798  0  0.932214  0  0  0.095704  0  0.992014  0  0  0.096802  0  0.992531  0  0  0.097478  0.094943  0  0.991468  0
H  H31  1  0.03819961  0.99876933  0.93589518  1  0  0.07788  0  0.932211  0  0  0.095735  0  0.992051  0  0  0.096872  0  0.992518  0  0  0.097478  0.094979  0  0.9915  0
H  H32  1  0.95454268  0.82708405  0.41811679  1  0  0.087997  0  0.942515  0  0  0.103514  0  1.004346  0  0  0.105528  0  1.004051  0  0  0.098251  0.102141  0  1.004441  0
H  H33  1  0.17290861  0.04546138  0.08188370  1  0  0.087944  0  0.942574  0  0  0.103493  0  1.004392  0  0  0.105509  0  1.004092  0  0  0.098253  0.102127  0  1.004484  0
H  H34  1  0.04545930  0.17291192  0.58187946  1  0  0.087928  0  0.942506  0  0  0.103452  0  1.004365  0  0  0.105468  0  1.004065  0  0  0.098239  0.102079  0  1.004458  0
H  H35  1  0.82708591  0.95453953  0.91811589  1  0  0.087972  0  0.942524  0  0  0.103495  0  1.00437  0  0  0.10551  0  1.004074  0  0  0.09825  0.102122  0  1.004464  0
H  H36  1  0.15123368  0.82142423  0.31151292  1  0  0.093834  0  0.942067  0  0  0.110279  0  1.000136  0  0  0.111803  0  0.999735  0  0  0.096463  0.109262  0  1.000226  0
H  H37  1  0.17857405  0.84877135  0.18848684  1  0  0.093865  0  0.941971  0  0  0.110308  0  1.000037  0  0  0.111832  0  0.999635  0  0  0.096461  0.109279  0  1.000139  0
H  H38  1  0.84877076  0.17857426  0.68848448  1  0  0.093889  0  0.942064  0  0  0.110329  0  1.000128  0  0  0.111853  0  0.999727  0  0  0.096487  0.109317  0  1.000214  0
H  H39  1  0.82142538  0.15123333  0.81151337  1  0  0.093854  0  0.941981  0  0  0.110307  0  1.000055  0  0  0.111831  0  0.999653  0  0  0.096449  0.109274  0  1.000155  0
H  H40  1  0.19691910  0.03625424  0.32958384  1  0  0.101692  0  0.948697  0  0  0.115183  0  1.011647  0  0  0.117184  0  1.011161  0  0  0.099535  0.113777  0  1.011959  0
H  H41  1  0.96374249  0.80308156  0.17041610  1  0  0.101739  0  0.948699  0  0  0.115229  0  1.011626  0  0  0.117229  0  1.01114  0  0  0.099541  0.113811  0  1.01195  0
H  H42  1  0.80308410  0.96374298  0.67041298  1  0  0.101776  0  0.948682  0  0  0.115274  0  1.011597  0  0  0.117274  0  1.011112  0  0  0.09958  0.113873  0  1.011908  0
H  H43  1  0.03625579  0.19691942  0.82958576  1  0  0.101741  0  0.948687  0  0  0.115243  0  1.011623  0  0  0.117243  0  1.011137  0  0  0.099551  0.113822  0  1.011947  0
C  C44  1  0.29523857  0.46767170  0.67394428  1  0  0.064788  0  3.535136  0  0  0.021167  0  3.794649  0  0  0.031845  0  3.803515  0  0  0.072881  0.014131  0  3.789158  0
C  C45  1  0.53233113  0.70476536  0.82605617  1  0  0.064671  0  3.535239  0  0  0.021042  0  3.794752  0  0  0.031731  0  3.8036  0  0  0.072835  0.014018  0  3.789292  0
C  C46  1  0.70476578  0.53233801  0.32605769  1  0  0.06467  0  3.535331  0  0  0.021112  0  3.794779  0  0  0.031795  0  3.803639  0  0  0.072854  0.014111  0  3.7893  0
C  C47  1  0.46766593  0.29523311  0.17394454  1  0  0.064779  0  3.535279  0  0  0.021184  0  3.794742  0  0  0.031852  0  3.80362  0  0  0.072885  0.014169  0  3.789287  0
C  C48  1  0.16295726  0.47364358  0.72222418  1  0  -0.105776  0  3.708885  0  0  -0.118073  0  3.970807  0  0  -0.126077  0  3.98906  0  0  -0.071788  -0.113009  0  3.957943  0
C  C49  1  0.52635060  0.83704812  0.77777731  1  0  -0.105698  0  3.708812  0  0  -0.117964  0  3.970768  0  0  -0.125972  0  3.989024  0  0  -0.071826  -0.112917  0  3.957952  0
C  C50  1  0.83704594  0.52635741  0.27777548  1  0  -0.105814  0  3.708986  0  0  -0.118126  0  3.970898  0  0  -0.12613  0  3.989153  0  0  -0.071842  -0.113067  0  3.958023  0
C  C51  1  0.47364889  0.16295409  0.22222345  1  0  -0.105807  0  3.708858  0  0  -0.118038  0  3.970842  0  0  -0.126043  0  3.9891  0  0  -0.071862  -0.112991  0  3.958011  0
C  C52  1  0.00929878  0.53272667  0.69679576  1  0  -0.006929  0  3.65693  0  0  -0.042564  0  3.910753  0  0  -0.034857  0  3.924569  0  0  -0.054899  -0.046971  0  3.900671  0
C  C53  1  0.46726282  0.99070237  0.80320674  1  0  -0.006879  0  3.656998  0  0  -0.042695  0  3.910853  0  0  -0.034981  0  3.924659  0  0  -0.054916  -0.047125  0  3.900816  0
C  C54  1  0.99070452  0.46726814  0.30320498  1  0  -0.006963  0  3.656985  0  0  -0.042616  0  3.910775  0  0  -0.034914  0  3.924597  0  0  -0.054861  -0.047024  0  3.900697  0
C  C55  1  0.53273549  0.00929487  0.19679398  1  0  -0.006799  0  3.65686  0  0  -0.042616  0  3.910747  0  0  -0.034908  0  3.924557  0  0  -0.054862  -0.047035  0  3.900697  0
C  C56  1  0.99285789  0.58826807  0.62328365  1  0  -0.076956  0  3.715934  0  0  -0.049012  0  3.94902  0  0  -0.059991  0  3.968302  0  0  0.002069  -0.041895  0  3.935274  0
C  C57  1  0.41172632  0.00714034  0.87672023  1  0  -0.07707  0  3.716277  0  0  -0.04885  0  3.949004  0  0  -0.059824  0  3.968284  0  0  0.002015  -0.041745  0  3.935254  0
C  C58  1  0.00714538  0.41172922  0.37671710  1  0  -0.076918  0  3.716102  0  0  -0.048922  0  3.949084  0  0  -0.059898  0  3.968367  0  0  0.002032  -0.041803  0  3.935336  0
C  C59  1  0.58827447  0.99285817  0.12328108  1  0  -0.07711  0  3.716182  0  0  -0.048928  0  3.948978  0  0  -0.059905  0  3.968262  0  0  0.002022  -0.041811  0  3.935221  0
C  C60  1  0.12934540  0.58122612  0.57697777  1  0  0.051139  0  3.521254  0  0  0.002087  0  3.773412  0  0  0.014211  0  3.780774  0  0  0.074285  -0.006031  0  3.769358  0
C  C61  1  0.41877337  0.87065253  0.92302367  1  0  0.051177  0  3.521443  0  0  0.002113  0  3.773431  0  0  0.014224  0  3.780817  0  0  0.074328  -0.006  0  3.769358  0
C  C62  1  0.87065412  0.41877488  0.42302410  1  0  0.05111  0  3.521318  0  0  0.002055  0  3.77342  0  0  0.014174  0  3.780813  0  0  0.074334  -0.006062  0  3.769362  0
C  C63  1  0.58122737  0.12934720  0.07697596  1  0  0.051226  0  3.521433  0  0  0.002202  0  3.773455  0  0  0.014296  0  3.78082  0  0  0.074335  -0.005911  0  3.769386  0
C  C64  1  0.83309069  0.65570944  0.59116002  1  0  0.644299  0  3.945377  0  0  0.597665  0  4.239607  0  0  0.630674  0  4.24065  0  0  0.198415  0.574668  0  4.243877  0
C  C65  1  0.34428482  0.16690861  0.90884268  1  0  0.644062  0  3.945713  0  0  0.597364  0  4.239926  0  0  0.630372  0  4.240979  0  0  0.198338  0.574375  0  4.244173  0
C  C66  1  0.16691011  0.34428784  0.40884128  1  0  0.644071  0  3.945704  0  0  0.597424  0  4.239925  0  0  0.630434  0  4.240972  0  0  0.198331  0.574428  0  4.244185  0
C  C67  1  0.65571717  0.83309239  0.09115865  1  0  0.644085  0  3.945674  0  0  0.597396  0  4.239887  0  0  0.630405  0  4.240937  0  0  0.198331  0.574414  0  4.244138  0
C  C68  1  0.69111168  0.99470592  0.37920396  1  0  0.767429  0  3.788658  0  0  0.732091  0  4.073711  0  0  0.767143  0  4.067146  0  0  0.23215  0.708731  0  4.080099  0
C  C69  1  0.00528669  0.30888895  0.12079695  1  0  0.767592  0  3.788745  0  0  0.732306  0  4.073677  0  0  0.767351  0  4.06711  0  0  0.232307  0.70895  0  4.080077  0
C  C70  1  0.30888780  0.00529378  0.62079454  1  0  0.76742  0  3.788691  0  0  0.732087  0  4.073744  0  0  0.767138  0  4.067177  0  0  0.232163  0.708728  0  4.080134  0
C  C71  1  0.99471152  0.69111447  0.87920269  1  0  0.767674  0  3.788562  0  0  0.732393  0  4.073481  0  0  0.767448  0  4.066916  0  0  0.232305  0.709035  0  4.079884  0
C  C72  1  0.84960841  0.99035448  0.33567245  1  0  -0.272091  0  3.67749  0  0  -0.314304  0  3.926685  0  0  -0.319409  0  3.934014  0  0  -0.169962  -0.310469  0  3.920521  0
C  C73  1  0.00964040  0.15039238  0.16432853  1  0  -0.272096  0  3.677601  0  0  -0.314335  0  3.926799  0  0  -0.319408  0  3.934081  0  0  -0.169972  -0.310514  0  3.920673  0
C  C74  1  0.15039107  0.00964522  0.66432605  1  0  -0.272055  0  3.677494  0  0  -0.314298  0  3.926791  0  0  -0.319391  0  3.934108  0  0  -0.169945  -0.310469  0  3.920619  0
C  C75  1  0.99035789  0.84960735  0.83567277  1  0  -0.272117  0  3.677646  0  0  -0.314327  0  3.926821  0  0  -0.319439  0  3.934153  0  0  -0.169977  -0.310498  0  3.920685  0
C  C76  1  0.98851263  0.94265124  0.39108243  1  0  -0.061417  0  3.639506  0  0  -0.099012  0  3.893838  0  0  -0.099238  0  3.905035  0  0  -0.159044  -0.0984  0  3.885263  0
C  C77  1  0.05734065  0.01148704  0.10891632  1  0  -0.061285  0  3.639432  0  0  -0.09893  0  3.893727  0  0  -0.099153  0  3.904919  0  0  -0.159052  -0.098313  0  3.885144  0
C  C78  1  0.01148810  0.05734472  0.60891380  1  0  -0.061192  0  3.639487  0  0  -0.098843  0  3.893866  0  0  -0.099054  0  3.905067  0  0  -0.159058  -0.098233  0  3.885297  0
C  C79  1  0.94265511  0.98851388  0.89108329  1  0  -0.061292  0  3.639416  0  0  -0.098902  0  3.893761  0  0  -0.099131  0  3.904957  0  0  -0.15903  -0.098288  0  3.885175  0
C  C80  1  0.15741854  0.92040898  0.35469813  1  0  -0.259846  0  3.660324  0  0  -0.297364  0  3.904191  0  0  -0.302386  0  3.910919  0  0  -0.164585  -0.293383  0  3.898389  0
C  C81  1  0.07958785  0.84258533  0.14530159  1  0  -0.260009  0  3.660369  0  0  -0.297503  0  3.904234  0  0  -0.302528  0  3.91096  0  0  -0.164604  -0.293534  0  3.898462  0
C  C82  1  0.84258466  0.07958825  0.64529869  1  0  -0.26007  0  3.660551  0  0  -0.29755  0  3.904412  0  0  -0.302575  0  3.911133  0  0  -0.164624  -0.293574  0  3.898612  0
C  C83  1  0.92041042  0.15741565  0.85469972  1  0  -0.259995  0  3.660346  0  0  -0.297539  0  3.904267  0  0  -0.302564  0  3.910996  0  0  -0.164631  -0.293558  0  3.898479  0
C  C84  1  0.27916721  0.87235796  0.41548611  1  0  0.748157  0  3.818236  0  0  0.710274  0  4.104428  0  0  0.744324  0  4.101821  0  0  0.214844  0.687063  0  4.110773  0
C  C85  1  0.12764117  0.72083413  0.08451477  1  0  0.748178  0  3.818229  0  0  0.710283  0  4.104398  0  0  0.744335  0  4.101787  0  0  0.214832  0.687063  0  4.110756  0
C  C86  1  0.72083350  0.12764300  0.58451296  1  0  0.748195  0  3.818199  0  0  0.710275  0  4.104402  0  0  0.744336  0  4.101773  0  0  0.214823  0.687066  0  4.11075  0
C  C87  1  0.87235587  0.27916684  0.91548708  1  0  0.748208  0  3.818294  0  0  0.71033  0  4.104458  0  0  0.744383  0  4.101845  0  0  0.214839  0.687118  0  4.110814  0
N  N88  1  0.27571950  0.52019336  0.60260410  1  0  0.294014  0  3.67787  0  0  0.343943  0  3.945401  0  0  0.342252  0  3.968  0  0  -0.11172  0.344086  0  3.934613  0
N  N89  1  0.47980907  0.72428431  0.89739802  1  0  0.294055  0  3.677895  0  0  0.343964  0  3.945437  0  0  0.342273  0  3.968037  0  0  -0.111745  0.344114  0  3.934624  0
N  N90  1  0.72428492  0.47981014  0.39739670  1  0  0.294183  0  3.677853  0  0  0.344081  0  3.945391  0  0  0.342391  0  3.967986  0  0  -0.11175  0.344221  0  3.934591  0
N  N91  1  0.52019294  0.27571547  0.10260387  1  0  0.293942  0  3.678016  0  0  0.343854  0  3.945552  0  0  0.342163  0  3.968152  0  0  -0.111772  0.343997  0  3.934752  0
O  O92  1  0.40445462  0.51032810  0.55672621  1  0  -0.706998  0  1.927811  0  0  -0.668998  0  2.20205  0  0  -0.709544  0  2.199023  0  0  -0.334604  -0.653331  0  2.203879  0
O  O93  1  0.48967527  0.59554471  0.94327367  1  0  -0.706971  0  1.92775  0  0  -0.668957  0  2.201989  0  0  -0.709506  0  2.19896  0  0  -0.334652  -0.653391  0  2.203878  0
O  O94  1  0.59554860  0.48967292  0.44327513  1  0  -0.707009  0  1.927655  0  0  -0.669038  0  2.201962  0  0  -0.709581  0  2.19893  0  0  -0.334574  -0.653364  0  2.203788  0
O  O95  1  0.51032923  0.40445258  0.05672653  1  0  -0.706953  0  1.927799  0  0  -0.668972  0  2.202099  0  0  -0.709519  0  2.199068  0  0  -0.334572  -0.653293  0  2.203901  0
O  O96  1  0.83120944  0.69327294  0.52182035  1  0  -0.702951  0  2.04743  0  0  -0.6591  0  2.300951  0  0  -0.693609  0  2.294694  0  0  -0.381014  -0.640637  0  2.304381  0
O  O97  1  0.30671693  0.16878900  0.97818118  1  0  -0.70285  0  2.047478  0  0  -0.65901  0  2.30102  0  0  -0.693523  0  2.294781  0  0  -0.381017  -0.640563  0  2.30444  0
O  O98  1  0.16879506  0.30672436  0.47817985  1  0  -0.702876  0  2.047568  0  0  -0.659015  0  2.301055  0  0  -0.693523  0  2.294805  0  0  -0.381014  -0.640548  0  2.304474  0
O  O99  1  0.69328625  0.83121447  0.02181905  1  0  -0.702896  0  2.047407  0  0  -0.65906  0  2.300973  0  0  -0.693578  0  2.294737  0  0  -0.381034  -0.640605  0  2.30439  0
O  O100  1  0.70682280  0.67459686  0.63166327  1  0  -0.669539  0  1.934154  0  0  -0.629164  0  2.173929  0  0  -0.660149  0  2.16441  0  0  -0.347286  -0.612738  0  2.179993  0
O  O101  1  0.32540325  0.29317856  0.86834057  1  0  -0.669391  0  1.934297  0  0  -0.629009  0  2.174084  0  0  -0.659993  0  2.164568  0  0  -0.347247  -0.612595  0  2.180105  0
O  O102  1  0.29317922  0.32540041  0.36833691  1  0  -0.669423  0  1.934248  0  0  -0.629039  0  2.174021  0  0  -0.660024  0  2.164507  0  0  -0.347207  -0.612605  0  2.18005  0
O  O103  1  0.67459995  0.70682243  0.13165908  1  0  -0.669337  0  1.934259  0  0  -0.628951  0  2.174054  0  0  -0.659938  0  2.164538  0  0  -0.347234  -0.612565  0  2.180102  0
O  O104  1  0.63707277  0.85542485  0.39994182  1  0  -0.739864  0  2.043554  0  0  -0.690186  0  2.295816  0  0  -0.727262  0  2.284908  0  0  -0.400121  -0.670979  0  2.300262  0
O  O105  1  0.14456845  0.36292743  0.10006024  1  0  -0.740013  0  2.043611  0  0  -0.690362  0  2.295875  0  0  -0.727439  0  2.284973  0  0  -0.400244  -0.671167  0  2.300302  0
O  O106  1  0.36292674  0.14457363  0.60005779  1  0  -0.739835  0  2.043563  0  0  -0.690152  0  2.295815  0  0  -0.727222  0  2.284909  0  0  -0.400095  -0.670939  0  2.300248  0
O  O107  1  0.85542983  0.63707104  0.89993937  1  0  -0.740056  0  2.043557  0  0  -0.690404  0  2.295816  0  0  -0.727485  0  2.284911  0  0  -0.400259  -0.6712  0  2.300226  0
O  O108  1  0.62846844  0.13608616  0.39543590  1  0  -0.74801  0  2.041793  0  0  -0.700437  0  2.296658  0  0  -0.73811  0  2.285741  0  0  -0.405918  -0.681442  0  2.301221  0
O  O109  1  0.86390679  0.37153296  0.10456354  1  0  -0.747963  0  2.041796  0  0  -0.700479  0  2.296775  0  0  -0.738159  0  2.285859  0  0  -0.405936  -0.681507  0  2.301348  0
O  O110  1  0.37152981  0.86391228  0.60456202  1  0  -0.747997  0  2.041746  0  0  -0.700434  0  2.296645  0  0  -0.73811  0  2.285724  0  0  -0.405943  -0.681443  0  2.301207  0
O  O111  1  0.13609269  0.62846924  0.89543665  1  0  -0.748007  0  2.041604  0  0  -0.700511  0  2.296546  0  0  -0.738187  0  2.285624  0  0  -0.405932  -0.681555  0  2.301125  0
O  O112  1  0.30891411  0.72070452  0.42778751  1  0  -0.69166  0  1.95506  0  0  -0.652752  0  2.199738  0  0  -0.684552  0  2.188469  0  0  -0.375452  -0.636388  0  2.205898  0
O  O113  1  0.27929680  0.69108275  0.07221566  1  0  -0.691628  0  1.954991  0  0  -0.652724  0  2.199675  0  0  -0.684522  0  2.188402  0  0  -0.375431  -0.636337  0  2.205827  0
O  O114  1  0.69108661  0.27929645  0.57221213  1  0  -0.691643  0  1.955038  0  0  -0.652746  0  2.199751  0  0  -0.684544  0  2.188475  0  0  -0.37545  -0.636376  0  2.20591  0
O  O115  1  0.72070273  0.30891700  0.92778621  1  0  -0.691639  0  1.955066  0  0  -0.65273  0  2.199755  0  0  -0.684534  0  2.188486  0  0  -0.375427  -0.636357  0  2.205916  0
O  O116  1  0.34687756  0.98553370  0.45732985  1  0  -0.829981  0  2.198942  0  0  -0.768357  0  2.453119  0  0  -0.813906  0  2.444432  0  0  -0.437914  -0.748773  0  2.457434  0
O  O117  1  0.01446642  0.65312540  0.04267048  1  0  -0.82998  0  2.198955  0  0  -0.768328  0  2.453112  0  0  -0.813883  0  2.444422  0  0  -0.437885  -0.748736  0  2.457421  0
O  O118  1  0.65311694  0.01446844  0.54266919  1  0  -0.829983  0  2.198824  0  0  -0.768346  0  2.453011  0  0  -0.813899  0  2.444315  0  0  -0.437897  -0.748764  0  2.457331  0
O  O119  1  0.98553059  0.34687680  0.95733083  1  0  -0.830008  0  2.198949  0  0  -0.768381  0  2.453149  0  0  -0.813934  0  2.444453  0  0  -0.437929  -0.748807  0  2.457471  0
