# generated using pymatgen
data_CuMo8H12C18(N7O13)2
_symmetry_space_group_name_H-M   'P 1'
_cell_length_a   7.88694069
_cell_length_b   12.03591874
_cell_length_c   11.94466403
_cell_angle_alpha   94.25102622
_cell_angle_beta   101.48390616
_cell_angle_gamma   101.52302175
_symmetry_Int_Tables_number   1
_chemical_formula_structural   CuMo8H12C18(N7O13)2
_chemical_formula_sum   'Cu1 Mo8 H12 C18 N14 O26'
_cell_volume   1081.08436742
_cell_formula_units_Z   1
loop_
 _symmetry_equiv_pos_site_id
 _symmetry_equiv_pos_as_xyz
  1  'x, y, z'
loop_
 _atom_site_type_symbol
 _atom_site_label
 _atom_site_symmetry_multiplicity
 _atom_site_fract_x
 _atom_site_fract_y
 _atom_site_fract_z
 _atom_site_occupancy
 _atom_site_pbe_bader_charge
 _atom_site_pbe_bader_spin_density
 _atom_site_pbe_cm5_charge
 _atom_site_pbe_ddec_charge
 _atom_site_pbe_ddec_spin_density
 _atom_site_pbe_ddec_sum_bond_order
 _atom_site_pbe_magmom
Cu  Cu0  1  0.49976984  0.50003463  0.99993138  1  1.22261  0.000842  0.901642  1.059174  0.002653  2.446516  0.002
Mo  Mo1  1  0.53590254  0.77910558  0.91316131  1  2.647655  0.001562  1.55902  2.222366  0.001961  4.500638  0.002
Mo  Mo2  1  0.46329672  0.22094531  0.08672698  1  2.646574  0.001553  1.558252  2.221333  0.00195  4.504373  0.002
Mo  Mo3  1  0.88177299  0.96674265  0.10679459  1  2.606087  0.000392  1.519518  2.180377  0.000364  4.604053  0.0
Mo  Mo4  1  0.11743679  0.03338489  0.89303067  1  2.606726  0.000373  1.519595  2.180053  0.000332  4.602711  0.0
Mo  Mo5  1  0.92729001  0.71686564  0.95662638  1  2.605803  0.005606  1.514427  2.138297  0.00605  4.595716  0.007
Mo  Mo6  1  0.07184342  0.28319415  0.04318733  1  2.606736  0.005703  1.514207  2.137874  0.006195  4.598382  0.007
Mo  Mo7  1  0.28929170  0.90490292  0.11731978  1  2.648748  0.002207  1.555626  2.216637  0.0021  4.516568  0.004
Mo  Mo8  1  0.70985901  0.09515682  0.88248556  1  2.646144  0.00222  1.556154  2.217253  0.002163  4.514413  0.004
H  H9  1  0.46677668  0.71939367  0.50519225  1  0.512219  0.000496  0.374432  0.320542  0.000544  0.844826  0.0
H  H10  1  0.53477027  0.28043803  0.49530850  1  0.52157  0.000487  0.374428  0.320045  0.00054  0.845302  0.0
H  H11  1  0.64928454  0.73338382  0.16820235  1  0.24876  0.0006  0.13668  0.131594  0.000538  1.048188  0.001
H  H12  1  0.35108215  0.26652350  0.83178705  1  0.247083  0.000605  0.136726  0.131304  0.000539  1.048285  0.001
H  H13  1  0.96722822  0.46619146  0.85730896  1  0.183624  -0.01557  0.138398  0.137771  -0.012305  0.983024  -0.013
H  H14  1  0.03240629  0.53375818  0.14239350  1  0.182999  -0.015569  0.138414  0.137848  -0.012299  0.983219  -0.013
H  H15  1  0.14669437  0.57898399  0.73647030  1  0.17921  -0.0055  0.12709  0.160392  -0.004218  0.997348  -0.004
H  H16  1  0.85317620  0.42104179  0.26343105  1  0.179353  -0.005509  0.127121  0.160703  -0.004224  0.996961  -0.004
H  H17  1  0.07153873  0.26548817  0.50890793  1  0.142876  -0.006562  0.132696  0.153852  -0.005062  0.949866  -0.004
H  H18  1  0.93022108  0.73440337  0.49154597  1  0.143576  -0.006569  0.132652  0.153939  -0.005062  0.949601  -0.004
H  H19  1  0.90444528  0.16305437  0.64781237  1  0.189786  -0.014534  0.144791  0.142183  -0.011456  0.955192  -0.011
H  H20  1  0.09696561  0.83677477  0.35248451  1  0.190562  -0.014535  0.144796  0.142611  -0.011466  0.954654  -0.011
C  C21  1  0.43521810  0.57173714  0.31554778  1  0.94517  -0.053274  0.214965  0.180365  -0.063427  4.082056  -0.04
C  C22  1  0.56518637  0.42826956  0.68453549  1  0.946757  -0.053357  0.214663  0.179861  -0.063594  4.08283  -0.04
C  C23  1  0.36222166  0.55071749  0.41419675  1  0.992386  -0.026154  0.242707  0.243323  -0.032829  4.03567  -0.021
C  C24  1  0.63859460  0.44925887  0.58602879  1  0.991965  -0.025964  0.242554  0.243523  -0.032599  4.036187  -0.02
C  C25  1  0.23114642  0.49558346  0.54503126  1  0.938015  -0.028393  0.220061  0.233572  -0.035061  4.044912  -0.021
C  C26  1  0.76975914  0.50438957  0.45523468  1  0.853682  -0.028372  0.219738  0.23457  -0.03465  4.04301  -0.021
C  C27  1  0.57066707  0.66864839  0.20732720  1  0.913244  -0.050403  0.161063  0.168837  -0.05805  3.861411  -0.034
C  C28  1  0.42963397  0.33129646  0.79268611  1  0.916045  -0.050646  0.161486  0.169163  -0.058338  3.862263  -0.034
C  C29  1  0.99723256  0.42625151  0.78096149  1  0.499386  -0.003559  0.070809  0.073082  -0.005678  3.888017  -0.001
C  C30  1  0.00284593  0.57368109  0.21891252  1  0.497388  -0.003714  0.070786  0.073067  -0.005802  3.887795  -0.001
C  C31  1  0.09631381  0.48758791  0.71265158  1  0.017898  -0.054122  -0.055882  -0.119521  -0.056692  3.843981  -0.041
C  C32  1  0.90391564  0.51239892  0.28734095  1  0.038399  -0.053952  -0.055945  -0.120423  -0.056616  3.844477  -0.041
C  C33  1  0.12448587  0.42981606  0.61392415  1  -0.013587  0.006811  0.017591  0.055238  0.007856  3.994337  0.007
C  C34  1  0.87629389  0.57014931  0.38625677  1  0.030558  0.006678  0.017655  0.056463  0.007785  3.993847  0.007
C  C35  1  0.05240824  0.31205362  0.58545068  1  0.036362  -0.044799  -0.058627  -0.128812  -0.046848  3.883899  -0.035
C  C36  1  0.94881680  0.68784856  0.41482816  1  0.036192  -0.044545  -0.058151  -0.129198  -0.046606  3.883921  -0.035
C  C37  1  0.95893290  0.25494448  0.65951006  1  0.437461  -0.005697  0.072299  0.044295  -0.011367  3.898653  -0.005
C  C38  1  0.04212558  0.74491391  0.34067043  1  0.431333  -0.005882  0.071499  0.042849  -0.011509  3.901394  -0.005
N  N39  1  0.39127857  0.63918863  0.50086281  1  -0.760661  -0.046148  -0.225361  -0.111694  -0.042247  3.660538  -0.029
N  N40  1  0.60996706  0.36070748  0.49952325  1  -0.761005  -0.045815  -0.224684  -0.109861  -0.041962  3.660507  -0.029
N  N41  1  0.31067073  0.60702604  0.58349508  1  -0.492287  -0.105274  -0.161901  -0.14222  -0.099396  3.06989  -0.073
N  N42  1  0.69063424  0.39286633  0.41691080  1  -0.477421  -0.104519  -0.16268  -0.144278  -0.099074  3.069654  -0.073
N  N43  1  0.26059217  0.45828198  0.44190381  1  -1.099223  -0.005608  -0.310931  -0.36843  -0.002784  3.133872  -0.002
N  N44  1  0.74002036  0.54175136  0.55825550  1  -1.098843  -0.005841  -0.310679  -0.369325  -0.003029  3.132868  -0.002
N  N45  1  0.49936930  0.55865509  0.15349475  1  -0.630786  -0.066256  -0.226228  -0.125062  -0.060824  3.528753  -0.041
N  N46  1  0.50037918  0.44139562  0.84639975  1  -0.629874  -0.06614  -0.22667  -0.124829  -0.060699  3.5278  -0.041
N  N47  1  0.93618533  0.31518613  0.75105393  1  -1.051011  -0.498147  -0.182056  0.063815  -0.500393  3.347967  -0.407
N  N48  1  0.06432633  0.68469873  0.24892966  1  -1.047008  -0.498152  -0.181716  0.06453  -0.500574  3.349264  -0.407
N  N49  1  0.41410900  0.49711737  0.22005676  1  -0.504522  -0.086183  -0.163489  -0.134247  -0.078723  3.162276  -0.057
N  N50  1  0.58571299  0.50295477  0.77988676  1  -0.506852  -0.086443  -0.163073  -0.134296  -0.078963  3.163062  -0.057
N  N51  1  0.53239541  0.67839726  0.30992289  1  -1.140587  0.004718  -0.325732  -0.357013  0.009296  3.222423  0.008
N  N52  1  0.46835513  0.32151726  0.69022298  1  -1.142936  0.004779  -0.32603  -0.357293  0.009412  3.223157  0.008
O  O53  1  0.78379643  0.81068460  0.06921366  1  -1.089445  -0.001314  -0.595531  -0.95089  -0.000616  2.084196  -0.001
O  O54  1  0.21542860  0.18944781  0.93058997  1  -1.089956  -0.001371  -0.59564  -0.950349  -0.000671  2.081971  -0.002
O  O55  1  0.67373075  0.95205588  0.94039451  1  -1.053651  -0.003712  -0.587651  -0.92333  -0.003324  2.15057  -0.003
O  O56  1  0.32544558  0.04803126  0.05941365  1  -1.053675  -0.003764  -0.587473  -0.922973  -0.003378  2.150282  -0.003
O  O57  1  0.72852799  0.75063804  0.85221344  1  -0.931846  -0.003332  -0.558712  -0.791535  -0.002777  1.970623  -0.003
O  O58  1  0.27063896  0.24945163  0.14759566  1  -0.930476  -0.003324  -0.558525  -0.791806  -0.002768  1.972433  -0.003
O  O59  1  0.45974021  0.63530758  0.94707734  1  -0.865025  -0.007777  -0.532211  -0.770973  -0.007801  2.030327  -0.007
O  O60  1  0.53953450  0.36471950  0.05279066  1  -0.864847  -0.00778  -0.532073  -0.771015  -0.007811  2.0318  -0.007
O  O61  1  0.39534530  0.79004427  0.79045670  1  -0.694281  -0.000767  -0.463263  -0.550677  -0.00061  1.640226  -0.001
O  O62  1  0.60380508  0.21002725  0.20946012  1  -0.694773  -0.000772  -0.4628  -0.550086  -0.000614  1.641449  -0.001
O  O63  1  0.42129903  0.84325013  0.02918127  1  -0.975236  -0.015394  -0.572819  -0.841234  -0.015453  2.073876  -0.013
O  O64  1  0.57793259  0.15681345  0.97069183  1  -0.974593  -0.015725  -0.572453  -0.840638  -0.015791  2.073302  -0.013
O  O65  1  0.09443112  0.96289031  0.19334656  1  -0.95576  -0.002226  -0.565755  -0.802158  -0.001902  1.892938  -0.002
O  O66  1  0.90477616  0.03726248  0.80645848  1  -0.955413  -0.002279  -0.565964  -0.802416  -0.001958  1.892314  -0.002
O  O67  1  0.76739776  0.00940814  0.20157544  1  -0.748462  -0.003363  -0.488945  -0.587492  -0.003184  1.614408  -0.003
O  O68  1  0.23180940  0.99075574  0.79823206  1  -0.748497  -0.003396  -0.489057  -0.587314  -0.003219  1.614712  -0.003
O  O69  1  0.95082920  0.09903015  0.03123458  1  -1.152325  -0.019284  -0.6201  -1.051608  -0.019667  2.230465  -0.017
O  O70  1  0.04843671  0.90101239  0.96852384  1  -1.153636  -0.019546  -0.619849  -1.051034  -0.019926  2.228508  -0.017
O  O71  1  0.12588056  0.75706636  0.09971743  1  -0.862305  -0.29296  -0.481699  -0.750746  -0.293068  1.96227  -0.258
O  O72  1  0.87323371  0.24304328  0.90007452  1  -0.861477  -0.293543  -0.481619  -0.750594  -0.293861  1.961898  -0.258
O  O73  1  0.82692826  0.58963172  0.99839463  1  -0.844061  -0.024755  -0.513801  -0.723188  -0.023474  1.797925  -0.021
O  O74  1  0.17215431  0.41052655  0.00159640  1  -0.845361  -0.024527  -0.513994  -0.723073  -0.023253  1.797579  -0.021
O  O75  1  0.04849550  0.68041676  0.86202846  1  -0.776794  -0.006355  -0.486378  -0.605393  -0.006066  1.674882  -0.005
O  O76  1  0.95050454  0.31945508  0.13778038  1  -0.777055  -0.006541  -0.486077  -0.605272  -0.006254  1.676323  -0.005
O  O77  1  0.41310887  0.91664686  0.25217481  1  -0.712943  -0.025056  -0.47588  -0.559976  -0.024204  1.585557  -0.021
O  O78  1  0.58593080  0.08331572  0.74765620  1  -0.712442  -0.025062  -0.476437  -0.560427  -0.024197  1.584876  -0.021
