# generated using pymatgen
data_CdH18C20N4O5
_symmetry_space_group_name_H-M   'P 1'
_cell_length_a   8.63355444
_cell_length_b   11.07510146
_cell_length_c   11.72090679
_cell_angle_alpha   82.77104852
_cell_angle_beta   68.38181454
_cell_angle_gamma   70.06496505
_symmetry_Int_Tables_number   1
_chemical_formula_structural   CdH18C20N4O5
_chemical_formula_sum   'Cd2 H36 C40 N8 O10'
_cell_volume   979.46118515
_cell_formula_units_Z   2
loop_
 _symmetry_equiv_pos_site_id
 _symmetry_equiv_pos_as_xyz
  1  'x, y, z'
loop_
 _atom_site_type_symbol
 _atom_site_label
 _atom_site_symmetry_multiplicity
 _atom_site_fract_x
 _atom_site_fract_y
 _atom_site_fract_z
 _atom_site_occupancy
 _atom_site_pbe_bader_charge
 _atom_site_pbe_bader_spin_density
 _atom_site_pbe_cm5_charge
 _atom_site_pbe_ddec_charge
 _atom_site_pbe_ddec_spin_density
 _atom_site_pbe_ddec_sum_bond_order
 _atom_site_pbe_magmom
Cd  Cd0  1  0.96209861  0.74654851  0.59714598  1  1.264189  0  0.76669  0.889497  0  2.139955  0
Cd  Cd1  1  0.55912669  0.24635904  0.40322271  1  1.264833  0  0.766528  0.890196  0  2.139459  0
H  H2  1  0.19859431  0.13209821  0.62553376  1  0.548665  0  0.306367  0.292904  0  0.99643  0
H  H3  1  0.82368739  0.63228172  0.37441365  1  0.546013  0  0.306169  0.292917  0  0.996727  0
H  H4  1  0.30302342  0.54298611  0.54333222  1  0.669566  0  0.29673  0.399695  0  0.934382  0
H  H5  1  0.84664132  0.04279277  0.45697516  1  0.667206  0  0.296482  0.399223  0  0.935254  0
H  H6  1  0.29096913  0.60157457  0.41619921  1  0.619983  0  0.305189  0.382448  0  0.923086  0
H  H7  1  0.70744207  0.10136309  0.58410965  1  0.614943  0  0.304859  0.381798  0  0.924072  0
H  H8  1  0.62444233  0.93200584  0.50192842  1  0.180822  0  0.130942  0.105564  0  1.063134  0
H  H9  1  0.12591450  0.43192366  0.49861168  1  0.184313  0  0.130796  0.105506  0  1.063449  0
H  H10  1  0.60396730  0.64549545  0.77710303  1  0.116265  0  0.117599  0.116306  0  1.006851  0
H  H11  1  0.38105718  0.14585689  0.22311920  1  0.121386  0  0.117831  0.11643  0  1.006948  0
H  H12  1  0.31223317  0.70091536  0.70529195  1  0.177555  0  0.12619  0.144795  0  1.019033  0
H  H13  1  0.01746083  0.20164349  0.29433349  1  0.169391  0  0.126038  0.144393  0  1.019413  0
H  H14  1  0.30407715  0.81798362  0.47288774  1  0.133717  0  0.121738  0.132073  0  1.002187  0
H  H15  1  0.77691200  0.31812873  0.52720187  1  0.177825  0  0.121701  0.131961  0  1.002682  0
H  H16  1  0.37510675  0.95606969  0.44827669  1  0.143355  0  0.130145  0.138959  0  0.967835  0
H  H17  1  0.82314784  0.45639731  0.55158943  1  0.154453  0  0.130118  0.138795  0  0.968129  0
H  H18  1  0.64543196  0.95115918  0.80853003  1  0.084455  0  0.102772  0.112858  0  1.029235  0
H  H19  1  0.45432415  0.45080856  0.19119367  1  0.081405  0  0.102457  0.112628  0  1.029322  0
H  H20  1  0.45758825  0.15198364  0.92988473  1  0.071653  0  0.095451  0.098861  0  1.046029  0
H  H21  1  0.38839085  0.65141449  0.06938687  1  0.057861  0  0.095706  0.098846  0  1.048326  0
H  H22  1  0.87125950  0.32302507  0.77708817  1  0.107542  0  0.102231  0.123131  0  1.041794  0
H  H23  1  0.64829068  0.82292974  0.22253325  1  0.098319  0  0.10149  0.122066  0  1.042916  0
H  H24  1  0.40404851  0.35895017  0.99176615  1  0.048425  0  0.090163  0.128245  0  1.000923  0
H  H25  1  0.39606076  0.85855357  0.00767914  1  0.03591  0  0.089808  0.12766  0  1.001016  0
H  H26  1  0.58794131  0.40592628  0.97958292  1  0.046438  0  0.088567  0.126749  0  1.028155  0
H  H27  1  0.56769718  0.90569250  0.01975416  1  0.079793  0  0.088595  0.126511  0  1.027887  0
H  H28  1  0.49319303  0.44896513  0.86346457  1  0.041833  0  0.092627  0.132429  0  0.991594  0
H  H29  1  0.35686054  0.94862559  0.13588125  1  0.028441  0  0.092765  0.132388  0  0.991823  0
H  H30  1  0.11496837  0.60590352  0.18053992  1  0.100516  0  0.102421  0.104673  0  1.004281  0
H  H31  1  0.29424790  0.10571116  0.81971337  1  0.076648  0  0.102599  0.105209  0  1.00394  0
H  H32  1  0.13799651  0.62002005  0.95977158  1  0.085243  0  0.09872  0.100054  0  1.028895  0
H  H33  1  0.09608707  0.11988639  0.04037977  1  0.08991  0  0.099106  0.100325  0  1.029423  0
H  H34  1  0.01635205  0.82933617  0.87200126  1  0.114815  0  0.098272  0.102462  0  1.044621  0
H  H35  1  0.88731357  0.32934474  0.12810944  1  0.091852  0  0.097976  0.101945  0  1.044275  0
H  H36  1  0.85875727  0.02528733  0.00414472  1  0.079531  0  0.100435  0.104058  0  1.018471  0
H  H37  1  0.86282472  0.52538893  0.99599029  1  0.103275  0  0.100558  0.104459  0  1.018865  0
C  C38  1  0.58213687  0.86290855  0.57015021  1  0.965193  0  0.134241  0.089542  0  3.911006  0
C  C39  1  0.15203557  0.36301285  0.43018942  1  0.961769  0  0.134529  0.08979  0  3.911686  0
C  C40  1  0.56376976  0.71474526  0.71105535  1  0.41374  0  -0.008481  -0.038482  0  4.023505  0
C  C41  1  0.27472420  0.21512708  0.28910408  1  0.322489  0  -0.008662  -0.038566  0  4.0236  0
C  C42  1  0.42035160  0.74005612  0.67599386  1  0.270637  0  -0.001161  -0.109134  0  3.887911  0
C  C43  1  0.09625517  0.24060041  0.32386346  1  0.358852  0  -0.000889  -0.109257  0  3.888675  0
C  C44  1  0.31525952  0.89367677  0.51827081  1  0.293576  0  -0.037609  -0.172344  0  3.862956  0
C  C45  1  0.83333648  0.39388493  0.48172945  1  0.210077  0  -0.037374  -0.172235  0  3.866939  0
C  C46  1  0.13804721  0.96834651  0.60192235  1  1.044795  0  0.234298  0.352829  0  3.959002  0
C  C47  1  0.73972290  0.46843219  0.39804391  1  1.050644  0  0.234159  0.353423  0  3.95959  0
C  C48  1  0.86702702  0.02328493  0.72757042  1  0.301623  0  0.076758  0.117285  0  4.10352  0
C  C49  1  0.59456844  0.52313540  0.27230494  1  0.32819  0  0.077091  0.119361  0  4.103794  0
C  C50  1  0.69502001  0.03086336  0.80243668  1  0.033548  0  -0.102569  -0.179776  0  4.038763  0
C  C51  1  0.49775925  0.53056613  0.19725693  1  -0.049984  0  -0.101982  -0.180128  0  4.039393  0
C  C52  1  0.59118937  0.14368633  0.86906789  1  -0.089229  0  -0.102895  -0.162201  0  4.001603  0
C  C53  1  0.46078889  0.64329935  0.13040713  1  -0.050056  0  -0.103998  -0.163184  0  4.006151  0
C  C54  1  0.65075530  0.24984022  0.85984977  1  0.036525  0  -0.012159  0.17415  0  3.978117  0
C  C55  1  0.51091163  0.74954792  0.13961796  1  0.022681  0  -0.01232  0.174587  0  3.977727  0
C  C56  1  0.82332182  0.24189735  0.78573997  1  -0.013222  0  -0.096582  -0.22963  0  3.928862  0
C  C57  1  0.60907809  0.74176985  0.21387934  1  -0.009471  0  -0.095711  -0.228693  0  3.929283  0
C  C58  1  0.93008296  0.12739515  0.72229293  1  0.309725  0  0.093753  0.155515  0  4.031707  0
C  C59  1  0.65227512  0.62733349  0.27748184  1  0.366553  0  0.093079  0.154591  0  4.035949  0
C  C60  1  0.52734707  0.37212734  0.92785217  1  -0.079572  0  -0.238508  -0.404874  0  3.941334  0
C  C61  1  0.45543550  0.87180149  0.07153744  1  -0.087249  0  -0.238021  -0.403638  0  3.940052  0
C  C62  1  0.97220507  0.79525223  0.34469043  1  1.546598  0  0.201181  0.573615  0  4.201001  0
C  C63  1  0.31665852  0.29520073  0.65561607  1  1.552246  0  0.200443  0.572146  0  4.203209  0
C  C64  1  0.97658868  0.80704096  0.21509602  1  -0.079172  0  -0.022232  -0.077264  0  3.966649  0
C  C65  1  0.19134439  0.30698828  0.78518388  1  -0.07491  0  -0.021836  -0.077166  0  3.966916  0
C  C66  1  0.06030571  0.69737649  0.14040880  1  -0.010877  0  -0.087323  -0.098308  0  4.004866  0
C  C67  1  0.19988737  0.19728306  0.85984947  1  -0.003151  0  -0.087953  -0.099735  0  4.004876  0
C  C68  1  0.07484134  0.70537316  0.01753779  1  -0.093157  0  -0.094097  -0.092819  0  4.012889  0
C  C69  1  0.09132793  0.20530060  0.98267483  1  -0.095576  0  -0.094657  -0.092789  0  4.010841  0
C  C70  1  0.00566668  0.82397415  0.96780373  1  8.5e-05  0  -0.086881  -0.064041  0  3.987056  0
C  C71  1  0.97274480  0.32397144  0.03238346  1  -0.00757  0  -0.086015  -0.06222  0  3.983809  0
C  C72  1  0.91815480  0.93336809  0.04171893  1  -0.090244  0  -0.089591  -0.117079  0  3.972644  0
C  C73  1  0.95968165  0.43342661  0.95847882  1  -0.06487  0  -0.090306  -0.119279  0  3.972831  0
C  C74  1  0.90035981  0.92532401  0.16583988  1  -0.0384  0  -0.007474  -0.027523  0  3.94267  0
C  C75  1  0.06615772  0.42537561  0.83440127  1  -0.015562  0  -0.007436  -0.025635  0  3.942666  0
C  C76  1  0.77991214  0.03882795  0.24698962  1  1.584398  0  0.192416  0.565806  0  4.251964  0
C  C77  1  0.02712182  0.53900474  0.75329304  1  1.551418  0  0.191554  0.563081  0  4.256748  0
N  N78  1  0.00000238  0.92593730  0.65036145  1  -1.196341  0  -0.35359  -0.407798  0  3.419637  0
N  N79  1  0.65023700  0.42587210  0.34963877  1  -1.184061  0  -0.353628  -0.409697  0  3.418095  0
N  N80  1  0.10247267  0.08808906  0.64233519  1  -1.29404  0  -0.372307  -0.309036  0  3.549694  0
N  N81  1  0.74456269  0.58816417  0.35752364  1  -1.294194  0  -0.371482  -0.308522  0  3.551706  0
N  N82  1  0.43518433  0.83384809  0.58617424  1  -1.244515  0  -0.238272  0.064331  0  3.747808  0
N  N83  1  0.02117004  0.33420717  0.41379252  1  -1.22905  0  -0.23845  0.06502  0  3.749386  0
N  N84  1  0.66379100  0.79181397  0.64438772  1  -1.231216  0  -0.366801  -0.319816  0  3.541561  0
N  N85  1  0.30798129  0.29193210  0.35603858  1  -1.229709  0  -0.367079  -0.320399  0  3.54251  0
O  O86  1  0.97266051  0.88844004  0.39764505  1  -1.191272  0  -0.324583  -0.571197  0  2.207106  0
O  O87  1  0.36969756  0.38852713  0.60251001  1  -1.198528  0  -0.323619  -0.570357  0  2.208929  0
O  O88  1  0.97218768  0.68665281  0.39885611  1  -1.182455  0  -0.329577  -0.578541  0  2.254458  0
O  O89  1  0.37128063  0.18648653  0.60157889  1  -1.184718  0  -0.329501  -0.577794  0  2.255073  0
O  O90  1  0.63696729  0.02680264  0.32560015  1  -1.176282  0  -0.335486  -0.57949  0  2.192624  0
O  O91  1  0.96255562  0.52724265  0.67472637  1  -1.172876  0  -0.334886  -0.578263  0  2.195677  0
O  O92  1  0.81897767  0.14174870  0.23235943  1  -1.167372  0  -0.324054  -0.549878  0  2.210491  0
O  O93  1  0.05179697  0.64176644  0.76798908  1  -1.164567  0  -0.323546  -0.548402  0  2.21075  0
O  O94  1  0.26842999  0.62522100  0.49964035  1  -1.258669  0  -0.573426  -0.739819  0  2.099303  0
O  O95  1  0.76818355  0.12501002  0.50059886  1  -1.251579  0  -0.573324  -0.739081  0  2.100016  0
