# generated using pymatgen
data_NdH15C7SN2O7
_symmetry_space_group_name_H-M   'P 1'
_cell_length_a   8.09509374
_cell_length_b   8.59483803
_cell_length_c   11.56055751
_cell_angle_alpha   99.97481749
_cell_angle_beta   92.49149456
_cell_angle_gamma   117.34228698
_symmetry_Int_Tables_number   1
_chemical_formula_structural   NdH15C7SN2O7
_chemical_formula_sum   'Nd2 H30 C14 S2 N4 O14'
_cell_volume   696.68282068
_cell_formula_units_Z   2
loop_
 _symmetry_equiv_pos_site_id
 _symmetry_equiv_pos_as_xyz
  1  'x, y, z'
loop_
 _atom_site_type_symbol
 _atom_site_label
 _atom_site_symmetry_multiplicity
 _atom_site_fract_x
 _atom_site_fract_y
 _atom_site_fract_z
 _atom_site_occupancy
 _atom_site_hle17_bader_spin_density
 _atom_site_hle17_ddec_charge
 _atom_site_hle17_ddec_spin_density
 _atom_site_hle17_ddec_sum_bond_order
 _atom_site_hle17_magmom
 _atom_site_hse06_10hf_bader_spin_density
 _atom_site_hse06_10hf_ddec_charge
 _atom_site_hse06_10hf_ddec_spin_density
 _atom_site_hse06_10hf_ddec_sum_bond_order
 _atom_site_hse06_10hf_magmom
 _atom_site_hse06_bader_spin_density
 _atom_site_hse06_ddec_charge
 _atom_site_hse06_ddec_spin_density
 _atom_site_hse06_ddec_sum_bond_order
 _atom_site_hse06_magmom
 _atom_site_pbe_bader_spin_density
 _atom_site_pbe_cm5_charge
 _atom_site_pbe_ddec_charge
 _atom_site_pbe_ddec_spin_density
 _atom_site_pbe_ddec_sum_bond_order
 _atom_site_pbe_magmom
Nd  Nd0  1  0.78654504  0.07414673  0.98790062  1  0  2.288164  0  1.626512  0  0  2.121728  0  2.089922  0  0  2.219696  0  1.94768  0  0  1.50466  2.08662  0  2.125677  0
Nd  Nd1  1  0.21345817  0.92585477  0.01209965  1  0  2.288177  0  1.62648  0  0  2.121816  0  2.089788  0  0  2.219718  0  1.947655  0  0  1.504677  2.086709  0  2.125543  0
H  H2  1  0.09734464  0.46689050  0.11464944  1  0  0.448088  0  0.848806  0  0  0.419106  0  0.90747  0  0  0.430591  0  0.891032  0  0  0.298259  0.411171  0  0.918854  0
H  H3  1  0.90265668  0.53310965  0.88535059  1  0  0.448112  0  0.848783  0  0  0.419127  0  0.907446  0  0  0.430611  0  0.891011  0  0  0.298277  0.411194  0  0.91883  0
H  H4  1  0.18035114  0.32810100  0.10791743  1  0  0.448387  0  0.844081  0  0  0.419195  0  0.904032  0  0  0.430399  0  0.887782  0  0  0.305449  0.411267  0  0.915652  0
H  H5  1  0.81964828  0.67189779  0.89208236  1  0  0.4484  0  0.844062  0  0  0.419208  0  0.904012  0  0  0.430413  0  0.887762  0  0  0.30545  0.411281  0  0.915632  0
H  H6  1  0.19462075  0.47654592  0.88850496  1  0  0.150962  0  0.947299  0  0  0.166603  0  1.008866  0  0  0.169687  0  1.007529  0  0  0.109755  0.164274  0  1.010116  0
H  H7  1  0.80537868  0.52345288  0.11149484  1  0  0.150978  0  0.947295  0  0  0.166619  0  1.008862  0  0  0.169702  0  1.007525  0  0  0.10976  0.16429  0  1.010112  0
H  H8  1  0.32413515  0.46988400  0.76813305  1  0  0.150742  0  0.952605  0  0  0.167596  0  1.015403  0  0  0.169253  0  1.015931  0  0  0.104652  0.166387  0  1.014949  0
H  H9  1  0.67586366  0.53011612  0.23186862  1  0  0.150724  0  0.952611  0  0  0.167581  0  1.015409  0  0  0.169239  0  1.015936  0  0  0.104627  0.166373  0  1.014956  0
H  H10  1  0.37745330  0.41463763  0.90067962  1  0  0.147019  0  0.937388  0  0  0.166962  0  0.991833  0  0  0.169349  0  0.991107  0  0  0.106148  0.165355  0  0.992033  0
H  H11  1  0.62254612  0.58536117  0.09932017  1  0  0.147035  0  0.937385  0  0  0.166977  0  0.991828  0  0  0.169364  0  0.991102  0  0  0.106152  0.16537  0  0.99203  0
H  H12  1  0.72669260  0.40348124  0.68938576  1  0  0.13973  0  0.959972  0  0  0.154296  0  1.024442  0  0  0.157336  0  1.02288  0  0  0.093252  0.152175  0  1.02536  0
H  H13  1  0.27330495  0.59651620  0.31061206  1  0  0.139687  0  0.960008  0  0  0.154247  0  1.024484  0  0  0.157287  0  1.022922  0  0  0.093244  0.152126  0  1.025402  0
H  H14  1  0.51655420  0.19052928  0.65471904  1  0  0.148192  0  0.928174  0  0  0.167898  0  0.985278  0  0  0.170743  0  0.983712  0  0  0.103714  0.165903  0  0.986259  0
H  H15  1  0.48344842  0.80947355  0.34528225  1  0  0.148176  0  0.928173  0  0  0.16788  0  0.98528  0  0  0.170727  0  0.983712  0  0  0.103708  0.165885  0  0.986261  0
H  H16  1  0.72505923  0.21323187  0.59857934  1  0  0.146742  0  0.929964  0  0  0.165092  0  0.989749  0  0  0.167325  0  0.989191  0  0  0.102987  0.163459  0  0.990143  0
H  H17  1  0.27493769  0.78676690  0.40142122  1  0  0.146729  0  0.929963  0  0  0.165057  0  0.989778  0  0  0.167291  0  0.98922  0  0  0.102977  0.163424  0  0.990173  0
H  H18  1  0.07954972  0.06469813  0.35470711  1  0  0.156018  0  0.930355  0  0  0.180738  0  0.979084  0  0  0.182979  0  0.978339  0  0  0.106148  0.179121  0  0.979557  0
H  H19  1  0.92045604  0.93530606  0.64529447  1  0  0.156074  0  0.930355  0  0  0.1808  0  0.979066  0  0  0.183041  0  0.978321  0  0  0.106171  0.179183  0  0.97954  0
H  H20  1  0.84334491  0.93185407  0.37958015  1  0  0.140308  0  0.93917  0  0  0.158013  0  0.998921  0  0  0.160567  0  0.9975  0  0  0.097106  0.15619  0  0.999834  0
H  H21  1  0.15665516  0.06814606  0.62042071  1  0  0.140361  0  0.939153  0  0  0.158067  0  0.998893  0  0  0.160621  0  0.997472  0  0  0.09712  0.156246  0  0.999805  0
H  H22  1  0.96905335  0.82836664  0.30704186  1  0  0.141403  0  0.956998  0  0  0.158171  0  1.021777  0  0  0.160189  0  1.021756  0  0  0.101874  0.156713  0  1.021738  0
H  H23  1  0.03094557  0.17163616  0.69295756  1  0  0.141444  0  0.957062  0  0  0.158229  0  1.021791  0  0  0.160248  0  1.021771  0  0  0.101911  0.15677  0  1.021751  0
H  H24  1  0.07277469  0.63932959  0.60330444  1  0  0.30934  0  0.958073  0  0  0.286838  0  1.036114  0  0  0.294867  0  1.029639  0  0  0.269576  0.281154  0  1.040683  0
H  H25  1  0.92722540  0.36067055  0.39669468  1  0  0.309325  0  0.958112  0  0  0.286821  0  1.036157  0  0  0.29485  0  1.029682  0  0  0.269552  0.281136  0  1.040728  0
H  H26  1  0.27579170  0.82022816  0.68951396  1  0  0.338741  0  0.898787  0  0  0.323605  0  0.957001  0  0  0.331735  0  0.950364  0  0  0.305429  0.31788  0  0.961761  0
H  H27  1  0.72420773  0.17977063  0.31048497  1  0  0.338732  0  0.898773  0  0  0.323596  0  0.956987  0  0  0.331727  0  0.950349  0  0  0.305422  0.317871  0  0.961746  0
H  H28  1  0.56318594  0.83012074  0.66931936  1  0  0.340921  0  0.923286  0  0  0.325988  0  0.979092  0  0  0.334781  0  0.971577  0  0  0.29988  0.319879  0  0.984266  0
H  H29  1  0.43681282  0.16987671  0.33068110  1  0  0.340896  0  0.923302  0  0  0.325972  0  0.979101  0  0  0.334766  0  0.971585  0  0  0.299879  0.319863  0  0.984274  0
H  H30  1  0.57744337  0.64726746  0.57999448  1  0  0.3009  0  0.977657  0  0  0.275556  0  1.061486  0  0  0.284115  0  1.054332  0  0  0.261911  0.269513  0  1.066525  0
H  H31  1  0.42255669  0.35273268  0.42000637  1  0  0.300919  0  0.97762  0  0  0.275578  0  1.061452  0  0  0.284137  0  1.054298  0  0  0.261924  0.269534  0  1.066493  0
C  C32  1  0.47721558  0.69408631  0.91030404  1  0  0.811462  0  3.781709  0  0  0.771653  0  4.072232  0  0  0.805995  0  4.066274  0  0  0.231011  0.74805  0  4.078954  0
C  C33  1  0.52278325  0.30591381  0.08969590  1  0  0.811417  0  3.781789  0  0  0.771716  0  4.072146  0  0  0.806055  0  4.066187  0  0  0.231032  0.748113  0  4.078869  0
C  C34  1  0.33300760  0.50203686  0.86533737  1  0  -0.460642  0  3.607696  0  0  -0.532179  0  3.832044  0  0  -0.539207  0  3.832937  0  0  -0.235417  -0.526803  0  3.830578  0
C  C35  1  0.66699246  0.49796328  0.13466348  1  0  -0.46066  0  3.60772  0  0  -0.532228  0  3.832025  0  0  -0.539255  0  3.83292  0  0  -0.235413  -0.526853  0  3.83056  0
C  C36  1  0.72356590  0.20230975  0.78088993  1  0  0.764288  0  3.818584  0  0  0.72486  0  4.111393  0  0  0.757924  0  4.107185  0  0  0.212498  0.701851  0  4.116741  0
C  C37  1  0.27643607  0.79769173  0.21911029  1  0  0.764217  0  3.818598  0  0  0.72484  0  4.111359  0  0  0.757906  0  4.107144  0  0  0.212514  0.701831  0  4.116707  0
C  C38  1  0.67028293  0.25802465  0.67563481  1  0  -0.455467  0  3.643282  0  0  -0.52906  0  3.871129  0  0  -0.535994  0  3.872321  0  0  -0.243633  -0.523787  0  3.869667  0
C  C39  1  0.32971587  0.74197547  0.32436772  1  0  -0.455384  0  3.643284  0  0  -0.528955  0  3.871131  0  0  -0.535895  0  3.872328  0  0  -0.243617  -0.523681  0  3.869669  0
C  C40  1  0.87872013  0.96385439  0.20028284  1  0  0.795129  0  3.801029  0  0  0.758073  0  4.08871  0  0  0.791388  0  4.084597  0  0  0.223051  0.735084  0  4.09435  0
C  C41  1  0.12128052  0.03614441  0.79971786  1  0  0.795097  0  3.801213  0  0  0.758066  0  4.088853  0  0  0.791382  0  4.084737  0  0  0.22305  0.735076  0  4.094492  0
C  C42  1  0.94471320  0.94508356  0.31752032  1  0  -0.458424  0  3.636077  0  0  -0.534579  0  3.863016  0  0  -0.541312  0  3.865073  0  0  -0.238375  -0.529465  0  3.861008  0
C  C43  1  0.05528819  0.05491926  0.68248006  1  0  -0.458625  0  3.636184  0  0  -0.534789  0  3.86307  0  0  -0.541523  0  3.865127  0  0  -0.238483  -0.529676  0  3.861064  0
C  C44  1  0.31063960  0.61406303  0.59045917  1  0  0.59346  0  3.889955  0  0  0.55283  0  4.182512  0  0  0.580078  0  4.188076  0  0  0.240259  0.534488  0  4.177866  0
C  C45  1  0.68935982  0.38593576  0.40954062  1  0  0.59342  0  3.88995  0  0  0.552789  0  4.182514  0  0  0.580037  0  4.188077  0  0  0.240231  0.534447  0  4.177868  0
S  S46  1  0.19645068  0.40066543  0.50530923  1  0  -0.564602  0  1.863728  0  0  -0.536469  0  2.160124  0  0  -0.553612  0  2.152572  0  0  -0.220199  -0.524202  0  2.16497  0
S  S47  1  0.80354880  0.59933604  0.49469177  1  0  -0.564597  0  1.863701  0  0  -0.536459  0  2.160093  0  0  -0.553602  0  2.152539  0  0  -0.2202  -0.52419  0  2.164938  0
N  N48  1  0.21250529  0.69450881  0.63596476  1  0  -0.673093  0  3.131269  0  0  -0.626845  0  3.359616  0  0  -0.648187  0  3.355069  0  0  -0.570686  -0.612149  0  3.362381  0
N  N49  1  0.78749414  0.30548999  0.36403417  1  0  -0.67306  0  3.131243  0  0  -0.626808  0  3.359589  0  0  -0.648152  0  3.355046  0  0  -0.570636  -0.612112  0  3.362353  0
N  N50  1  0.49772628  0.70218059  0.61752919  1  0  -0.676794  0  3.145132  0  0  -0.629209  0  3.373793  0  0  -0.65081  0  3.368361  0  0  -0.575695  -0.614332  0  3.377018  0
N  N51  1  0.50227313  0.29781820  0.38247147  1  0  -0.676768  0  3.145175  0  0  -0.629186  0  3.373815  0  0  -0.650786  0  3.368383  0  0  -0.575689  -0.614309  0  3.37704  0
O  O52  1  0.65167133  0.74154665  0.91186961  1  0  -0.720643  0  1.996872  0  0  -0.66124  0  2.228147  0  0  -0.692195  0  2.217322  0  0  -0.360553  -0.643085  0  2.234718  0
O  O53  1  0.34832684  0.25845213  0.08813100  1  0  -0.720627  0  1.996916  0  0  -0.661262  0  2.228138  0  0  -0.692208  0  2.217313  0  0  -0.360543  -0.643106  0  2.234709  0
O  O54  1  0.42863301  0.81497853  0.94718224  1  0  -0.829994  0  2.053788  0  0  -0.773169  0  2.319226  0  0  -0.811126  0  2.306531  0  0  -0.432401  -0.754994  0  2.326753  0
O  O55  1  0.57136517  0.18502025  0.05281750  1  0  -0.829955  0  2.053778  0  0  -0.773175  0  2.319181  0  0  -0.811134  0  2.306483  0  0  -0.432409  -0.754993  0  2.326695  0
O  O56  1  0.65763912  0.03548756  0.78065714  1  0  -0.716475  0  2.000438  0  0  -0.662699  0  2.239788  0  0  -0.693029  0  2.230364  0  0  -0.378449  -0.645277  0  2.245767  0
O  O57  1  0.34236037  0.96451390  0.21934300  1  0  -0.716393  0  2.000408  0  0  -0.662682  0  2.239776  0  0  -0.693004  0  2.230348  0  0  -0.378434  -0.645262  0  2.245756  0
O  O58  1  0.83581908  0.31871487  0.87223181  1  0  -0.723518  0  1.968192  0  0  -0.66061  0  2.190674  0  0  -0.691695  0  2.180089  0  0  -0.357843  -0.642343  0  2.197222  0
O  O59  1  0.16418425  0.68128931  0.12776622  1  0  -0.723524  0  1.968235  0  0  -0.660633  0  2.190703  0  0  -0.691711  0  2.180117  0  0  -0.357881  -0.642364  0  2.197251  0
O  O60  1  0.96955748  0.95862433  0.11186319  1  0  -0.838437  0  2.07472  0  0  -0.778237  0  2.338308  0  0  -0.816213  0  2.326555  0  0  -0.446247  -0.759724  0  2.345195  0
O  O61  1  0.03044013  0.04137578  0.88813584  1  0  -0.838419  0  2.074828  0  0  -0.778244  0  2.338443  0  0  -0.816224  0  2.326688  0  0  -0.446263  -0.759728  0  2.345327  0
O  O62  1  0.73668058  0.98891353  0.18678280  1  0  -0.700801  0  1.938407  0  0  -0.649654  0  2.169143  0  0  -0.678884  0  2.159655  0  0  -0.359293  -0.632985  0  2.174849  0
O  O63  1  0.26331950  0.01108661  0.81321719  1  0  -0.70075  0  1.938484  0  0  -0.649623  0  2.169214  0  0  -0.678844  0  2.159725  0  0  -0.359266  -0.632962  0  2.174936  0
O  O64  1  0.06184119  0.33625079  0.10522859  1  0  -0.94111  0  1.796263  0  0  -0.890871  0  1.986284  0  0  -0.91674  0  1.948294  0  0  -0.658825  -0.87741  0  2.009803  0
O  O65  1  0.93815889  0.66374935  0.89477140  1  0  -0.941158  0  1.796218  0  0  -0.890924  0  1.98625  0  0  -0.91678  0  1.948266  0  0  -0.658847  -0.877462  0  2.009769  0
