# generated using pymatgen
data_ZnH12C16(NO2)2
_symmetry_space_group_name_H-M   'P 1'
_cell_length_a   8.91152496
_cell_length_b   11.41607120
_cell_length_c   13.75535826
_cell_angle_alpha   87.68430260
_cell_angle_beta   83.92763578
_cell_angle_gamma   67.07496592
_symmetry_Int_Tables_number   1
_chemical_formula_structural   ZnH12C16(NO2)2
_chemical_formula_sum   'Zn2 H24 C32 N4 O8'
_cell_volume   1281.63284716
_cell_formula_units_Z   2
loop_
 _symmetry_equiv_pos_site_id
 _symmetry_equiv_pos_as_xyz
  1  'x, y, z'
loop_
 _atom_site_type_symbol
 _atom_site_label
 _atom_site_symmetry_multiplicity
 _atom_site_fract_x
 _atom_site_fract_y
 _atom_site_fract_z
 _atom_site_occupancy
 _atom_site_pbe_bader_charge
 _atom_site_pbe_bader_spin_density
 _atom_site_pbe_cm5_charge
 _atom_site_pbe_ddec_charge
 _atom_site_pbe_ddec_spin_density
 _atom_site_pbe_ddec_sum_bond_order
 _atom_site_pbe_magmom
Zn  Zn0  1  0.15037900  0.69856193  0.74994148  1  1.250337  0  0.692191  0.751628  0  2.422834  0
Zn  Zn1  1  0.84961716  0.30144142  0.25005692  1  1.250392  0  0.69219  0.751568  0  2.422958  0
H  H2  1  0.85913219  0.61074419  0.05407740  1  0.108452  0  0.107177  0.128522  0  0.990482  0
H  H3  1  0.00785073  0.94199459  0.86188198  1  0.100294  0  0.120629  0.092347  0  0.996834  0
H  H4  1  0.11186372  0.07424785  0.95699794  1  0.138307  0  0.112483  0.130001  0  1.008634  0
H  H5  1  0.60157265  0.79710784  0.88007126  1  0.145366  0  0.1116  0.124461  0  1.013977  0
H  H6  1  0.47792544  0.68169909  0.78509607  1  0.123158  0  0.123787  0.09421  0  0.976846  0
H  H7  1  0.32619940  0.10706224  0.01793507  1  0.129641  0  0.103944  0.119551  0  1.050192  0
H  H8  1  0.53018396  0.61083320  0.44614028  1  0.074376  0  0.107328  0.130555  0  0.98715  0
H  H9  1  0.05014903  0.94186019  0.63809315  1  0.129622  0  0.120773  0.09244  0  0.996722  0
H  H10  1  0.81438451  0.07391614  0.54288985  1  0.10187  0  0.1127  0.129917  0  1.008655  0
H  H11  1  0.60062983  0.79734544  0.62000151  1  0.113279  0  0.11246  0.125541  0  1.013665  0
H  H12  1  0.83929775  0.68207093  0.71500093  1  0.103194  0  0.123715  0.094085  0  0.976974  0
H  H13  1  0.56731711  0.10683930  0.48201076  1  0.129081  0  0.103911  0.119206  0  1.050861  0
H  H14  1  0.14087230  0.38925155  0.94592212  1  0.108447  0  0.107183  0.128536  0  0.99042  0
H  H15  1  0.99214815  0.05800781  0.13811553  1  0.100319  0  0.120621  0.092331  0  0.996837  0
H  H16  1  0.88813679  0.92575359  0.04300166  1  0.138511  0  0.112496  0.130019  0  1.008623  0
H  H17  1  0.39842613  0.20289266  0.11993360  1  0.145322  0  0.111608  0.124434  0  1.01401  0
H  H18  1  0.52207365  0.31829855  0.21490886  1  0.123075  0  0.123813  0.094253  0  0.976901  0
H  H19  1  0.67379712  0.89293826  0.98206922  1  0.129696  0  0.103973  0.119606  0  1.050164  0
H  H20  1  0.46983508  0.38915399  0.55386939  1  0.074485  0  0.107387  0.130664  0  0.987133  0
H  H21  1  0.94985383  0.05813650  0.36190354  1  0.129609  0  0.120757  0.09241  0  0.996685  0
H  H22  1  0.18561793  0.92608816  0.45710660  1  0.101911  0  0.112703  0.129968  0  1.008684  0
H  H23  1  0.39936071  0.20266456  0.37999343  1  0.113346  0  0.112416  0.125497  0  1.013685  0
H  H24  1  0.16068699  0.31793717  0.28499595  1  0.103167  0  0.123719  0.094044  0  0.977019  0
H  H25  1  0.43268782  0.89316214  0.51798052  1  0.129039  0  0.103905  0.119158  0  1.051025  0
C  C26  1  0.98532628  0.64314527  0.91491262  1  1.554609  0  0.190143  0.596401  0  4.244252  0
C  C27  1  0.95587945  0.56264431  0.99670158  1  -0.106215  0  -0.088666  -0.17823  0  3.907227  0
C  C28  1  0.13821642  0.91566802  0.86685499  1  0.461309  0  0.048368  0.09092  0  3.96194  0
C  C29  1  0.19615316  0.98714054  0.92004478  1  0.001632  0  -0.077073  -0.171204  0  3.897495  0
C  C30  1  0.36525358  0.94550625  0.92840706  1  -0.035632  0  0.015639  0.164196  0  3.996525  0
C  C31  1  0.46922758  0.83338082  0.87802502  1  -0.051111  0  -0.07539  -0.169106  0  3.909046  0
C  C32  1  0.40185516  0.76876170  0.82510297  1  0.427406  0  0.048416  0.091083  0  3.961357  0
C  C33  1  0.42190923  0.01846689  0.98892246  1  -0.088423  0  -0.078938  -0.117995  0  3.918483  0
C  C34  1  0.37106089  0.64310339  0.58513260  1  1.536472  0  0.189712  0.595788  0  4.243701  0
C  C35  1  0.48141500  0.56266016  0.50338573  1  -0.087841  0  -0.08878  -0.179969  0  3.906764  0
C  C36  1  0.94603472  0.91556875  0.63313327  1  0.409821  0  0.048234  0.091339  0  3.962128  0
C  C37  1  0.81689511  0.98695018  0.57988785  1  0.020762  0  -0.07736  -0.17185  0  3.898173  0
C  C38  1  0.68926320  0.94541356  0.57152938  1  0.034177  0  0.0161  0.164738  0  3.994892  0
C  C39  1  0.69685460  0.83353231  0.62201432  1  -0.04409  0  -0.077409  -0.171744  0  3.908842  0
C  C40  1  0.82863992  0.76898349  0.67495102  1  0.433424  0  0.049156  0.092161  0  3.961145  0
C  C41  1  0.55982246  0.01834384  0.51102531  1  -0.106194  0  -0.078565  -0.117247  0  3.918188  0
C  C42  1  0.01467114  0.35685332  0.08508659  1  1.554495  0  0.190154  0.596279  0  4.244153  0
C  C43  1  0.04412503  0.43735143  0.00329721  1  -0.016289  0  -0.088665  -0.178269  0  3.907208  0
C  C44  1  0.86178154  0.08432962  0.13315148  1  0.461373  0  0.048346  0.090967  0  3.961875  0
C  C45  1  0.80384640  0.01285615  0.07996015  1  0.001509  0  -0.077062  -0.171239  0  3.89747  0
C  C46  1  0.63474584  0.05449519  0.07159553  1  -0.035806  0  0.015644  0.164214  0  3.99654  0
C  C47  1  0.53077086  0.16661587  0.12198073  1  -0.050666  0  -0.07543  -0.169027  0  3.909047  0
C  C48  1  0.59814117  0.23123690  0.17490067  1  0.427031  0  0.048387  0.090963  0  3.961419  0
C  C49  1  0.57808955  0.98153361  0.01108166  1  0.008962  0  -0.078954  -0.118082  0  3.918527  0
C  C50  1  0.62894975  0.35689140  0.41486942  1  1.536849  0  0.189791  0.595898  0  4.24337  0
C  C51  1  0.51859950  0.43732703  0.49662209  1  0.009265  0  -0.088957  -0.180253  0  3.906874  0
C  C52  1  0.05396465  0.08443270  0.36686497  1  0.409667  0  0.048312  0.091479  0  3.96212  0
C  C53  1  0.18310345  0.01305507  0.42010739  1  0.020856  0  -0.077394  -0.172011  0  3.898413  0
C  C54  1  0.31073743  0.05458979  0.42846433  1  0.034282  0  0.016068  0.164777  0  3.994889  0
C  C55  1  0.30314029  0.16647579  0.37798182  1  -0.043716  0  -0.077377  -0.171731  0  3.908742  0
C  C56  1  0.17135207  0.23102366  0.32504609  1  0.432534  0  0.049195  0.092234  0  3.961173  0
C  C57  1  0.44018246  0.98165760  0.48896452  1  -0.00766  0  -0.078603  -0.117366  0  3.918476  0
N  N58  1  0.23891127  0.80773591  0.82024041  1  -1.265379  0  -0.33212  -0.233297  0  3.599268  0
N  N59  1  0.95282217  0.80781325  0.67979153  1  -1.241117  0  -0.332128  -0.233167  0  3.598962  0
N  N60  1  0.76108459  0.19226363  0.17976323  1  -1.265305  0  -0.332097  -0.233295  0  3.599245  0
N  N61  1  0.04717172  0.19219010  0.32020631  1  -1.240771  0  -0.332192  -0.233187  0  3.598937  0
O  O62  1  0.09379116  0.58456729  0.84390790  1  -1.169606  0  -0.343973  -0.551066  0  2.270909  0
O  O63  1  0.90606610  0.76175813  0.91879626  1  -1.191504  0  -0.332288  -0.586661  0  2.142172  0
O  O64  1  0.32111235  0.58445089  0.65602089  1  -1.170419  0  -0.343161  -0.550154  0  2.27038  0
O  O65  1  0.33147234  0.76176561  0.58135189  1  -1.160717  0  -0.332571  -0.587273  0  2.141223  0
O  O66  1  0.90621226  0.41543511  0.15609218  1  -1.169341  0  -0.343929  -0.550968  0  2.270878  0
O  O67  1  0.09392046  0.23823950  0.08119941  1  -1.19172  0  -0.33232  -0.586582  0  2.14204  0
O  O68  1  0.67888998  0.41555151  0.34398146  1  -1.170376  0  -0.343176  -0.550173  0  2.270203  0
O  O69  1  0.66853938  0.23822918  0.41864568  1  -1.160839  0  -0.332554  -0.587244  0  2.141168  0
