# generated using pymatgen
data_AlH6C27N7(OF)6
_symmetry_space_group_name_H-M   'P 1'
_cell_length_a   3.94755086
_cell_length_b   18.06841754
_cell_length_c   18.17829599
_cell_angle_alpha   119.68929086
_cell_angle_beta   92.21559272
_cell_angle_gamma   91.11863260
_symmetry_Int_Tables_number   1
_chemical_formula_structural   AlH6C27N7(OF)6
_chemical_formula_sum   'Al1 H6 C27 N7 O6 F6'
_cell_volume   1124.41532296
_cell_formula_units_Z   1
loop_
 _symmetry_equiv_pos_site_id
 _symmetry_equiv_pos_as_xyz
  1  'x, y, z'
loop_
 _atom_site_type_symbol
 _atom_site_label
 _atom_site_symmetry_multiplicity
 _atom_site_fract_x
 _atom_site_fract_y
 _atom_site_fract_z
 _atom_site_occupancy
 _atom_site_pbe_bader_charge
 _atom_site_pbe_bader_spin_density
 _atom_site_pbe_cm5_charge
 _atom_site_pbe_ddec_charge
 _atom_site_pbe_ddec_spin_density
 _atom_site_pbe_ddec_sum_bond_order
 _atom_site_pbe_magmom
Al  Al0  1  0.00315171  0.00048983  0.50028908  1  2.504238  0  0.430657  1.589017  0  2.5786  0
H  H1  1  0.49385402  0.31471134  0.41571283  1  0.187203  0  0.122555  0.154795  0  0.982064  0
H  H2  1  0.55126675  0.08053866  0.89504400  1  0.145451  0  0.122792  0.155302  0  0.981471  0
H  H3  1  0.50668673  0.60804609  0.18366603  1  0.1065  0  0.122895  0.156012  0  0.979312  0
H  H4  1  0.53810544  0.31896660  0.89305466  1  0.121602  0  0.122958  0.155778  0  0.979049  0
H  H5  1  0.47984899  0.60131997  0.41799574  1  0.15505  0  0.122742  0.155712  0  0.981671  0
H  H6  1  0.53404025  0.07540830  0.18101743  1  0.118019  0  0.122859  0.15559  0  0.979349  0
C  C7  1  0.49853929  0.06491567  0.43343330  1  1.624315  0  0.285729  0.698188  0  4.054018  0
C  C8  1  0.52956572  0.06660551  0.63065689  1  1.600502  0  0.285129  0.697566  0  4.052584  0
C  C9  1  0.48160190  0.86935073  0.43563185  1  1.677629  0  0.286087  0.699019  0  4.048984  0
C  C10  1  0.50124707  0.24548171  0.38210818  1  -0.007224  0  -0.089416  -0.241262  0  3.950467  0
C  C11  1  0.51526046  0.19992312  0.29348242  1  -0.027768  0  -0.000448  0.055887  0  3.992311  0
C  C12  1  0.55025565  0.11522919  0.86031728  1  0.113816  0  -0.09052  -0.243785  0  3.951136  0
C  C13  1  0.54570452  0.20457246  0.90377771  1  -0.053767  0  0.000544  0.058302  0  3.991144  0
C  C14  1  0.49493550  0.59491366  0.29590106  1  0.021795  0  0.001078  0.060183  0  3.99245  0
C  C15  1  0.49867272  0.64090914  0.25239608  1  0.110254  0  -0.090027  -0.244833  0  3.952418  0
C  C16  1  0.53940781  0.24964152  0.85927627  1  0.134697  0  -0.089087  -0.242715  0  3.949349  0
C  C17  1  0.53427266  0.20392067  0.77156934  1  0.408601  0  0.111946  0.298302  0  4.052055  0
C  C18  1  0.54107417  0.11462439  0.72540889  1  0.094741  0  -0.015083  -0.245205  0  3.928839  0
C  C19  1  0.55076231  0.07249148  0.77270427  1  0.489932  0  0.113632  0.300842  0  4.054864  0
C  C20  1  0.49188217  0.72890799  0.29884949  1  0.538684  0  0.113399  0.300588  0  4.053192  0
C  C21  1  0.47598309  0.77406813  0.38747090  1  -0.03393  0  -0.015122  -0.24585  0  3.926778  0
C  C22  1  0.46750711  0.72521985  0.42802176  1  0.507167  0  0.112425  0.299671  0  4.054003  0
C  C23  1  0.48001819  0.63719923  0.38446876  1  0.007101  0  -0.089728  -0.24396  0  3.949607  0
C  C24  1  0.52174016  0.11058723  0.24965622  1  0.117761  0  -0.08949  -0.242407  0  3.949986  0
C  C25  1  0.51178382  0.06846215  0.29581466  1  0.44647  0  0.11198  0.297271  0  4.056879  0
C  C26  1  0.50111375  0.11134962  0.38436772  1  0.121075  0  -0.013998  -0.242615  0  3.933452  0
C  C27  1  0.49717548  0.20051158  0.42540859  1  0.484299  0  0.111284  0.296879  0  4.058964  0
C  C28  1  0.51100138  0.37682384  0.25289952  1  1.552135  0  0.357285  0.504027  0  4.094464  0
C  C29  1  0.54005225  0.24353770  0.11924780  1  1.474486  0  0.357754  0.504308  0  4.089  0
C  C30  1  0.52162771  0.24715578  0.24671727  1  1.069316  0  0.261459  0.390696  0  4.027019  0
C  C31  1  0.50576952  0.50117975  0.24837434  1  1.101137  0  0.261246  0.388988  0  4.029294  0
C  C32  1  0.52735744  0.37909753  0.11992481  1  1.59081  0  0.357978  0.505282  0  4.088263  0
C  C33  1  0.54421983  0.25103144  0.99712449  1  1.060106  0  0.261287  0.390066  0  4.023647  0
N  N34  1  0.52624767  0.33315076  0.16397760  1  -1.20289  0  -0.193892  -0.244384  0  3.55784  0
N  N35  1  0.54093114  0.20118684  0.16197532  1  -1.10031  0  -0.316522  -0.437006  0  3.202948  0
N  N36  1  0.50626148  0.33248912  0.29346912  1  -1.19556  0  -0.316878  -0.437451  0  3.216067  0
N  N37  1  0.49973441  0.46151191  0.29442219  1  -1.242718  0  -0.3167  -0.437169  0  3.213604  0
N  N38  1  0.51922729  0.46388241  0.16353505  1  -1.215733  0  -0.316974  -0.43736  0  3.205521  0
N  N39  1  0.55098048  0.20324335  0.03512004  1  -1.195309  0  -0.316884  -0.437306  0  3.210598  0
N  N40  1  0.53505781  0.33659831  0.03563593  1  -1.206595  0  -0.316951  -0.437881  0  3.205717  0
O  O41  1  0.25541610  0.90542102  0.48844432  1  -1.243786  0  -0.226098  -0.579542  0  2.347812  0
O  O42  1  0.25223220  0.01202160  0.41754949  1  -1.242422  0  -0.224647  -0.577328  0  2.351806  0
O  O43  1  0.28964030  0.08256341  0.59262612  1  -1.236342  0  -0.226407  -0.585093  0  2.369429  0
O  O44  1  0.71674351  0.90746346  0.41959544  1  -1.235511  0  -0.227204  -0.588667  0  2.380102  0
O  O45  1  0.75697868  0.01342569  0.59497603  1  -1.239315  0  -0.225318  -0.579562  0  2.35242  0
O  O46  1  0.74408923  0.08226908  0.48748506  1  -1.232667  0  -0.225478  -0.58044  0  2.356582  0
F  F47  1  0.52042986  0.98234305  0.25429557  1  -0.640838  0  -0.087726  -0.119915  0  1.318225  0
F  F48  1  0.48134201  0.24399393  0.51084179  1  -0.620099  0  -0.087972  -0.119921  0  1.316557  0
F  F49  1  0.45706615  0.76604537  0.51349446  1  -0.638807  0  -0.087634  -0.119705  0  1.320898  0
F  F50  1  0.49265190  0.77332064  0.25693239  1  -0.624877  0  -0.086949  -0.118511  0  1.325892  0
F  F51  1  0.53009960  0.24715619  0.72845115  1  -0.607282  0  -0.087252  -0.118783  0  1.320525  0
F  F52  1  0.55037985  0.98629918  0.73071427  1  -0.641143  0  -0.087295  -0.119616  0  1.321686  0
