# generated using pymatgen
data_Tb2H16C14S2O17
_symmetry_space_group_name_H-M   'P 1'
_cell_length_a   12.18375181
_cell_length_b   12.18369928
_cell_length_c   12.18368656
_cell_angle_alpha   97.50763588
_cell_angle_beta   115.76433941
_cell_angle_gamma   115.76448124
_symmetry_Int_Tables_number   1
_chemical_formula_structural   Tb2H16C14S2O17
_chemical_formula_sum   'Tb4 H32 C28 S4 O34'
_cell_volume   1348.18611140
_cell_formula_units_Z   2
loop_
 _symmetry_equiv_pos_site_id
 _symmetry_equiv_pos_as_xyz
  1  'x, y, z'
loop_
 _atom_site_type_symbol
 _atom_site_label
 _atom_site_symmetry_multiplicity
 _atom_site_fract_x
 _atom_site_fract_y
 _atom_site_fract_z
 _atom_site_occupancy
 _atom_site_pbe_bader_charge
 _atom_site_pbe_bader_spin_density
 _atom_site_pbe_cm5_charge
 _atom_site_pbe_ddec_charge
 _atom_site_pbe_ddec_spin_density
 _atom_site_pbe_ddec_sum_bond_order
 _atom_site_pbe_magmom
Tb  Tb0  1  0.87535466  0.45122125  0.26841669  1  2.184018  0  1.469026  2.169418  0  2.074488  0
Tb  Tb1  1  0.18280799  0.73158657  0.60693725  1  2.186374  0  1.469052  2.170061  0  2.073768  0
Tb  Tb2  1  0.12464559  0.39306156  0.57586837  1  2.188855  0  1.468975  2.169531  0  2.074276  0
Tb  Tb3  1  0.81719444  0.42413426  0.54878303  1  2.185411  0  1.469064  2.169524  0  2.074309  0
H  H4  1  0.18469439  0.55923526  0.42205974  1  0.585248  0  0.316726  0.421072  0  0.878011  0
H  H5  1  0.13717688  0.57794474  0.76263587  1  0.584184  0  0.316692  0.421032  0  0.878073  0
H  H6  1  0.81530684  0.23737010  0.37453923  1  0.597542  0  0.316656  0.420923  0  0.878212  0
H  H7  1  0.86283453  0.62546655  0.44077478  1  0.586745  0  0.316774  0.421101  0  0.877964  0
H  H8  1  0.01600302  0.56031558  0.11776592  1  0.658278  0  0.311159  0.41494  0  0.897583  0
H  H9  1  0.44255013  0.88223110  0.89824518  1  0.664296  0  0.311169  0.415011  0  0.897499  0
H  H10  1  0.98398274  0.10175672  0.54430560  1  0.660201  0  0.311198  0.414957  0  0.897574  0
H  H11  1  0.55745286  0.45569132  0.43968965  1  0.630722  0  0.311162  0.414933  0  0.897637  0
H  H12  1  0.02713439  0.43772564  0.12107412  1  0.609934  0  0.318612  0.403178  0  0.900077  0
H  H13  1  0.31665032  0.87892321  0.90606555  1  0.607784  0  0.318551  0.403202  0  0.90003  0
H  H14  1  0.97285768  0.09393445  0.41058751  1  0.611279  0  0.318597  0.403207  0  0.900024  0
H  H15  1  0.68334908  0.58941411  0.56227741  1  0.605904  0  0.318551  0.403139  0  0.900122  0
H  H16  1  0.65310641  0.31944596  0.98147012  1  0.635095  0  0.298974  0.391252  0  0.943685  0
H  H17  1  0.33797225  0.01853164  0.67163245  1  0.633107  0  0.298965  0.391294  0  0.943616  0
H  H18  1  0.34690514  0.32837862  0.66635793  1  0.630061  0  0.298969  0.391211  0  0.943695  0
H  H19  1  0.66201977  0.33365432  0.68055229  1  0.629482  0  0.298993  0.391306  0  0.943589  0
H  H20  1  0.73985642  0.45740436  0.98550042  1  0.642387  0  0.29903  0.394922  0  0.935247  0
H  H21  1  0.47189576  0.01450049  0.75436330  1  0.623012  0  0.299045  0.395027  0  0.93518  0
H  H22  1  0.26013420  0.24564218  0.71754191  1  0.652659  0  0.299027  0.394894  0  0.935308  0
H  H23  1  0.52809749  0.28245359  0.54259402  1  0.652927  0  0.29904  0.394927  0  0.935259  0
H  H24  1  0.17899162  0.27588518  0.91989357  1  0.130028  0  0.115933  0.126008  0  0.983081  0
H  H25  1  0.35600515  0.08010840  0.25910432  1  0.109622  0  0.115802  0.125971  0  0.983125  0
H  H26  1  0.82100382  0.74088947  0.09688763  1  0.120702  0  0.115928  0.125949  0  0.983233  0
H  H27  1  0.64399880  0.90310591  0.72408874  1  0.111013  0  0.115776  0.125996  0  0.983017  0
H  H28  1  0.19457537  0.22348534  0.11769188  1  0.11289  0  0.108744  0.135188  0  1.026287  0
H  H29  1  0.10580281  0.88231171  0.07689143  1  0.137844  0  0.108731  0.13515  0  1.026292  0
H  H30  1  0.80542894  0.92310617  0.02890591  1  0.146492  0  0.108743  0.135202  0  1.026302  0
H  H31  1  0.89420496  0.97109597  0.77651515  1  0.120192  0  0.108767  0.135221  0  1.026222  0
H  H32  1  0.76102211  0.21666435  0.79292194  1  0.16499  0  0.120438  0.138472  0  0.994579  0
H  H33  1  0.42374370  0.20708023  0.96809716  1  0.138943  0  0.12032  0.138492  0  0.994478  0
H  H34  1  0.23897301  0.03188595  0.45564441  1  0.143922  0  0.120504  0.138483  0  0.994493  0
H  H35  1  0.57624055  0.54435637  0.78331860  1  0.163753  0  0.120379  0.138488  0  0.994517  0
C  C36  1  0.97031363  0.29231639  0.73653377  1  1.587026  0  0.233414  0.640368  0  4.188483  0
C  C37  1  0.55578965  0.26347430  0.23378315  1  1.584782  0  0.233236  0.64037  0  4.188456  0
C  C38  1  0.02968728  0.76621290  0.32200366  1  1.597494  0  0.233416  0.64045  0  4.188378  0
C  C39  1  0.44421000  0.67799382  0.70767407  1  1.590165  0  0.233321  0.640464  0  4.188664  0
C  C40  1  0.97051039  0.25031574  0.84649219  1  0.008018  0  -0.016638  -0.049003  0  3.950006  0
C  C41  1  0.40383025  0.15351084  0.12401913  1  -0.066604  0  -0.016897  -0.049009  0  3.950017  0
C  C42  1  0.02948866  0.87596836  0.27979960  1  -0.004932  0  -0.01671  -0.049115  0  3.950087  0
C  C43  1  0.59616915  0.72020218  0.74967291  1  0.005935  0  -0.016924  -0.049036  0  3.950023  0
C  C44  1  0.09106999  0.24954290  0.93570232  1  -0.100693  0  -0.069687  -0.049971  0  3.95343  0
C  C45  1  0.31385078  0.06430121  0.15537202  1  -0.043974  0  -0.069849  -0.049894  0  3.953634  0
C  C46  1  0.90892918  0.84461771  0.15846461  1  -0.099634  0  -0.069571  -0.049711  0  3.953589  0
C  C47  1  0.68615457  0.84153145  0.75044629  1  -0.073902  0  -0.069762  -0.049775  0  3.953391  0
C  C48  1  0.09958244  0.21939804  0.04386606  1  0.074212  0  -0.095814  -0.194604  0  3.98  0
C  C49  1  0.17554268  0.95613765  0.05572258  1  0.071475  0  -0.095756  -0.194539  0  3.979963  0
C  C50  1  0.90042114  0.94427619  0.11981423  1  0.035574  0  -0.095863  -0.194743  0  3.980199  0
C  C51  1  0.82446461  0.88018503  0.78059659  1  0.043761  0  -0.095803  -0.194681  0  3.97985  0
C  C52  1  0.98653134  0.19083025  0.06250810  1  0.388672  0  0.094622  0.253992  0  4.040335  0
C  C53  1  0.12832796  0.93749590  0.92402528  1  0.435945  0  0.094603  0.25401  0  4.040328  0
C  C54  1  0.01347800  0.07596987  0.20429937  1  0.386325  0  0.094671  0.254063  0  4.040337  0
C  C55  1  0.87167146  0.79569782  0.80917413  1  0.404821  0  0.094642  0.254032  0  4.040413  0
C  C56  1  0.86270621  0.18689471  0.97238570  1  -0.166822  0  -0.028455  -0.22221  0  3.989776  0
C  C57  1  0.21451210  0.02761498  0.89031840  1  -0.225661  0  -0.028479  -0.222235  0  3.989713  0
C  C58  1  0.13730333  0.10966938  0.32419186  1  -0.158671  0  -0.028534  -0.222301  0  3.989844  0
C  C59  1  0.78548046  0.67581291  0.81310417  1  -0.160375  0  -0.028515  -0.222194  0  3.989923  0
C  C60  1  0.85498905  0.21727787  0.86354674  1  0.002905  0  -0.068603  -0.078958  0  3.931058  0
C  C61  1  0.35373624  0.13645537  0.99144440  1  0.062119  0  -0.068969  -0.079013  0  3.930922  0
C  C62  1  0.14501247  0.00854457  0.36228471  1  0.043097  0  -0.068612  -0.078844  0  3.930928  0
C  C63  1  0.64626011  0.63771380  0.78271661  1  -0.002375  0  -0.068942  -0.079002  0  3.930993  0
S  S64  1  0.71975159  0.14280655  0.00136736  1  3.21522  0  0.533936  1.212057  0  6.154242  0
S  S65  1  0.14143837  0.99863788  0.71838260  1  3.210094  0  0.534159  1.212193  0  6.154226  0
S  S66  1  0.28025097  0.28160673  0.42305584  1  3.206386  0  0.533872  1.211814  0  6.154554  0
S  S67  1  0.85855600  0.57694570  0.85719621  1  3.217715  0  0.534097  1.211859  0  6.154489  0
O  O68  1  0.86123377  0.29389428  0.65744788  1  -1.203924  0  -0.408178  -0.668827  0  2.329942  0
O  O69  1  0.63644974  0.34255927  0.20378704  1  -1.204971  0  -0.408344  -0.668809  0  2.330011  0
O  O70  1  0.13876770  0.79620518  0.43265849  1  -1.203067  0  -0.408189  -0.668998  0  2.330062  0
O  O71  1  0.36355477  0.56735307  0.70610285  1  -1.206346  0  -0.408333  -0.668807  0  2.330405  0
O  O72  1  0.08127125  0.32621397  0.73017232  1  -1.186837  0  -0.397698  -0.648235  0  2.290299  0
O  O73  1  0.59604389  0.26984328  0.35110350  1  -1.186176  0  -0.397997  -0.648256  0  2.290302  0
O  O74  1  0.91872756  0.64889076  0.24494113  1  -1.1933  0  -0.397799  -0.648262  0  2.290209  0
O  O75  1  0.40395205  0.75506656  0.67378452  1  -1.187864  0  -0.39813  -0.648573  0  2.290103  0
O  O76  1  0.99999844  0.17707116  0.17708472  1  -1.106946  0  -0.144888  -0.207798  0  2.657026  0
O  O77  1  0.99999875  0.82292039  0.82292161  1  -1.111253  0  -0.144881  -0.207828  0  2.657037  0
O  O78  1  0.65391145  0.00434898  0.98618559  1  -1.324935  0  -0.325328  -0.576514  0  2.156704  0
O  O79  1  0.01816838  0.01382209  0.66773176  1  -1.323363  0  -0.32497  -0.576418  0  2.156903  0
O  O80  1  0.34609390  0.33227067  0.35044198  1  -1.326934  0  -0.325139  -0.576342  0  2.156788  0
O  O81  1  0.98182773  0.64956271  0.99565346  1  -1.332302  0  -0.32503  -0.576379  0  2.156899  0
O  O82  1  0.61661966  0.16441008  0.90166091  1  -1.341849  0  -0.315706  -0.581402  0  2.237629  0
O  O83  1  0.26274746  0.09833918  0.71495502  1  -1.339595  0  -0.315704  -0.581429  0  2.237652  0
O  O84  1  0.38337943  0.28504088  0.54779566  1  -1.339641  0  -0.315681  -0.581367  0  2.237669  0
O  O85  1  0.73724948  0.45220565  0.83558383  1  -1.342098  0  -0.315684  -0.581378  0  2.237765  0
O  O86  1  0.79228248  0.23530896  0.13819142  1  -1.349317  0  -0.407698  -0.715389  0  2.354717  0
O  O87  1  0.09710627  0.86180967  0.65408376  1  -1.344927  0  -0.407752  -0.71569  0  2.354606  0
O  O88  1  0.20771565  0.34589640  0.44302141  1  -1.341706  0  -0.407599  -0.715395  0  2.354726  0
O  O89  1  0.90288706  0.55698521  0.76469847  1  -1.342531  0  -0.407663  -0.715421  0  2.35467  0
O  O90  1  0.11662185  0.53782242  0.44977894  1  -1.258287  0  -0.764652  -1.144209  0  2.019947  0
O  O91  1  0.08804629  0.55022443  0.66684334  1  -1.257468  0  -0.764675  -1.144155  0  2.020008  0
O  O92  1  0.88338299  0.33316087  0.42120600  1  -1.271021  0  -0.764642  -1.143829  0  2.020041  0
O  O93  1  0.91195638  0.57879883  0.46218117  1  -1.260344  0  -0.764684  -1.144208  0  2.019878  0
O  O94  1  0.02991147  0.50839937  0.17240407  1  -1.25409  0  -0.602577  -0.821025  0  1.994488  0
O  O95  1  0.33599707  0.82759890  0.85750815  1  -1.258545  0  -0.602824  -0.821235  0  1.994489  0
O  O96  1  0.97009711  0.14249744  0.47849030  1  -1.258724  0  -0.602543  -0.821058  0  1.994499  0
O  O97  1  0.66400641  0.52151245  0.49160995  1  -1.221977  0  -0.602731  -0.821006  0  1.994611  0
O  O98  1  0.71102033  0.41410252  0.03955521  1  -1.260998  0  -0.646491  -0.846757  0  2.097842  0
O  O99  1  0.37454683  0.96044598  0.67146932  1  -1.241017  0  -0.646528  -0.84704  0  2.09769  0
O  O100  1  0.28898272  0.32854202  0.70309105  1  -1.266029  0  -0.646433  -0.846659  0  2.097809  0
O  O101  1  0.62545127  0.29691567  0.58589595  1  -1.265606  0  -0.646506  -0.846821  0  2.097804  0
