# generated using pymatgen
data_Tb2H15C12(NO4)3
_symmetry_space_group_name_H-M   'P 1'
_cell_length_a   11.67236179
_cell_length_b   18.95239802
_cell_length_c   18.95005830
_cell_angle_alpha   84.56391540
_cell_angle_beta   72.06140448
_cell_angle_gamma   72.05365256
_symmetry_Int_Tables_number   1
_chemical_formula_structural   Tb2H15C12(NO4)3
_chemical_formula_sum   'Tb16 H120 C96 N24 O96'
_cell_volume   3794.27657602
_cell_formula_units_Z   8
loop_
 _symmetry_equiv_pos_site_id
 _symmetry_equiv_pos_as_xyz
  1  'x, y, z'
loop_
 _atom_site_type_symbol
 _atom_site_label
 _atom_site_symmetry_multiplicity
 _atom_site_fract_x
 _atom_site_fract_y
 _atom_site_fract_z
 _atom_site_occupancy
 _atom_site_pbe_bader_charge
 _atom_site_pbe_bader_spin_density
 _atom_site_pbe_cm5_charge
 _atom_site_pbe_ddec_charge
 _atom_site_pbe_ddec_spin_density
 _atom_site_pbe_ddec_sum_bond_order
 _atom_site_pbe_magmom
Tb  Tb0  1  0.50994198  0.79771405  0.36570952  1  2.16615  0  1.55415  2.040434  0  2.180208  0
Tb  Tb1  1  0.17337758  0.70230639  0.13433449  1  2.166308  0  1.554586  2.041289  0  2.180714  0
Tb  Tb2  1  0.87569386  0.63433489  0.29771536  1  2.16501  0  1.554633  2.041664  0  2.17966  0
Tb  Tb3  1  0.30764045  0.86572395  0.20226621  1  2.165893  0  1.554901  2.040077  0  2.181176  0
Tb  Tb4  1  0.49006009  0.20228441  0.63429177  1  2.166176  0  1.554165  2.040405  0  2.180156  0
Tb  Tb5  1  0.82662030  0.29769318  0.86566594  1  2.166291  0  1.554598  2.041326  0  2.18067  0
Tb  Tb6  1  0.12430557  0.36566634  0.70228629  1  2.164989  0  1.55462  2.041636  0  2.179663  0
Tb  Tb7  1  0.69235920  0.13427950  0.79773053  1  2.165836  0  1.554919  2.040012  0  2.181288  0
Tb  Tb8  1  0.57154097  0.97729676  0.39431512  1  2.126232  0  1.501751  1.944809  0  2.244397  0
Tb  Tb9  1  0.44314224  0.52265920  0.10570938  1  2.128228  0  1.501019  1.944846  0  2.243312  0
Tb  Tb10  1  0.96573025  0.60569124  0.47729792  1  2.125563  0  1.501228  1.945854  0  2.24435  0
Tb  Tb11  1  0.54865830  0.89429482  0.02272490  1  2.126752  0  1.502426  1.946567  0  2.242996  0
Tb  Tb12  1  0.42846198  0.02269782  0.60568722  1  2.126225  0  1.501806  1.945025  0  2.24408  0
Tb  Tb13  1  0.55685556  0.47734093  0.89429175  1  2.128387  0  1.501009  1.944739  0  2.243467  0
Tb  Tb14  1  0.03426697  0.39431110  0.52270268  1  2.125542  0  1.501206  1.945832  0  2.24431  0
Tb  Tb15  1  0.45134402  0.10570198  0.97727429  1  2.126849  0  1.502447  1.946546  0  2.242999  0
H  H16  1  0.36014229  0.77749352  0.56273237  1  0.119377  0  0.132001  0.137852  0  0.948428  0
H  H17  1  0.20048242  0.72255881  0.93729346  1  0.102765  0  0.131992  0.139012  0  0.948024  0
H  H18  1  0.92344036  0.43731167  0.27735874  1  0.106433  0  0.132003  0.138386  0  0.94743  0
H  H19  1  0.13808867  0.06273532  0.22256934  1  0.10722  0  0.131939  0.138437  0  0.947063  0
H  H20  1  0.63985360  0.22250605  0.43726823  1  0.11936  0  0.132002  0.137879  0  0.948373  0
H  H21  1  0.79951750  0.27744131  0.06270556  1  0.102749  0  0.131997  0.139025  0  0.948009  0
H  H22  1  0.07655844  0.56268790  0.72264256  1  0.106394  0  0.131985  0.138329  0  0.947459  0
H  H23  1  0.86191189  0.93726591  0.77742670  1  0.107148  0  0.131919  0.138411  0  0.947056  0
H  H24  1  0.21393621  0.84839180  0.57904305  1  0.088068  0  0.118648  0.125359  0  0.947583  0
H  H25  1  0.14128025  0.65181456  0.92098286  1  0.078994  0  0.118816  0.126375  0  0.947404  0
H  H26  1  0.79360623  0.42086746  0.34819285  1  0.082191  0  0.119069  0.126157  0  0.947863  0
H  H27  1  0.06253652  0.07922820  0.15179722  1  0.095278  0  0.118859  0.126036  0  0.947703  0
H  H28  1  0.78606276  0.15160667  0.42095685  1  0.088082  0  0.118654  0.125351  0  0.947597  0
H  H29  1  0.85872223  0.34818334  0.07901650  1  0.078998  0  0.118815  0.126369  0  0.947402  0
H  H30  1  0.20638834  0.57913489  0.65181038  1  0.08096  0  0.119044  0.12612  0  0.947896  0
H  H31  1  0.93746706  0.92077193  0.84819549  1  0.095302  0  0.118883  0.126072  0  0.947719  0
H  H32  1  0.18928152  0.91559239  0.45506542  1  0.097014  0  0.130952  0.142078  0  0.947992  0
H  H33  1  0.05995386  0.58456069  0.04498078  1  0.099803  0  0.130927  0.142209  0  0.948396  0
H  H34  1  0.64456712  0.54502103  0.41558639  1  0.094861  0  0.130852  0.141739  0  0.948211  0
H  H35  1  0.10538422  0.95506558  0.08435020  1  0.099704  0  0.130962  0.142107  0  0.949014  0
H  H36  1  0.81072070  0.08440829  0.54493552  1  0.097001  0  0.130945  0.142046  0  0.947943  0
H  H37  1  0.94004299  0.41544054  0.95501895  1  0.099762  0  0.130965  0.14226  0  0.948401  0
H  H38  1  0.35542749  0.45497688  0.58441633  1  0.094905  0  0.130893  0.141801  0  0.948175  0
H  H39  1  0.89461487  0.04493621  0.91564882  1  0.099735  0  0.130972  0.142108  0  0.949055  0
H  H40  1  0.10460831  0.84868817  0.47526159  1  0.098477  0  0.114399  0.121321  0  1.003151  0
H  H41  1  0.92850555  0.65144796  0.02475435  1  0.121257  0  0.114095  0.121  0  1.003385  0
H  H42  1  0.58016269  0.52458728  0.34873089  1  0.116873  0  0.11448  0.122245  0  1.003421  0
H  H43  1  0.95357632  0.97551732  0.15109601  1  0.103605  0  0.114296  0.12116  0  1.003809  0
H  H44  1  0.89539487  0.15131417  0.52473846  1  0.098399  0  0.114445  0.121335  0  1.003131  0
H  H45  1  0.07149253  0.34855438  0.97524450  1  0.121286  0  0.11411  0.121032  0  1.003363  0
H  H46  1  0.41983334  0.47541229  0.65126779  1  0.116956  0  0.11445  0.122247  0  1.00332  0
H  H47  1  0.04642214  0.02448613  0.84890371  1  0.103422  0  0.114273  0.121135  0  1.003851  0
H  H48  1  0.45632445  0.05989665  0.21697139  1  0.05971  0  0.120165  0.117185  0  0.962509  0
H  H49  1  0.23322106  0.44015145  0.28316835  1  0.052884  0  0.120503  0.117867  0  0.961679  0
H  H50  1  0.67304682  0.78316853  0.55981169  1  0.05259  0  0.120758  0.11752  0  0.961563  0
H  H51  1  0.51615412  0.71671430  0.94021587  1  0.054922  0  0.121078  0.118498  0  0.96137  0
H  H52  1  0.54366624  0.94010736  0.78303308  1  0.059631  0  0.120166  0.117145  0  0.962649  0
H  H53  1  0.76678266  0.55984756  0.71683013  1  0.052858  0  0.1205  0.117873  0  0.961659  0
H  H54  1  0.32695835  0.21683103  0.44018328  1  0.052546  0  0.120736  0.117507  0  0.961653  0
H  H55  1  0.48384871  0.28328582  0.05978384  1  0.054942  0  0.121083  0.118469  0  0.961386  0
H  H56  1  0.30490461  0.09516753  0.28090627  1  0.065292  0  0.116536  0.115768  0  0.96993  0
H  H57  1  0.18114389  0.40471447  0.21931475  1  0.065999  0  0.116755  0.115975  0  0.969195  0
H  H58  1  0.58541849  0.71938064  0.59527802  1  0.068596  0  0.11669  0.115968  0  0.969633  0
H  H59  1  0.40018447  0.78058402  0.90482585  1  0.072042  0  0.116388  0.115382  0  0.971247  0
H  H60  1  0.69508876  0.90483204  0.71910223  1  0.065178  0  0.116567  0.115844  0  0.969895  0
H  H61  1  0.81885867  0.59528620  0.78068496  1  0.065957  0  0.11678  0.116029  0  0.969166  0
H  H62  1  0.41458249  0.28062281  0.40472099  1  0.068552  0  0.116726  0.11603  0  0.969657  0
H  H63  1  0.59981952  0.21941444  0.09517263  1  0.072032  0  0.116405  0.115379  0  0.971214  0
H  H64  1  0.56573274  0.15925306  0.31624464  1  0.081454  0  0.115678  0.11648  0  0.985744  0
H  H65  1  0.54142116  0.34091192  0.18379153  1  0.050817  0  0.115756  0.116062  0  0.986707  0
H  H66  1  0.88197364  0.68384636  0.65905021  1  0.085754  0  0.115571  0.115632  0  0.987566  0
H  H67  1  0.72489351  0.81598476  0.84089292  1  0.08472  0  0.115489  0.115785  0  0.986668  0
H  H68  1  0.43426906  0.84074595  0.68375665  1  0.081458  0  0.115706  0.116493  0  0.985782  0
H  H69  1  0.45858176  0.65908765  0.81620748  1  0.05086  0  0.115735  0.116035  0  0.9867  0
H  H70  1  0.11802249  0.31615765  0.34094706  1  0.085588  0  0.115543  0.115566  0  0.987547  0
H  H71  1  0.27510628  0.18401537  0.15910802  1  0.084724  0  0.115491  0.115787  0  0.986651  0
H  H72  1  0.52627839  0.15701667  0.23351105  1  0.015078  0  0.095959  0.086753  0  0.998814  0
H  H73  1  0.41707117  0.34293530  0.26655459  1  0.039948  0  0.095631  0.086304  0  0.998964  0
H  H74  1  0.75967332  0.76658614  0.65708144  1  0.027474  0  0.095652  0.086137  0  0.999355  0
H  H75  1  0.68344757  0.73315066  0.84316782  1  0.019065  0  0.09595  0.086051  0  0.999026  0
H  H76  1  0.47371960  0.84298068  0.76649306  1  0.0152  0  0.095963  0.086712  0  0.998838  0
H  H77  1  0.58293074  0.65706482  0.73344425  1  0.039906  0  0.095626  0.086283  0  0.999012  0
H  H78  1  0.24032753  0.23341675  0.34291617  1  0.027454  0  0.09566  0.086184  0  0.999302  0
H  H79  1  0.31655180  0.26685057  0.15683120  1  0.019067  0  0.095974  0.086127  0  0.998965  0
H  H80  1  0.96907772  0.84550559  0.32197499  1  0.111635  0  0.117352  0.129376  0  0.988916  0
H  H81  1  0.63647367  0.65457445  0.17795948  1  0.108024  0  0.116828  0.12836  0  0.987509  0
H  H82  1  0.29129595  0.67771757  0.34554623  1  0.111615  0  0.117482  0.129151  0  0.989666  0
H  H83  1  0.81415839  0.82233740  0.15465668  1  0.094646  0  0.116503  0.127264  0  0.988477  0
H  H84  1  0.03092366  0.15449454  0.67802437  1  0.111659  0  0.117341  0.12938  0  0.9889  0
H  H85  1  0.36352039  0.34542734  0.82204096  1  0.107981  0  0.11684  0.12836  0  0.987426  0
H  H86  1  0.70870169  0.32228422  0.65445245  1  0.111522  0  0.117482  0.129136  0  0.989658  0
H  H87  1  0.18584434  0.17765884  0.84534058  1  0.094915  0  0.116512  0.127231  0  0.988473  0
H  H88  1  0.87461527  0.90397264  0.26834612  1  0.112141  0  0.126314  0.132477  0  0.987673  0
H  H89  1  0.54691273  0.59605208  0.23158364  1  0.106279  0  0.126281  0.132273  0  0.987751  0
H  H90  1  0.14321702  0.73140246  0.40402983  1  0.117798  0  0.126526  0.132716  0  0.987985  0
H  H91  1  0.77858484  0.76859107  0.09610743  1  0.117019  0  0.126297  0.131913  0  0.987688  0
H  H92  1  0.12538298  0.09602804  0.73165518  1  0.112124  0  0.126308  0.132483  0  0.987736  0
H  H93  1  0.45308367  0.40394860  0.76841592  1  0.106224  0  0.12625  0.132235  0  0.987777  0
H  H94  1  0.85677930  0.26859878  0.59597043  1  0.117834  0  0.126502  0.13272  0  0.987945  0
H  H95  1  0.22141518  0.23140517  0.90388984  1  0.11701  0  0.126281  0.13189  0  0.987687  0
H  H96  1  0.92296532  0.92548147  0.45160026  1  0.05904  0  0.11048  0.110175  0  0.980997  0
H  H97  1  0.80010181  0.57454611  0.04835528  1  0.064782  0  0.110395  0.109796  0  0.981615  0
H  H98  1  0.37468586  0.54816687  0.42528736  1  0.09303  0  0.110085  0.109728  0  0.982243  0
H  H99  1  0.84784993  0.95188392  0.07488370  1  0.077519  0  0.110446  0.110284  0  0.980823  0
H  H100  1  0.07703658  0.07451588  0.54840086  1  0.059327  0  0.110476  0.110143  0  0.981028  0
H  H101  1  0.19989642  0.42545567  0.95164550  1  0.064759  0  0.110399  0.109805  0  0.981595  0
H  H102  1  0.62531797  0.45183325  0.57470866  1  0.09332  0  0.110104  0.109804  0  0.982195  0
H  H103  1  0.15214658  0.04811454  0.92511954  1  0.077442  0  0.110459  0.110257  0  0.980834  0
H  H104  1  0.86132559  0.85080482  0.45599992  1  0.065234  0  0.122787  0.132937  0  0.967427  0
H  H105  1  0.66821861  0.64922186  0.04392841  1  0.07154  0  0.122431  0.132534  0  0.96718  0
H  H106  1  0.31723005  0.54373367  0.35073061  1  0.069615  0  0.122861  0.133546  0  0.966154  0
H  H107  1  0.71138542  0.95626022  0.14941938  1  0.070836  0  0.122589  0.132401  0  0.967409  0
H  H108  1  0.13867795  0.14919032  0.54400067  1  0.065256  0  0.122809  0.132974  0  0.967504  0
H  H109  1  0.33178218  0.35077771  0.95607270  1  0.071465  0  0.122434  0.132521  0  0.967153  0
H  H110  1  0.68276305  0.45626700  0.64926685  1  0.069526  0  0.122877  0.133563  0  0.966094  0
H  H111  1  0.28861138  0.04373713  0.85058053  1  0.070814  0  0.122591  0.132357  0  0.967436  0
H  H112  1  0.29517733  0.75408668  0.47008428  1  0.419333  0  0.314583  0.265065  0  0.932765  0
H  H113  1  0.01933155  0.74608772  0.02984420  1  0.440097  0  0.31474  0.265587  0  0.931575  0
H  H114  1  0.76548748  0.52976248  0.25404145  1  0.442786  0  0.314339  0.265991  0  0.931417  0
H  H115  1  0.04924248  0.97029058  0.24589245  1  0.432999  0  0.314537  0.26599  0  0.930766  0
H  H116  1  0.70482215  0.24591289  0.52991457  1  0.419333  0  0.314585  0.265072  0  0.932736  0
H  H117  1  0.98066930  0.25391241  0.97015569  1  0.440093  0  0.314733  0.265562  0  0.931593  0
H  H118  1  0.23451160  0.47023653  0.74595985  1  0.442774  0  0.314362  0.266001  0  0.931464  0
H  H119  1  0.95075578  0.02971287  0.75410657  1  0.432969  0  0.314503  0.265942  0  0.930844  0
H  H120  1  0.39091551  0.11994995  0.36174984  1  0.415086  0  0.299371  0.238267  0  0.983615  0
H  H121  1  0.37272213  0.38008342  0.13834944  1  0.417474  0  0.299818  0.239793  0  0.983545  0
H  H122  1  0.75237167  0.63840799  0.61995150  1  0.41488  0  0.299914  0.239342  0  0.98307  0
H  H123  1  0.51083207  0.86147288  0.88008578  1  0.414657  0  0.299388  0.238238  0  0.983563  0
H  H124  1  0.60908443  0.88005184  0.63825460  1  0.41481  0  0.299382  0.238339  0  0.98359  0
H  H125  1  0.62727998  0.61991671  0.86165009  1  0.417471  0  0.299822  0.239792  0  0.983534  0
H  H126  1  0.24762591  0.36159324  0.38004840  1  0.414849  0  0.29993  0.23937  0  0.983044  0
H  H127  1  0.48916973  0.13852614  0.11991551  1  0.414789  0  0.299373  0.238202  0  0.983562  0
H  H128  1  0.82955576  0.98146881  0.36074729  1  0.426846  0  0.310188  0.255367  0  0.942215  0
H  H129  1  0.67185321  0.51856966  0.13921381  1  0.421221  0  0.310824  0.256636  0  0.941488  0
H  H130  1  0.19045229  0.63898362  0.48146662  1  0.429267  0  0.311007  0.256179  0  0.941885  0
H  H131  1  0.81082248  0.86102478  0.01867777  1  0.418323  0  0.311053  0.257528  0  0.941408  0
H  H132  1  0.17044637  0.01853021  0.63925278  1  0.426834  0  0.310181  0.255354  0  0.942246  0
H  H133  1  0.32814420  0.48143047  0.86078592  1  0.421196  0  0.310823  0.256601  0  0.941488  0
H  H134  1  0.80955313  0.36101595  0.51853168  1  0.429094  0  0.311017  0.256176  0  0.941877  0
H  H135  1  0.18918054  0.13897313  0.98132107  1  0.418371  0  0.311045  0.257442  0  0.941549  0
C  C136  1  0.38027194  0.88373796  0.52704297  1  1.579407  0  0.241698  0.678194  0  4.088772  0
C  C137  1  0.29099612  0.61626403  0.97298226  1  1.590567  0  0.241271  0.677205  0  4.088145  0
C  C138  1  0.90759547  0.47299015  0.38372069  1  1.586987  0  0.241751  0.678761  0  4.090798  0
C  C139  1  0.26415724  0.02712133  0.11620572  1  1.589619  0  0.241859  0.67842  0  4.088681  0
C  C140  1  0.61972913  0.11626106  0.47295815  1  1.57879  0  0.241694  0.678282  0  4.088603  0
C  C141  1  0.70900748  0.38373721  0.02701972  1  1.5905  0  0.241302  0.677349  0  4.087882  0
C  C142  1  0.09240530  0.52701053  0.61627990  1  1.58685  0  0.241829  0.678961  0  4.090766  0
C  C143  1  0.73584687  0.97287769  0.88379416  1  1.589482  0  0.241777  0.678363  0  4.088716  0
C  C144  1  0.30736766  0.82714589  0.53856629  1  0.261696  0  -0.060043  -0.186333  0  3.914082  0
C  C145  1  0.17307084  0.67295927  0.96146553  1  0.265165  0  -0.061056  -0.189989  0  3.915802  0
C  C146  1  0.84641585  0.46140663  0.32702357  1  0.25319  0  -0.060543  -0.187595  0  3.915115  0
C  C147  1  0.13476165  0.03866603  0.17291897  1  0.255177  0  -0.060452  -0.187715  0  3.914584  0
C  C148  1  0.69263101  0.17285423  0.46143308  1  0.261768  0  -0.060044  -0.186342  0  3.913978  0
C  C149  1  0.82693235  0.32703974  0.03853348  1  0.265204  0  -0.061019  -0.189963  0  3.915788  0
C  C150  1  0.15358361  0.53859349  0.67297861  1  0.254616  0  -0.060475  -0.187479  0  3.915032  0
C  C151  1  0.86523687  0.96133465  0.82707848  1  0.255222  0  -0.060466  -0.187733  0  3.914606  0
C  C152  1  0.19557422  0.85807216  0.44427215  1  0.266326  0  -0.063407  -0.188591  0  3.879051  0
C  C153  1  0.99788698  0.64208476  0.05574675  1  0.249409  0  -0.062809  -0.188133  0  3.87876  0
C  C154  1  0.64012532  0.55564686  0.35802752  1  0.244951  0  -0.063345  -0.18781  0  3.880067  0
C  C155  1  0.05388614  0.94442059  0.14185992  1  0.251085  0  -0.062854  -0.18695  0  3.878683  0
C  C156  1  0.80442904  0.14192963  0.55572721  1  0.266397  0  -0.063416  -0.188525  0  3.878943  0
C  C157  1  0.00210954  0.35791648  0.94425420  1  0.249501  0  -0.062848  -0.188181  0  3.878893  0
C  C158  1  0.35987521  0.44434994  0.64197255  1  0.244953  0  -0.063467  -0.188028  0  3.879784  0
C  C159  1  0.94611051  0.05558064  0.85813910  1  0.251321  0  -0.062829  -0.186894  0  3.878742  0
C  C160  1  0.22112432  0.85387106  0.36129999  1  1.552552  0  0.215606  0.641201  0  4.144902  0
C  C161  1  0.93630669  0.64625156  0.13872909  1  1.544204  0  0.216351  0.640889  0  4.147036  0
C  C162  1  0.58256761  0.63862527  0.35374951  1  1.561572  0  0.212804  0.633779  0  4.153813  0
C  C163  1  0.07497762  0.86145283  0.14615772  1  1.554128  0  0.214779  0.636792  0  4.149373  0
C  C164  1  0.77887494  0.14613184  0.63869920  1  1.552738  0  0.215557  0.641116  0  4.144733  0
C  C165  1  0.06368966  0.35374856  0.86127169  1  1.544201  0  0.216343  0.64092  0  4.146964  0
C  C166  1  0.41743764  0.36137041  0.64625090  1  1.561531  0  0.21288  0.633859  0  4.153597  0
C  C167  1  0.92501958  0.13854729  0.85384131  1  1.554112  0  0.21474  0.636682  0  4.149378  0
C  C168  1  0.39461874  0.97994227  0.28948053  1  1.611274  0  0.246508  0.705078  0  4.081096  0
C  C169  1  0.16394708  0.52000132  0.21057310  1  1.621512  0  0.246973  0.707043  0  4.077795  0
C  C170  1  0.68381123  0.71052091  0.47997720  1  1.607193  0  0.244434  0.701606  0  4.08458  0
C  C171  1  0.37437764  0.78937791  0.02011490  1  1.626668  0  0.24723  0.707753  0  4.075536  0
C  C172  1  0.60537926  0.02005785  0.71052129  1  1.611338  0  0.246514  0.705065  0  4.081086  0
C  C173  1  0.83605177  0.48000214  0.78942802  1  1.621732  0  0.246917  0.706966  0  4.077866  0
C  C174  1  0.31618273  0.28947922  0.52002237  1  1.606912  0  0.244519  0.70171  0  4.08459  0
C  C175  1  0.62562625  0.21062221  0.97988376  1  1.627055  0  0.247178  0.707565  0  4.075606  0
C  C176  1  0.40110652  0.05925040  0.27577467  1  0.284514  0  -0.062122  -0.17534  0  3.912511  0
C  C177  1  0.23614000  0.44073173  0.22437904  1  0.302052  0  -0.062632  -0.176282  0  3.912064  0
C  C178  1  0.67650682  0.72438405  0.55928420  1  0.305884  0  -0.062211  -0.174368  0  3.911138  0
C  C179  1  0.46029838  0.77551435  0.94082370  1  0.295887  0  -0.06223  -0.175844  0  3.91337  0
C  C180  1  0.59888776  0.94074973  0.72423085  1  0.284407  0  -0.062141  -0.175415  0  3.912681  0
C  C181  1  0.76386208  0.55926950  0.77561997  1  0.301995  0  -0.062722  -0.176461  0  3.912209  0
C  C182  1  0.32349469  0.27561607  0.44071323  1  0.306218  0  -0.062254  -0.174499  0  3.911279  0
C  C183  1  0.53970283  0.22448467  0.05917549  1  0.29588  0  -0.062258  -0.175788  0  3.913339  0
C  C184  1  0.55419442  0.12249292  0.27920836  1  0.270648  0  -0.080151  -0.191852  0  3.952352  0
C  C185  1  0.45598996  0.37755959  0.22089746  1  0.282494  0  -0.079273  -0.190767  0  3.950829  0
C  C186  1  0.83316678  0.72092761  0.62241830  1  0.245797  0  -0.079025  -0.18946  0  3.952705  0
C  C187  1  0.67661487  0.77894966  0.87765959  1  0.265442  0  -0.078724  -0.189161  0  3.951484  0
C  C188  1  0.44580436  0.87750498  0.72079470  1  0.270479  0  -0.080149  -0.191742  0  3.952322  0
C  C189  1  0.54401203  0.62243998  0.77910067  1  0.282093  0  -0.079217  -0.190678  0  3.950734  0
C  C190  1  0.16683340  0.27907584  0.37757791  1  0.24609  0  -0.078984  -0.18941  0  3.952766  0
C  C191  1  0.32338570  0.22105101  0.12234030  1  0.265295  0  -0.078736  -0.189157  0  3.951483  0
C  C192  1  0.68415800  0.06510109  0.24802923  1  1.603593  0  0.190892  0.606387  0  4.225841  0
C  C193  1  0.49718432  0.43497928  0.25210444  1  1.586077  0  0.193074  0.609842  0  4.220273  0
C  C194  1  0.93180247  0.75210105  0.56500486  1  1.609178  0  0.191344  0.607736  0  4.22217  0
C  C195  1  0.74911111  0.74797379  0.93507372  1  1.617034  0  0.191177  0.607499  0  4.222601  0
C  C196  1  0.31583923  0.93489515  0.75197261  1  1.603513  0  0.191017  0.606518  0  4.225746  0
C  C197  1  0.50281605  0.56502139  0.74789476  1  1.586494  0  0.193114  0.609913  0  4.220157  0
C  C198  1  0.06820047  0.24790018  0.43499239  1  1.608985  0  0.191342  0.607736  0  4.222457  0
C  C199  1  0.25088906  0.25202412  0.06492705  1  1.617199  0  0.191047  0.607216  0  4.222965  0
C  C200  1  0.79552103  0.82342107  0.32825293  1  1.589611  0  0.254851  0.712283  0  4.051831  0
C  C201  1  0.44718354  0.67654911  0.17168707  1  1.574029  0  0.253794  0.710501  0  4.05453  0
C  C202  1  0.12393447  0.67166624  0.32340083  1  1.58031  0  0.25554  0.714427  0  4.048262  0
C  C203  1  0.61864697  0.82835983  0.17660602  1  1.58379  0  0.253573  0.708569  0  4.058722  0
C  C204  1  0.20447811  0.17657850  0.67174714  1  1.589587  0  0.254891  0.712452  0  4.051665  0
C  C205  1  0.55281500  0.32345046  0.82831090  1  1.574015  0  0.2538  0.710522  0  4.054375  0
C  C206  1  0.87606638  0.32833665  0.67659679  1  1.580327  0  0.255603  0.7145  0  4.048195  0
C  C207  1  0.38135398  0.17163863  0.82339369  1  1.583802  0  0.253623  0.708601  0  4.058554  0
C  C208  1  0.87246475  0.87623801  0.32224901  1  0.242851  0  -0.06873  -0.200499  0  3.897341  0
C  C209  1  0.57096436  0.62378142  0.17768686  1  0.255432  0  -0.067713  -0.19843  0  3.898115  0
C  C210  1  0.19491202  0.67751872  0.37624314  1  0.247144  0  -0.068944  -0.201416  0  3.897663  0
C  C211  1  0.74841347  0.82250282  0.12387536  1  0.252781  0  -0.067145  -0.195399  0  3.894922  0
C  C212  1  0.12753710  0.12376156  0.67775105  1  0.242842  0  -0.068736  -0.200616  0  3.897448  0
C  C213  1  0.42903015  0.37622092  0.82231375  1  0.255511  0  -0.067717  -0.198418  0  3.897993  0
C  C214  1  0.80508699  0.32248362  0.62375658  1  0.247162  0  -0.068851  -0.201274  0  3.897548  0
C  C215  1  0.25158719  0.17749398  0.87612279  1  0.252558  0  -0.067086  -0.19526  0  3.89487  0
C  C216  1  0.83925518  0.91155063  0.44994216  1  0.293509  0  -0.068515  -0.173689  0  3.898801  0
C  C217  1  0.70080014  0.58847371  0.05000155  1  0.279383  0  -0.068646  -0.172633  0  3.899558  0
C  C218  1  0.28922335  0.54982923  0.41147027  1  0.244149  0  -0.069242  -0.176039  0  3.898815  0
C  C219  1  0.75022533  0.95020722  0.08867435  1  0.289633  0  -0.068812  -0.17343  0  3.899031  0
C  C220  1  0.16074800  0.08844561  0.55005914  1  0.293321  0  -0.068528  -0.17367  0  3.899  0
C  C221  1  0.29919746  0.41152641  0.94999888  1  0.279612  0  -0.068599  -0.172534  0  3.899532  0
C  C222  1  0.71077915  0.45017145  0.58852682  1  0.243986  0  -0.06927  -0.1761  0  3.898849  0
C  C223  1  0.24977419  0.04979013  0.91132555  1  0.289694  0  -0.068758  -0.173276  0  3.898944  0
C  C224  1  0.72955197  0.94525450  0.51730668  1  1.551922  0  0.211307  0.618522  0  4.164696  0
C  C225  1  0.69215580  0.55474931  0.98264391  1  1.560194  0  0.209753  0.614763  0  4.16881  0
C  C226  1  0.24690675  0.48251604  0.44527615  1  1.573142  0  0.211544  0.618905  0  4.161278  0
C  C227  1  0.67431599  0.01749892  0.05488226  1  1.54187  0  0.211288  0.617767  0  4.165535  0
C  C228  1  0.27045266  0.05474174  0.48269495  1  1.551577  0  0.211322  0.618531  0  4.164771  0
C  C229  1  0.30784203  0.44525248  0.01735546  1  1.560086  0  0.209689  0.614651  0  4.168807  0
C  C230  1  0.75309488  0.51748464  0.55472268  1  1.572882  0  0.211454  0.618902  0  4.161279  0
C  C231  1  0.32568769  0.98249621  0.94511641  1  1.541567  0  0.211328  0.617886  0  4.165603  0
N  N232  1  0.30147211  0.80690058  0.46732484  1  -1.094272  0  -0.542276  -0.385114  0  3.542169  0
N  N233  1  0.07563541  0.69325983  0.03268538  1  -1.114701  0  -0.54281  -0.385149  0  3.53933  0
N  N234  1  0.76907099  0.53259003  0.30683689  1  -1.092851  0  -0.541983  -0.386188  0  3.541156  0
N  N235  1  0.10849324  0.96746012  0.19310212  1  -1.097893  0  -0.542592  -0.3865  0  3.540385  0
N  N236  1  0.69852980  0.19309954  0.53267400  1  -1.094236  0  -0.542278  -0.385122  0  3.542043  0
N  N237  1  0.92436552  0.30673974  0.96731381  1  -1.114847  0  -0.542842  -0.385188  0  3.539426  0
N  N238  1  0.23092873  0.46740733  0.69316371  1  -1.092866  0  -0.542018  -0.386169  0  3.541233  0
N  N239  1  0.89150512  0.03254167  0.80689672  1  -1.097964  0  -0.542545  -0.386459  0  3.540395  0
N  N240  1  0.46016690  0.08563138  0.32192157  1  -1.100151  0  -0.54101  -0.388654  0  3.579777  0
N  N241  1  0.36772830  0.41439953  0.17820525  1  -1.109814  0  -0.542338  -0.391734  0  3.580076  0
N  N242  1  0.78172729  0.67823577  0.58563073  1  -1.101288  0  -0.54196  -0.390794  0  3.580355  0
N  N243  1  0.54568355  0.82166040  0.91443597  1  -1.116301  0  -0.541804  -0.389912  0  3.580053  0
N  N244  1  0.53983089  0.91436930  0.67808288  1  -1.099544  0  -0.541069  -0.388789  0  3.579781  0
N  N245  1  0.63227434  0.58560059  0.82179376  1  -1.109508  0  -0.542304  -0.391645  0  3.579989  0
N  N246  1  0.21827369  0.32176436  0.41436724  1  -1.101373  0  -0.541909  -0.390753  0  3.580242  0
N  N247  1  0.45431760  0.17833806  0.08556445  1  -1.11627  0  -0.541766  -0.389868  0  3.57987  0
N  N248  1  0.80892625  0.93333324  0.37989247  1  -1.081656  0  -0.545792  -0.375301  0  3.566917  0
N  N249  1  0.62220391  0.56668920  0.12005375  1  -1.081209  0  -0.545541  -0.375952  0  3.568516  0
N  N250  1  0.18887060  0.61989133  0.43331913  1  -1.084543  0  -0.545763  -0.374029  0  3.566071  0
N  N251  1  0.74190861  0.88013101  0.06679319  1  -1.07852  0  -0.54616  -0.378183  0  3.566861  0
N  N252  1  0.19107708  0.06666522  0.62010846  1  -1.081761  0  -0.545736  -0.375227  0  3.567  0
N  N253  1  0.37779314  0.43331203  0.87994668  1  -1.081205  0  -0.545558  -0.375971  0  3.568563  0
N  N254  1  0.81113030  0.38010935  0.56667953  1  -1.084381  0  -0.545811  -0.374115  0  3.566182  0
N  N255  1  0.25809195  0.11986745  0.93320513  1  -1.078536  0  -0.546236  -0.378205  0  3.566888  0
O  O256  1  0.45025910  0.89014963  0.46134035  1  -1.200098  0  -0.40825  -0.701849  0  2.439806  0
O  O257  1  0.30159930  0.60977713  0.03870854  1  -1.193748  0  -0.408002  -0.701458  0  2.438106  0
O  O258  1  0.91154429  0.53874091  0.39023810  1  -1.192231  0  -0.408556  -0.70292  0  2.441025  0
O  O259  1  0.34041000  0.96136012  0.10971845  1  -1.198137  0  -0.408565  -0.702452  0  2.441001  0
O  O260  1  0.54974360  0.10985049  0.53866128  1  -1.200162  0  -0.408242  -0.701931  0  2.439715  0
O  O261  1  0.69840357  0.39022410  0.96129327  1  -1.193628  0  -0.408014  -0.701487  0  2.437919  0
O  O262  1  0.08845453  0.46126088  0.60976477  1  -1.192208  0  -0.408636  -0.703045  0  2.441058  0
O  O263  1  0.65959445  0.03863890  0.89028021  1  -1.198057  0  -0.408529  -0.702412  0  2.440976  0
O  O264  1  0.36786703  0.91992230  0.58282483  1  -1.20046  0  -0.372326  -0.626365  0  2.296054  0
O  O265  1  0.37059373  0.58007593  0.91720015  1  -1.207516  0  -0.371677  -0.62502  0  2.295659  0
O  O266  1  0.95108966  0.41724177  0.41989833  1  -1.206791  0  -0.372399  -0.626627  0  2.29889  0
O  O267  1  0.28803964  0.08286262  0.08002145  1  -1.205726  0  -0.372711  -0.626697  0  2.295866  0
O  O268  1  0.63213686  0.08007505  0.41717610  1  -1.199841  0  -0.372285  -0.626364  0  2.295939  0
O  O269  1  0.62941468  0.41992586  0.08280304  1  -1.207581  0  -0.371657  -0.625153  0  2.295585  0
O  O270  1  0.04890698  0.58276002  0.58010403  1  -1.206816  0  -0.372374  -0.626722  0  2.298898  0
O  O271  1  0.71196464  0.91713529  0.91997703  1  -1.205662  0  -0.372664  -0.626682  0  2.295822  0
O  O272  1  0.33584462  0.82166992  0.32284851  1  -1.202146  0  -0.463398  -0.753573  0  2.482983  0
O  O273  1  0.98051910  0.67836044  0.17716547  1  -1.190176  0  -0.464378  -0.753992  0  2.484238  0
O  O274  1  0.65876006  0.67712745  0.32160718  1  -1.198726  0  -0.462571  -0.750567  0  2.483818  0
O  O275  1  0.15738483  0.82293995  0.17840430  1  -1.196434  0  -0.462681  -0.750793  0  2.483973  0
O  O276  1  0.66415542  0.17833353  0.67714963  1  -1.202159  0  -0.46342  -0.753496  0  2.482882  0
O  O277  1  0.01947744  0.32163969  0.82283601  1  -1.190201  0  -0.464414  -0.75404  0  2.484238  0
O  O278  1  0.34124900  0.32286935  0.67839426  1  -1.198675  0  -0.462545  -0.750506  0  2.483862  0
O  O279  1  0.84261281  0.17706184  0.82159437  1  -1.196573  0  -0.462684  -0.750716  0  2.483881  0
O  O280  1  0.13824025  0.88246765  0.32918313  1  -1.181243  0  -0.335663  -0.583241  0  2.169906  0
O  O281  1  0.84983548  0.61772794  0.17086608  1  -1.184598  0  -0.335837  -0.583068  0  2.17162  0
O  O282  1  0.46751312  0.67067333  0.38229186  1  -1.191856  0  -0.333807  -0.579982  0  2.173543  0
O  O283  1  0.02061612  0.82939954  0.11756087  1  -1.185973  0  -0.335229  -0.582075  0  2.168569  0
O  O284  1  0.86175742  0.11753525  0.67081764  1  -1.181397  0  -0.335655  -0.583252  0  2.169926  0
O  O285  1  0.15016221  0.38227163  0.82913365  1  -1.184486  0  -0.335805  -0.583084  0  2.171577  0
O  O286  1  0.53249201  0.32931903  0.61770943  1  -1.192081  0  -0.333838  -0.580012  0  2.173512  0
O  O287  1  0.97938234  0.17060058  0.88243780  1  -1.185878  0  -0.335195  -0.582012  0  2.168511  0
O  O288  1  0.46699428  0.93481756  0.32318148  1  -1.198698  0  -0.407446  -0.716643  0  2.407406  0
O  O289  1  0.22485263  0.56514522  0.17690401  1  -1.206676  0  -0.406189  -0.716701  0  2.406292  0
O  O290  1  0.78997056  0.67691731  0.43484007  1  -1.208345  0  -0.405663  -0.714538  0  2.408535  0
O  O291  1  0.40159474  0.82309886  0.06523980  1  -1.208631  0  -0.406006  -0.715623  0  2.406663  0
O  O292  1  0.53300460  0.06518145  0.67681912  1  -1.19869  0  -0.407486  -0.716621  0  2.407373  0
O  O293  1  0.77514440  0.43485934  0.82309746  1  -1.206877  0  -0.406099  -0.716594  0  2.406258  0
O  O294  1  0.21002590  0.32308392  0.56515826  1  -1.208448  0  -0.40566  -0.714499  0  2.408498  0
O  O295  1  0.59840374  0.17690349  0.93476044  1  -1.208928  0  -0.405996  -0.715534  0  2.406664  0
O  O296  1  0.32113496  0.96352234  0.26153115  1  -1.201001  0  -0.39173  -0.643898  0  2.321944  0
O  O297  1  0.04606876  0.53641575  0.23845379  1  -1.210495  0  -0.392926  -0.645862  0  2.319556  0
O  O298  1  0.58235630  0.73834041  0.46353375  1  -1.206032  0  -0.391449  -0.643596  0  2.322809  0
O  O299  1  0.28437799  0.76151633  0.03652539  1  -1.212234  0  -0.394064  -0.647903  0  2.319808  0
O  O300  1  0.67886516  0.03647778  0.73846857  1  -1.201036  0  -0.391716  -0.643872  0  2.32192  0
O  O301  1  0.95393084  0.46358659  0.76154803  1  -1.210478  0  -0.392957  -0.645838  0  2.319527  0
O  O302  1  0.41763704  0.26165805  0.53646547  1  -1.20586  0  -0.391481  -0.643639  0  2.322761  0
O  O303  1  0.71562544  0.23848657  0.96347414  1  -1.212321  0  -0.394052  -0.647838  0  2.319718  0
O  O304  1  0.77016966  0.08502865  0.20219770  1  -1.182317  0  -0.349129  -0.555508  0  2.04829  0
O  O305  1  0.55699617  0.41507456  0.29809569  1  -1.165352  0  -0.350409  -0.558147  0  2.047875  0
O  O306  1  0.97174745  0.79803872  0.58494747  1  -1.173972  0  -0.349648  -0.557336  0  2.048105  0
O  O307  1  0.85514644  0.70220646  0.91513337  1  -1.184952  0  -0.349334  -0.556413  0  2.047435  0
O  O308  1  0.22983064  0.91496316  0.79780238  1  -1.182494  0  -0.349157  -0.555544  0  2.048369  0
O  O309  1  0.44300007  0.58492723  0.70190526  1  -1.165406  0  -0.350427  -0.558192  0  2.04779  0
O  O310  1  0.02825990  0.20196085  0.41504802  1  -1.173946  0  -0.349673  -0.557356  0  2.048107  0
O  O311  1  0.14485250  0.29779034  0.08486828  1  -1.185063  0  -0.349272  -0.5563  0  2.047572  0
O  O312  1  0.69185579  0.99864358  0.27470445  1  -1.206429  0  -0.425154  -0.684323  0  2.283073  0
O  O313  1  0.46534257  0.50139753  0.22528456  1  -1.206765  0  -0.425589  -0.68459  0  2.280678  0
O  O314  1  0.96645717  0.72528413  0.49857117  1  -1.208335  0  -0.425542  -0.684718  0  2.281452  0
O  O315  1  0.69034737  0.77474882  0.00150953  1  -1.209224  0  -0.426045  -0.686049  0  2.282408  0
O  O316  1  0.30813799  0.00135266  0.72529722  1  -1.206204  0  -0.425263  -0.684508  0  2.283124  0
O  O317  1  0.53465810  0.49860482  0.77471621  1  -1.207026  0  -0.425624  -0.684624  0  2.280747  0
O  O318  1  0.03354203  0.27471876  0.50142539  1  -1.208202  0  -0.42558  -0.68479  0  2.281694  0
O  O319  1  0.30965310  0.22524743  0.99849177  1  -1.209299  0  -0.425988  -0.685925  0  2.282475  0
O  O320  1  0.67624441  0.84851377  0.36061576  1  -1.212655  0  -0.440315  -0.719001  0  2.405012  0
O  O321  1  0.38534303  0.65137540  0.13942042  1  -1.203518  0  -0.44074  -0.718405  0  2.404459  0
O  O322  1  0.03684949  0.63945245  0.34849631  1  -1.210851  0  -0.441143  -0.72074  0  2.403801  0
O  O323  1  0.52452976  0.86062294  0.15144727  1  -1.206292  0  -0.440563  -0.717262  0  2.409009  0
O  O324  1  0.32375523  0.15148413  0.63938554  1  -1.212579  0  -0.44034  -0.719094  0  2.404886  0
O  O325  1  0.61465223  0.34862861  0.86057861  1  -1.203518  0  -0.440716  -0.718438  0  2.404385  0
O  O326  1  0.96315425  0.36054878  0.65150374  1  -1.210953  0  -0.441245  -0.720883  0  2.403849  0
O  O327  1  0.47547281  0.13937441  0.84855140  1  -1.206305  0  -0.440633  -0.717316  0  2.408981  0
O  O328  1  0.84902787  0.76027419  0.30009686  1  -1.202258  0  -0.376687  -0.633341  0  2.355381  0
O  O329  1  0.40934632  0.73972881  0.19977305  1  -1.197663  0  -0.375896  -0.632532  0  2.355867  0
O  O330  1  0.14930798  0.69982643  0.26026620  1  -1.201428  0  -0.376746  -0.633725  0  2.353961  0
O  O331  1  0.60893112  0.80022582  0.23975117  1  -1.1988  0  -0.376518  -0.632311  0  2.357225  0
O  O332  1  0.15097160  0.23972538  0.69990199  1  -1.202213  0  -0.376711  -0.633417  0  2.355333  0
O  O333  1  0.59064908  0.26027242  0.80022633  1  -1.197654  0  -0.375893  -0.632477  0  2.355833  0
O  O334  1  0.85068755  0.30017480  0.73973126  1  -1.201279  0  -0.376713  -0.633705  0  2.353766  0
O  O335  1  0.39106884  0.19977542  0.76024995  1  -1.1988  0  -0.376518  -0.63234  0  2.357168  0
O  O336  1  0.75056994  0.96132229  0.57298272  1  -1.164254  0  -0.298205  -0.514079  0  2.133534  0
O  O337  1  0.78491823  0.53858716  0.92696078  1  -1.169636  0  -0.296956  -0.511895  0  2.13418  0
O  O338  1  0.32353429  0.42688357  0.46147366  1  -1.169595  0  -0.296905  -0.512288  0  2.132538  0
O  O339  1  0.71142195  0.07314850  0.03867781  1  -1.165195  0  -0.297367  -0.51336  0  2.133142  0
O  O340  1  0.24943727  0.03867173  0.42701926  1  -1.164231  0  -0.298273  -0.514096  0  2.133582  0
O  O341  1  0.21508003  0.46141630  0.07303824  1  -1.169697  0  -0.296902  -0.51183  0  2.134061  0
O  O342  1  0.67646537  0.57311932  0.53852693  1  -1.169353  0  -0.296837  -0.512278  0  2.13243  0
O  O343  1  0.28858218  0.92684719  0.96132103  1  -1.165306  0  -0.297377  -0.513416  0  2.133207  0
O  O344  1  0.61633837  0.95307638  0.51204904  1  -1.208041  0  -0.462092  -0.776427  0  2.40211  0
O  O345  1  0.58142347  0.54701444  0.98795766  1  -1.20504  0  -0.461489  -0.775513  0  2.403047  0
O  O346  1  0.12841099  0.48785441  0.45308930  1  -1.21584  0  -0.462906  -0.777889  0  2.400265  0
O  O347  1  0.56898181  0.01216546  0.04707313  1  -1.21364  0  -0.462933  -0.776737  0  2.402584  0
O  O348  1  0.38366432  0.04692098  0.48795488  1  -1.207705  0  -0.462029  -0.776432  0  2.402203  0
O  O349  1  0.41857565  0.45298624  0.01204188  1  -1.205102  0  -0.461496  -0.775473  0  2.403038  0
O  O350  1  0.87158741  0.51214849  0.54691165  1  -1.215785  0  -0.462867  -0.777871  0  2.400259  0
O  O351  1  0.43102020  0.98783300  0.95292554  1  -1.213151  0  -0.462977  -0.776823  0  2.402597  0
