# generated using pymatgen
data_NdH10C7N3O14
_symmetry_space_group_name_H-M   'P 1'
_cell_length_a   6.63122339
_cell_length_b   9.76604965
_cell_length_c   14.66920891
_cell_angle_alpha   72.19175221
_cell_angle_beta   90.44708052
_cell_angle_gamma   77.70816702
_symmetry_Int_Tables_number   1
_chemical_formula_structural   NdH10C7N3O14
_chemical_formula_sum   'Nd2 H20 C14 N6 O28'
_cell_volume   881.01928451
_cell_formula_units_Z   2
loop_
 _symmetry_equiv_pos_site_id
 _symmetry_equiv_pos_as_xyz
  1  'x, y, z'
loop_
 _atom_site_type_symbol
 _atom_site_label
 _atom_site_symmetry_multiplicity
 _atom_site_fract_x
 _atom_site_fract_y
 _atom_site_fract_z
 _atom_site_occupancy
 _atom_site_hle17_bader_spin_density
 _atom_site_hle17_ddec_charge
 _atom_site_hle17_ddec_spin_density
 _atom_site_hle17_ddec_sum_bond_order
 _atom_site_hle17_magmom
 _atom_site_hse06_10hf_bader_spin_density
 _atom_site_hse06_10hf_ddec_charge
 _atom_site_hse06_10hf_ddec_spin_density
 _atom_site_hse06_10hf_ddec_sum_bond_order
 _atom_site_hse06_10hf_magmom
 _atom_site_hse06_bader_spin_density
 _atom_site_hse06_ddec_charge
 _atom_site_hse06_ddec_spin_density
 _atom_site_hse06_ddec_sum_bond_order
 _atom_site_hse06_magmom
 _atom_site_pbe_bader_spin_density
 _atom_site_pbe_cm5_charge
 _atom_site_pbe_ddec_charge
 _atom_site_pbe_ddec_spin_density
 _atom_site_pbe_ddec_sum_bond_order
 _atom_site_pbe_magmom
Nd  Nd0  1  0.69328499  0.66949067  0.62685625  1  0  2.291494  0  1.583912  0  0  2.125747  0  2.055001  0  0  2.225039  0  1.898121  0  0  1.46318  2.097915  0  2.084056  0
Nd  Nd1  1  0.30672159  0.33049769  0.37317366  1  0  2.291476  0  1.583856  0  0  2.125736  0  2.054921  0  0  2.225021  0  1.898064  0  0  1.463168  2.097902  0  2.083972  0
H  H2  1  0.79469686  0.65326030  0.84967526  1  0  0.447693  0  0.844319  0  0  0.412521  0  0.915765  0  0  0.423174  0  0.9003  0  0  0.303397  0.405158  0  0.926513  0
H  H3  1  0.20530824  0.34673414  0.15033027  1  0  0.447639  0  0.844382  0  0  0.412471  0  0.915822  0  0  0.423121  0  0.900362  0  0  0.303363  0.405105  0  0.92657  0
H  H4  1  0.77795334  0.81563467  0.77817530  1  0  0.451349  0  0.793015  0  0  0.435267  0  0.842435  0  0  0.443455  0  0.831504  0  0  0.337262  0.429402  0  0.849237  0
H  H5  1  0.22204347  0.18437794  0.22180555  1  0  0.451176  0  0.792829  0  0  0.435106  0  0.842268  0  0  0.443294  0  0.831639  0  0  0.337228  0.429243  0  0.849056  0
H  H6  1  0.16311810  0.67342978  0.58721229  1  0  0.442841  0  0.85348  0  0  0.411231  0  0.918549  0  0  0.42141  0  0.903691  0  0  0.308077  0.404209  0  0.928898  0
H  H7  1  0.83687627  0.32656471  0.41278987  1  0  0.442917  0  0.853385  0  0  0.411307  0  0.918451  0  0  0.421487  0  0.903591  0  0  0.308146  0.404287  0  0.928796  0
H  H8  1  0.04556145  0.83194985  0.58275134  1  0  0.454096  0  0.795592  0  0  0.4324  0  0.854457  0  0  0.441755  0  0.841213  0  0  0.32949  0.42588  0  0.862137  0
H  H9  1  0.95442913  0.16804688  0.41724904  1  0  0.454056  0  0.795753  0  0  0.432362  0  0.854605  0  0  0.441717  0  0.841294  0  0  0.329471  0.425843  0  0.862289  0
H  H10  1  0.08803074  0.42709685  0.60590184  1  0  0.445338  0  0.841939  0  0  0.41627  0  0.900025  0  0  0.42801  0  0.882902  0  0  0.30531  0.408185  0  0.911853  0
H  H11  1  0.91197083  0.57288444  0.39410153  1  0  0.445422  0  0.841809  0  0  0.41624  0  0.900071  0  0  0.42798  0  0.882947  0  0  0.305294  0.408156  0  0.911894  0
H  H12  1  0.05740741  0.38991800  0.71804775  1  0  0.436308  0  0.846607  0  0  0.410347  0  0.900988  0  0  0.419561  0  0.887217  0  0  0.310651  0.403909  0  0.910729  0
H  H13  1  0.94258703  0.61008632  0.28195725  1  0  0.436349  0  0.846557  0  0  0.410387  0  0.900939  0  0  0.419602  0  0.887166  0  0  0.310706  0.403948  0  0.91068  0
H  H14  1  0.71041073  0.44227479  0.83926369  1  0  0.441724  0  0.867654  0  0  0.404241  0  0.942837  0  0  0.415952  0  0.926011  0  0  0.29777  0.396145  0  0.954499  0
H  H15  1  0.28960382  0.55774623  0.16073449  1  0  0.441608  0  0.867823  0  0  0.404142  0  0.942987  0  0  0.415847  0  0.926174  0  0  0.297762  0.396044  0  0.954652  0
H  H16  1  0.65699247  0.36856603  0.76260364  1  0  0.456696  0  0.784105  0  0  0.440665  0  0.830869  0  0  0.448425  0  0.823307  0  0  0.3408  0.435231  0  0.836663  0
H  H17  1  0.34299711  0.63143304  0.23739083  1  0  0.456461  0  0.784282  0  0  0.440426  0  0.831074  0  0  0.448188  0  0.823515  0  0  0.3407  0.434992  0  0.836869  0
H  H18  1  0.27515419  0.53030717  0.75364928  1  0  0.132435  0  0.958821  0  0  0.13281  0  1.031058  0  0  0.138041  0  1.023525  0  0  0.14827  0.128774  0  1.036817  0
H  H19  1  0.72484817  0.46967187  0.24635589  1  0  0.132534  0  0.958739  0  0  0.132923  0  1.030911  0  0  0.138158  0  1.023413  0  0  0.148294  0.128888  0  1.03667  0
H  H20  1  0.33300191  0.90908993  0.81294548  1  0  0.148813  0  0.887615  0  0  0.158652  0  0.939542  0  0  0.163097  0  0.933952  0  0  0.154002  0.155487  0  0.943145  0
H  H21  1  0.66696986  0.09093126  0.18704131  1  0  0.148806  0  0.887567  0  0  0.158692  0  0.939488  0  0  0.163137  0  0.933896  0  0  0.154049  0.155528  0  0.943092  0
C  C22  1  0.27681166  0.58328051  0.80847482  1  0  0.034787  0  3.605291  0  0  -0.021293  0  3.874398  0  0  -0.003189  0  3.878463  0  0  0.066022  -0.032691  0  3.872813  0
C  C23  1  0.72316680  0.41672959  0.19151685  1  0  0.03467  0  3.605484  0  0  -0.021494  0  3.874776  0  0  -0.003365  0  3.878704  0  0  0.065919  -0.032897  0  3.873201  0
C  C24  1  0.24591148  0.51598047  0.90322239  1  0  -0.084323  0  3.615613  0  0  -0.091615  0  3.884744  0  0  -0.105379  0  3.903783  0  0  0.068289  -0.083883  0  3.872745  0
C  C25  1  0.75403409  0.48403835  0.09676912  1  0  -0.084395  0  3.615569  0  0  -0.091608  0  3.8847  0  0  -0.105328  0  3.903662  0  0  0.068357  -0.083877  0  3.872708  0
C  C26  1  0.25055810  0.58617260  0.97706687  1  0  0.356052  0  3.847248  0  0  0.3184  0  4.135942  0  0  0.342368  0  4.145606  0  0  0.123478  0.302568  0  4.129469  0
C  C27  1  0.74943013  0.41383977  0.02292294  1  0  0.356252  0  3.847362  0  0  0.318505  0  4.136104  0  0  0.342459  0  4.145786  0  0  0.123525  0.30267  0  4.129641  0
C  C28  1  0.27731514  0.73640477  0.93658082  1  0  -0.073078  0  3.62494  0  0  -0.082062  0  3.895575  0  0  -0.09427  0  3.914695  0  0  0.06883  -0.075065  0  3.883086  0
C  C29  1  0.72272304  0.26359330  0.06341426  1  0  -0.073162  0  3.625027  0  0  -0.08207  0  3.89571  0  0  -0.094279  0  3.91484  0  0  0.068756  -0.075087  0  3.883248  0
C  C30  1  0.30974453  0.79740612  0.84162337  1  0  0.021419  0  3.585738  0  0  -0.036098  0  3.852288  0  0  -0.019765  0  3.857776  0  0  0.064973  -0.045347  0  3.84761  0
C  C31  1  0.69026934  0.20260185  0.15836921  1  0  0.021381  0  3.585623  0  0  -0.036278  0  3.852295  0  0  -0.019951  0  3.857787  0  0  0.064852  -0.045521  0  3.847624  0
C  C32  1  0.59056310  0.50725009  0.46704900  1  0  0.579604  0  3.876104  0  0  0.53245  0  4.17238  0  0  0.562571  0  4.167453  0  0  0.23543  0.512034  0  4.178166  0
C  C33  1  0.40941435  0.49275533  0.53295451  1  0  0.580196  0  3.877158  0  0  0.532974  0  4.173479  0  0  0.563131  0  4.168499  0  0  0.235533  0.512566  0  4.179267  0
C  C34  1  0.56357284  0.02862742  0.53245865  1  0  0.568155  0  3.93132  0  0  0.527675  0  4.227462  0  0  0.557961  0  4.222734  0  0  0.215118  0.506737  0  4.234425  0
C  C35  1  0.43644199  0.97136132  0.46755613  1  0  0.568323  0  3.930488  0  0  0.527674  0  4.22684  0  0  0.557999  0  4.222057  0  0  0.215034  0.506727  0  4.233811  0
N  N36  1  0.31711324  0.71951551  0.77887036  1  0  0.27028  0  3.726487  0  0  0.326835  0  3.993873  0  0  0.32046  0  4.015475  0  0  -0.126457  0.329657  0  3.980884  0
N  N37  1  0.68288504  0.28048913  0.22112160  1  0  0.270441  0  3.726243  0  0  0.327059  0  3.993614  0  0  0.32068  0  4.015235  0  0  -0.126363  0.329879  0  3.980628  0
N  N38  1  0.20979403  0.36815150  0.92426392  1  0  0.541377  0  3.893423  0  0  0.560538  0  4.206035  0  0  0.583871  0  4.214148  0  0  0.053525  0.545304  0  4.200096  0
N  N39  1  0.79019539  0.63186290  0.07573298  1  0  0.541659  0  3.893142  0  0  0.560776  0  4.205808  0  0  0.584098  0  4.21394  0  0  0.053623  0.545547  0  4.199862  0
N  N40  1  0.27453361  0.83534864  0.99426909  1  0  0.531919  0  3.903887  0  0  0.558698  0  4.206231  0  0  0.581015  0  4.214373  0  0  0.057726  0.543992  0  4.200577  0
N  N41  1  0.72548693  0.16463040  0.00573802  1  0  0.531782  0  3.904061  0  0  0.558543  0  4.206421  0  0  0.580861  0  4.214569  0  0  0.057644  0.543841  0  4.200765  0
O  O42  1  0.36399122  0.77724332  0.68948532  1  0  -0.641378  0  1.782186  0  0  -0.614542  0  2.025066  0  0  -0.644437  0  2.021881  0  0  -0.312675  -0.598321  0  2.025354  0
O  O43  1  0.63601539  0.22276356  0.31050616  1  0  -0.641404  0  1.781994  0  0  -0.614591  0  2.024862  0  0  -0.64449  0  2.021683  0  0  -0.312668  -0.598369  0  2.025149  0
O  O44  1  0.80643140  0.71190732  0.78240640  1  0  -0.894656  0  1.83687  0  0  -0.847903  0  2.032688  0  0  -0.872793  0  2.000352  0  0  -0.616028  -0.835373  0  2.050878  0
O  O45  1  0.19354902  0.28809812  0.21759642  1  0  -0.894437  0  1.836664  0  0  -0.847701  0  2.032482  0  0  -0.8726  0  2.000453  0  0  -0.615897  -0.835159  0  2.050641  0
O  O46  1  0.16975422  0.32589099  0.85540046  1  0  -0.379374  0  1.747603  0  0  -0.356965  0  1.954179  0  0  -0.369366  0  1.947278  0  0  -0.134566  -0.348232  0  1.959077  0
O  O47  1  0.83027568  0.67411915  0.14459501  1  0  -0.379478  0  1.747523  0  0  -0.35704  0  1.954103  0  0  -0.369442  0  1.947217  0  0  -0.13456  -0.348309  0  1.958993  0
O  O48  1  0.02416871  0.74043701  0.57486666  1  0  -0.902765  0  1.831708  0  0  -0.855646  0  2.022548  0  0  -0.88051  0  1.985923  0  0  -0.634592  -0.843615  0  2.042344  0
O  O49  1  0.97582816  0.25956218  0.42512297  1  0  -0.902801  0  1.831824  0  0  -0.855652  0  2.022659  0  0  -0.880516  0  1.985963  0  0  -0.634654  -0.843627  0  2.042461  0
O  O50  1  0.22175294  0.28928736  0.00933736  1  0  -0.363953  0  1.76395  0  0  -0.35232  0  1.984472  0  0  -0.363053  0  1.979991  0  0  -0.133949  -0.344999  0  1.988069  0
O  O51  1  0.77827048  0.71071405  0.99065441  1  0  -0.36413  0  1.763918  0  0  -0.35249  0  1.984491  0  0  -0.363228  0  1.980015  0  0  -0.13404  -0.345167  0  1.988077  0
O  O52  1  0.98677951  0.43912302  0.65392705  1  0  -0.905568  0  1.843989  0  0  -0.856692  0  2.018215  0  0  -0.880364  0  1.9814  0  0  -0.630649  -0.844834  0  2.040718  0
O  O53  1  0.01322498  0.56088250  0.34607493  1  0  -0.905638  0  1.843833  0  0  -0.856686  0  2.018164  0  0  -0.880356  0  1.98135  0  0  -0.630687  -0.844833  0  2.040668  0
O  O54  1  0.22552611  0.52655103  0.06457345  1  0  -0.550893  0  2.124448  0  0  -0.505827  0  2.365061  0  0  -0.531302  0  2.362911  0  0  -0.292716  -0.488317  0  2.366054  0
O  O55  1  0.77448396  0.47345917  0.93541735  1  0  -0.551007  0  2.124319  0  0  -0.505909  0  2.365025  0  0  -0.531378  0  2.362865  0  0  -0.292679  -0.488401  0  2.366024  0
O  O56  1  0.66795176  0.46246169  0.76957530  1  0  -0.916292  0  1.921894  0  0  -0.863863  0  2.13479  0  0  -0.891626  0  2.105326  0  0  -0.646308  -0.848808  0  2.152885  0
O  O57  1  0.33202541  0.53753493  0.23042790  1  0  -0.915991  0  1.922117  0  0  -0.863551  0  2.134913  0  0  -0.89132  0  2.105473  0  0  -0.646205  -0.848496  0  2.153003  0
O  O58  1  0.33909258  0.77864022  0.08028530  1  0  -0.37087  0  1.768625  0  0  -0.358878  0  1.980186  0  0  -0.370781  0  1.974024  0  0  -0.138782  -0.350407  0  1.984394  0
O  O59  1  0.66089622  0.22136390  0.91972727  1  0  -0.370867  0  1.768897  0  0  -0.358833  0  1.98043  0  0  -0.370737  0  1.974276  0  0  -0.138741  -0.350355  0  1.984624  0
O  O60  1  0.21331526  0.96942509  0.95341519  1  0  -0.32744  0  1.722139  0  0  -0.327011  0  1.926139  0  0  -0.337207  0  1.919731  0  0  -0.121468  -0.320716  0  1.931413  0
O  O61  1  0.78669633  0.03054661  0.04657638  1  0  -0.327299  0  1.722069  0  0  -0.326873  0  1.926058  0  0  -0.337073  0  1.919656  0  0  -0.12139  -0.320578  0  1.931325  0
O  O62  1  0.72921131  0.56698920  0.48676577  1  0  -0.625783  0  2.04197  0  0  -0.567832  0  2.268678  0  0  -0.598098  0  2.257665  0  0  -0.332281  -0.551549  0  2.27464  0
O  O63  1  0.27080969  0.43299057  0.51325688  1  0  -0.625863  0  2.042464  0  0  -0.567976  0  2.269258  0  0  -0.59825  0  2.258216  0  0  -0.332306  -0.5517  0  2.275237  0
O  O64  1  0.58775508  0.45618591  0.39732497  1  0  -0.6808  0  2.115857  0  0  -0.623125  0  2.354619  0  0  -0.653173  0  2.343071  0  0  -0.358559  -0.606785  0  2.360802  0
O  O65  1  0.41226159  0.54380338  0.60266719  1  0  -0.680951  0  2.116515  0  0  -0.623241  0  2.355316  0  0  -0.653293  0  2.343735  0  0  -0.358518  -0.606906  0  2.361502  0
O  O66  1  0.68563247  0.93208495  0.59963217  1  0  -0.67706  0  2.029067  0  0  -0.628847  0  2.268154  0  0  -0.657694  0  2.253567  0  0  -0.388379  -0.612887  0  2.276452  0
O  O67  1  0.31437020  0.06791367  0.40038210  1  0  -0.677179  0  2.02853  0  0  -0.628926  0  2.267692  0  0  -0.657781  0  2.253093  0  0  -0.388423  -0.612962  0  2.275988  0
O  O68  1  0.53557239  0.16683588  0.51285559  1  0  -0.658335  0  2.04532  0  0  -0.614328  0  2.283568  0  0  -0.64328  0  2.270723  0  0  -0.384291  -0.598855  0  2.29001  0
O  O69  1  0.46442506  0.83314615  0.48716197  1  0  -0.658361  0  2.044957  0  0  -0.614306  0  2.283273  0  0  -0.64327  0  2.270411  0  0  -0.384187  -0.598827  0  2.289713  0
