# generated using pymatgen
data_ZnH4C15S(NO3)5
_symmetry_space_group_name_H-M   'P 1'
_cell_length_a   9.20951920
_cell_length_b   17.86893183
_cell_length_c   34.73844699
_cell_angle_alpha   89.79992083
_cell_angle_beta   89.80716529
_cell_angle_gamma   90.07564222
_symmetry_Int_Tables_number   1
_chemical_formula_structural   ZnH4C15S(NO3)5
_chemical_formula_sum   'Zn4 H16 C60 S4 N20 O60'
_cell_volume   5716.63489333
_cell_formula_units_Z   4
loop_
 _symmetry_equiv_pos_site_id
 _symmetry_equiv_pos_as_xyz
  1  'x, y, z'
loop_
 _atom_site_type_symbol
 _atom_site_label
 _atom_site_symmetry_multiplicity
 _atom_site_fract_x
 _atom_site_fract_y
 _atom_site_fract_z
 _atom_site_occupancy
 _atom_site_pbe_bader_charge
 _atom_site_pbe_bader_spin_density
 _atom_site_pbe_cm5_charge
 _atom_site_pbe_ddec_charge
 _atom_site_pbe_ddec_spin_density
 _atom_site_pbe_ddec_sum_bond_order
 _atom_site_pbe_magmom
Zn  Zn0  1  0.64073183  0.99435563  0.50015107  1  1.318497  0  0.768209  1.004785  0  1.998276  0
Zn  Zn1  1  0.35863755  0.00565614  0.50039589  1  1.32452  0  0.769494  1.007952  0  2.008242  0
Zn  Zn2  1  0.26198347  0.99239654  0.99977754  1  1.315774  0  0.76844  1.005519  0  1.999501  0
Zn  Zn3  1  0.54409342  0.00422240  0.99961749  1  1.314853  0  0.769674  1.007691  0  2.006764  0
H  H4  1  0.71850347  0.76635288  0.49948253  1  0.13888  0  0.120539  0.132297  0  0.979712  0
H  H5  1  0.73317271  0.62838810  0.50186654  1  0.116717  0  0.122599  0.13133  0  0.9663  0
H  H6  1  0.26422568  0.61774169  0.50362429  1  0.102684  0  0.121168  0.137344  0  0.987239  0
H  H7  1  0.73738667  0.38225818  0.50413377  1  0.142235  0  0.121354  0.136516  0  0.987647  0
H  H8  1  0.28382004  0.23346260  0.49840607  1  0.136931  0  0.120335  0.135348  0  0.976321  0
H  H9  1  0.26857912  0.37131505  0.50100295  1  0.120485  0  0.122676  0.1318  0  0.966201  0
H  H10  1  0.18527516  0.76454528  0.00043634  1  0.09771  0  0.120175  0.131616  0  0.980448  0
H  H11  1  0.16989371  0.62667273  0.99768003  1  0.086042  0  0.122688  0.131744  0  0.965961  0
H  H12  1  0.63874651  0.61609475  0.99529841  1  0.137557  0  0.1212  0.13726  0  0.987447  0
H  H13  1  0.16537511  0.38009166  0.99517471  1  0.146817  0  0.121485  0.13697  0  0.98677  0
H  H14  1  0.61966213  0.23237979  0.00104080  1  0.117929  0  0.12051  0.132261  0  0.980088  0
H  H15  1  0.63424881  0.37032937  0.99815422  1  0.100212  0  0.122315  0.13095  0  0.9665  0
H  H16  1  0.23609641  0.85683198  0.47246738  1  0.636649  0  0.312653  0.372758  0  0.944529  0
H  H17  1  0.76767356  0.14383106  0.47289422  1  0.638487  0  0.312833  0.374166  0  0.943661  0
H  H18  1  0.66880525  0.85456096  0.02655630  1  0.63816  0  0.312882  0.374064  0  0.942741  0
H  H19  1  0.13651525  0.14133563  0.02698011  1  0.650061  0  0.312812  0.37429  0  0.942682  0
C  C20  1  0.49296070  0.85446623  0.49938975  1  1.541493  0  0.231709  0.605825  0  4.119418  0
C  C21  1  0.49849110  0.99984898  0.57463462  1  1.671806  0  0.234606  0.615971  0  4.146932  0
C  C22  1  0.50928132  0.14547139  0.49887025  1  1.547483  0  0.232835  0.608129  0  4.11698  0
C  C23  1  0.49768688  0.99982927  0.42517635  1  1.566651  0  0.228759  0.610412  0  4.16431  0
C  C24  1  0.41117160  0.85270848  0.00045516  1  1.493318  0  0.232306  0.606827  0  4.119229  0
C  C25  1  0.40282594  0.99889900  0.92538150  1  1.676823  0  0.233955  0.614575  0  4.150772  0
C  C26  1  0.39451720  0.14383822  0.00085085  1  1.510836  0  0.232392  0.607041  0  4.117876  0
C  C27  1  0.40373958  0.99763701  0.07473366  1  1.667372  0  0.229381  0.611752  0  4.162472  0
C  C28  1  0.40462873  0.99864409  0.88202689  1  0.09448  0  0.018683  -0.074059  0  3.851561  0
C  C29  1  0.53545796  0.99713096  0.86107131  1  0.230882  0  0.105293  0.043444  0  3.871625  0
C  C30  1  0.53893425  0.00091757  0.82107417  1  0.25035  0  0.106144  -0.007051  0  3.8533  0
C  C31  1  0.40921579  0.99707255  0.79964489  1  0.500207  0  0.124054  0.116889  0  3.974178  0
C  C32  1  0.27846972  0.99501300  0.82068468  1  0.235588  0  0.109814  -0.001794  0  3.860064  0
C  C33  1  0.27584832  0.00008592  0.86054982  1  0.339573  0  0.105126  0.042578  0  3.880039  0
C  C34  1  0.62370810  0.99580269  0.67929293  1  0.335555  0  0.109518  -0.002266  0  3.861507  0
C  C35  1  0.49319482  0.99771994  0.70041759  1  0.459735  0  0.123477  0.115427  0  3.974975  0
C  C36  1  0.36331193  0.00168408  0.67905060  1  0.26425  0  0.105813  -0.006096  0  3.852493  0
C  C37  1  0.36638559  0.99789716  0.63905895  1  0.315216  0  0.10552  0.043757  0  3.870194  0
C  C38  1  0.49701977  0.99945863  0.61800830  1  0.035892  0  0.01882  -0.074105  0  3.850524  0
C  C39  1  0.62596261  0.00091008  0.63940844  1  0.244864  0  0.104615  0.042219  0  3.88218  0
C  C40  1  0.40496325  0.99774587  0.11812539  1  0.098093  0  0.017657  -0.075401  0  3.852749  0
C  C41  1  0.53536748  0.00034773  0.13899857  1  0.224788  0  0.10389  0.042723  0  3.872231  0
C  C42  1  0.53832597  0.99606304  0.17897045  1  0.257944  0  0.106115  -0.006288  0  3.853582  0
C  C43  1  0.40822064  0.99926086  0.20046432  1  0.465643  0  0.123568  0.115804  0  3.977878  0
C  C44  1  0.27774062  0.00038055  0.17954373  1  0.341899  0  0.108822  -0.003544  0  3.861804  0
C  C45  1  0.27596769  0.99497969  0.13969505  1  0.262772  0  0.10412  0.044294  0  3.87933  0
C  C46  1  0.62314310  0.00154487  0.32030049  1  0.271897  0  0.109439  -0.003187  0  3.861044  0
C  C47  1  0.49252364  0.00022653  0.29944183  1  0.533059  0  0.123897  0.11675  0  3.976486  0
C  C48  1  0.36250099  0.99749254  0.32101549  1  0.267721  0  0.106094  -0.006095  0  3.852973  0
C  C49  1  0.36578875  0.00213177  0.36095945  1  0.301748  0  0.104178  0.043694  0  3.870672  0
C  C50  1  0.49630009  0.99959897  0.38177996  1  0.152339  0  0.017273  -0.075058  0  3.852041  0
C  C51  1  0.62513672  0.99653262  0.36017645  1  0.256015  0  0.104266  0.043358  0  3.879522  0
C  C52  1  0.48532735  0.77132013  0.50082666  1  0.012048  0  -0.008993  -0.054781  0  3.923028  0
C  C53  1  0.61923626  0.73328451  0.50070734  1  -0.012123  0  -0.062836  -0.058175  0  3.926015  0
C  C54  1  0.62767846  0.65588302  0.50203693  1  -0.047214  0  -0.060215  -0.104463  0  3.89402  0
C  C55  1  0.49925465  0.61303950  0.50324113  1  0.172132  0  0.020596  0.164433  0  4.090157  0
C  C56  1  0.36421329  0.65023673  0.50318615  1  0.036609  0  -0.064688  -0.126477  0  3.895791  0
C  C57  1  0.35608721  0.72778438  0.50213120  1  -0.189709  0  -0.002331  -0.08486  0  3.904436  0
C  C58  1  0.50190181  0.53408364  0.50382521  1  -0.057631  0  -0.022243  -0.081757  0  4.070386  0
C  C59  1  0.49948440  0.46579025  0.50375807  1  -0.292729  0  -0.022584  -0.083728  0  4.068221  0
C  C60  1  0.50239199  0.38684285  0.50298858  1  0.171027  0  0.020381  0.167256  0  4.083697  0
C  C61  1  0.63751535  0.34972797  0.50327341  1  -0.018294  0  -0.0642  -0.1245  0  3.892548  0
C  C62  1  0.64587375  0.27220860  0.50211403  1  -0.163811  0  -0.00272  -0.086547  0  3.908899  0
C  C63  1  0.51692339  0.22860512  0.50033593  1  -0.028155  0  -0.009016  -0.055202  0  3.92577  0
C  C64  1  0.38293222  0.26656276  0.49990557  1  0.003337  0  -0.062402  -0.061104  0  3.928809  0
C  C65  1  0.37417244  0.34392608  0.50134620  1  -0.037025  0  -0.060789  -0.10606  0  3.894925  0
C  C66  1  0.41846559  0.76958765  0.99882510  1  -0.005923  0  -0.009885  -0.057389  0  3.927321  0
C  C67  1  0.28438354  0.73153144  0.99902622  1  0.104359  0  -0.061635  -0.056273  0  3.928016  0
C  C68  1  0.27553870  0.65416248  0.99749981  1  -0.019108  0  -0.061222  -0.10607  0  3.895146  0
C  C69  1  0.40372759  0.61136892  0.99606590  1  0.144617  0  0.020819  0.165011  0  4.08999  0
C  C70  1  0.53893592  0.64857230  0.99601408  1  -0.009182  0  -0.064651  -0.126953  0  3.895735  0
C  C71  1  0.54742485  0.72608161  0.99720802  1  -0.108672  0  -0.001995  -0.082983  0  3.90677  0
C  C72  1  0.40070602  0.53244895  0.99534300  1  -0.230844  0  -0.02216  -0.081702  0  4.070099  0
C  C73  1  0.40304103  0.46417016  0.99538522  1  -0.106594  0  -0.022813  -0.082641  0  4.071438  0
C  C74  1  0.40039528  0.38524347  0.99619061  1  0.038111  0  0.020275  0.163833  0  4.090034  0
C  C75  1  0.26540625  0.34781112  0.99602812  1  -0.032535  0  -0.064308  -0.12455  0  3.893603  0
C  C76  1  0.25741303  0.27027028  0.99734934  1  -0.085962  0  -0.00257  -0.085421  0  3.90863  0
C  C77  1  0.38658765  0.22697760  0.99916725  1  -0.04453  0  -0.009248  -0.056208  0  3.92644  0
C  C78  1  0.52041619  0.26524778  0.99947756  1  0.015642  0  -0.062432  -0.057925  0  3.928562  0
C  C79  1  0.52881448  0.34264581  0.99786702  1  0.061575  0  -0.06055  -0.104138  0  3.893828  0
S  S80  1  0.17178324  0.76244412  0.50331627  1  3.106688  0  0.53107  1.144386  0  6.033711  0
S  S81  1  0.82990277  0.23746384  0.50409451  1  3.102081  0  0.530657  1.142803  0  6.037858  0
S  S82  1  0.73167427  0.76086394  0.99542840  1  3.10481  0  0.531142  1.144181  0  6.036624  0
S  S83  1  0.07346279  0.23503225  0.99565555  1  3.106682  0  0.530802  1.143915  0  6.035765  0
N  N84  1  0.39269450  0.99609974  0.75961766  1  -0.460588  0  -0.12165  -0.072556  0  3.251815  0
N  N85  1  0.50992662  0.99649394  0.74044036  1  -0.430189  0  -0.121571  -0.07316  0  3.252066  0
N  N86  1  0.39161361  0.00046284  0.24049742  1  -0.428438  0  -0.121384  -0.07238  0  3.250484  0
N  N87  1  0.50900973  0.00096451  0.25940013  1  -0.480276  0  -0.121953  -0.073986  0  3.251184  0
N  N88  1  0.13168983  0.00839336  0.87942103  1  0.461479  0  0.058859  0.50146  0  4.278289  0
N  N89  1  0.14032733  0.98840642  0.79912301  1  0.44051  0  0.063176  0.498848  0  4.277032  0
N  N90  1  0.67728032  0.99011385  0.88124567  1  0.477021  0  0.057219  0.500327  0  4.279879  0
N  N91  1  0.68251651  0.01004218  0.80218574  1  0.441635  0  0.059047  0.490476  0  4.313748  0
N  N92  1  0.76214836  0.98939997  0.70076816  1  0.439204  0  0.063696  0.49983  0  4.276588  0
N  N93  1  0.76999902  0.00931665  0.62043991  1  0.454453  0  0.05878  0.501902  0  4.278786  0
N  N94  1  0.21998169  0.01100448  0.69797401  1  0.448031  0  0.05931  0.491127  0  4.315111  0
N  N95  1  0.22445405  0.99068615  0.61896914  1  0.454214  0  0.056484  0.497935  0  4.277913  0
N  N96  1  0.13219404  0.98546069  0.12097698  1  0.455555  0  0.059113  0.506311  0  4.278305  0
N  N97  1  0.13914696  0.00659093  0.20116172  1  0.42892  0  0.062775  0.497801  0  4.27655  0
N  N98  1  0.67756380  0.00821547  0.11877826  1  0.46031  0  0.057741  0.503606  0  4.27653  0
N  N99  1  0.68163065  0.98639774  0.19765725  1  0.436614  0  0.059421  0.490109  0  4.314066  0
N  N100  1  0.76170940  0.00759549  0.29860715  1  0.430498  0  0.062777  0.498509  0  4.274857  0
N  N101  1  0.76896701  0.98708447  0.37890227  1  0.459989  0  0.059329  0.506978  0  4.274915  0
N  N102  1  0.21889441  0.98827245  0.30245575  1  0.444781  0  0.05934  0.489567  0  4.315141  0
N  N103  1  0.22395780  0.01046771  0.38124375  1  0.455154  0  0.056857  0.502629  0  4.279784  0
O  O104  1  0.61866096  0.88429716  0.49677923  1  -1.131162  0  -0.297949  -0.519937  0  2.297545  0
O  O105  1  0.37426412  0.89272061  0.50085127  1  -1.166497  0  -0.305002  -0.573989  0  2.410825  0
O  O106  1  0.37880123  0.01394482  0.55802500  1  -1.136552  0  -0.29325  -0.524818  0  2.329093  0
O  O107  1  0.61892582  0.98613748  0.55821851  1  -1.128571  0  -0.292188  -0.523174  0  2.316905  0
O  O108  1  0.38370012  0.11577794  0.49640685  1  -1.135883  0  -0.298254  -0.522961  0  2.302248  0
O  O109  1  0.62797916  0.10702999  0.50018010  1  -1.168116  0  -0.304748  -0.572628  0  2.409449  0
O  O110  1  0.62065177  0.00602109  0.44123851  1  -1.13797  0  -0.297014  -0.534664  0  2.325074  0
O  O111  1  0.37541318  0.99375388  0.44192936  1  -1.146394  0  -0.297802  -0.53578  0  2.339756  0
O  O112  1  0.28556325  0.88236340  0.00312418  1  -1.128795  0  -0.298284  -0.52117  0  2.301453  0
O  O113  1  0.52992904  0.89115052  0.99910761  1  -1.159193  0  -0.304742  -0.573181  0  2.407212  0
O  O114  1  0.52240205  0.01304344  0.94201352  1  -1.138695  0  -0.292881  -0.524672  0  2.333669  0
O  O115  1  0.28221244  0.98498914  0.94175440  1  -1.133643  0  -0.291871  -0.521911  0  2.317024  0
O  O116  1  0.52018341  0.11438390  0.00341545  1  -1.139794  0  -0.298307  -0.521355  0  2.299832  0
O  O117  1  0.27594448  0.10516206  0.99965210  1  -1.165903  0  -0.304733  -0.573153  0  2.410766  0
O  O118  1  0.28076791  0.00339671  0.05861194  1  -1.136118  0  -0.297335  -0.535039  0  2.326005  0
O  O119  1  0.52606562  0.99179948  0.05803980  1  -1.133868  0  -0.297598  -0.535608  0  2.339834  0
O  O120  1  0.10416900  0.07072798  0.89228623  1  -0.382035  0  -0.087208  -0.253235  0  1.910056  0
O  O121  1  0.05343300  0.95240656  0.87914491  1  -0.405086  0  -0.099863  -0.277875  0  1.901773  0
O  O122  1  0.11441973  0.92661095  0.78534194  1  -0.372556  0  -0.084762  -0.25897  0  1.905859  0
O  O123  1  0.06576855  0.04552808  0.79764703  1  -0.382372  0  -0.090426  -0.264784  0  1.901591  0
O  O124  1  0.70537045  0.92766332  0.89407714  1  -0.396124  0  -0.088497  -0.255283  0  1.915649  0
O  O125  1  0.75297236  0.04695708  0.88204120  1  -0.397936  0  -0.099805  -0.277324  0  1.90507  0
O  O126  1  0.71150517  0.07354703  0.79078067  1  -0.377073  0  -0.089153  -0.264181  0  1.907577  0
O  O127  1  0.75975596  0.95390738  0.80122968  1  -0.383488  0  -0.085507  -0.25882  0  1.927513  0
O  O128  1  0.78823143  0.92770484  0.71481271  1  -0.369042  0  -0.084935  -0.259336  0  1.907848  0
O  O129  1  0.83679350  0.04661381  0.70190756  1  -0.383028  0  -0.090051  -0.264413  0  1.90092  0
O  O130  1  0.79761602  0.07169042  0.60737195  1  -0.386293  0  -0.087278  -0.254128  0  1.911424  0
O  O131  1  0.84807073  0.95336927  0.62084971  1  -0.400482  0  -0.100054  -0.277824  0  1.901189  0
O  O132  1  0.19215124  0.07446735  0.70936866  1  -0.379148  0  -0.089255  -0.264804  0  1.906654  0
O  O133  1  0.14174506  0.95512111  0.69894992  1  -0.383888  0  -0.086177  -0.260062  0  1.930502  0
O  O134  1  0.19650314  0.92821058  0.60631521  1  -0.384511  0  -0.088052  -0.25427  0  1.909181  0
O  O135  1  0.14862009  0.04737149  0.61803546  1  -0.391127  0  -0.099547  -0.276255  0  1.905276  0
O  O136  1  0.10312929  0.92183406  0.11012670  1  -0.385495  0  -0.094024  -0.266625  0  1.888371  0
O  O137  1  0.05533136  0.04175745  0.11948702  1  -0.399736  0  -0.099571  -0.276638  0  1.903678  0
O  O138  1  0.11229298  0.06849712  0.21469818  1  -0.362469  0  -0.084195  -0.257634  0  1.906214  0
O  O139  1  0.06505802  0.94921137  0.20287712  1  -0.384977  0  -0.089659  -0.264448  0  1.902873  0
O  O140  1  0.70848198  0.07172831  0.10780209  1  -0.393388  0  -0.095301  -0.267017  0  1.888846  0
O  O141  1  0.75110831  0.95094067  0.11621144  1  -0.393374  0  -0.099922  -0.276148  0  1.907945  0
O  O142  1  0.70931423  0.92260571  0.20879889  1  -0.372199  0  -0.08911  -0.263736  0  1.905579  0
O  O143  1  0.76021187  0.04213183  0.19858903  1  -0.384136  0  -0.086822  -0.260783  0  1.931427  0
O  O144  1  0.78895957  0.06947932  0.28482765  1  -0.371454  0  -0.084519  -0.258716  0  1.905776  0
O  O145  1  0.83541807  0.95018901  0.29711029  1  -0.382118  0  -0.089696  -0.264279  0  1.90249  0
O  O146  1  0.79750498  0.92357455  0.39019854  1  -0.397933  0  -0.093805  -0.266343  0  1.886798  0
O  O147  1  0.84639802  0.04329766  0.37995462  1  -0.396945  0  -0.100128  -0.277442  0  1.902717  0
O  O148  1  0.18924868  0.92440195  0.29198765  1  -0.37844  0  -0.088646  -0.263183  0  1.906205  0
O  O149  1  0.14201000  0.04450092  0.30095239  1  -0.384777  0  -0.086902  -0.260503  0  1.930222  0
O  O150  1  0.19399454  0.07415973  0.39184720  1  -0.390394  0  -0.096049  -0.26785  0  1.889619  0
O  O151  1  0.14977910  0.95336341  0.38426871  1  -0.395422  0  -0.098794  -0.275216  0  1.911242  0
O  O152  1  0.16703445  0.81558125  0.46626116  1  -1.211228  0  -0.367599  -0.520425  0  2.155854  0
O  O153  1  0.07624703  0.70122693  0.49457898  1  -1.292146  0  -0.314117  -0.519784  0  2.110356  0
O  O154  1  0.15152528  0.80530078  0.53784615  1  -1.274871  0  -0.315946  -0.521708  0  2.134148  0
O  O155  1  0.83780857  0.18500459  0.46700643  1  -1.206891  0  -0.368727  -0.522266  0  2.152028  0
O  O156  1  0.92636425  0.29878170  0.49590589  1  -1.294109  0  -0.314249  -0.519569  0  2.110685  0
O  O157  1  0.84665306  0.19393137  0.53865719  1  -1.277468  0  -0.315121  -0.520401  0  2.135331  0
O  O158  1  0.73852830  0.81340872  0.03248752  1  -1.208229  0  -0.368388  -0.522128  0  2.1529  0
O  O159  1  0.82750193  0.69956562  0.00374853  1  -1.294851  0  -0.314976  -0.520634  0  2.110363  0
O  O160  1  0.74998661  0.80426041  0.96083892  1  -1.279785  0  -0.315344  -0.521321  0  2.137295  0
O  O161  1  0.06634442  0.18232040  0.03285147  1  -1.227818  0  -0.368781  -0.522731  0  2.151442  0
O  O162  1  0.97680496  0.29602921  0.00384486  1  -1.295293  0  -0.31424  -0.520272  0  2.111018  0
O  O163  1  0.05628787  0.19170104  0.96119077  1  -1.278755  0  -0.315635  -0.521033  0  2.134073  0
