# generated using pymatgen
data_CuH16C16(NO)4
_symmetry_space_group_name_H-M   'P 1'
_cell_length_a   4.53617883
_cell_length_b   9.34107802
_cell_length_c   10.78720925
_cell_angle_alpha   73.67550608
_cell_angle_beta   85.78087995
_cell_angle_gamma   78.35880244
_symmetry_Int_Tables_number   1
_chemical_formula_structural   CuH16C16(NO)4
_chemical_formula_sum   'Cu1 H16 C16 N4 O4'
_cell_volume   429.56494141
_cell_formula_units_Z   1
loop_
 _symmetry_equiv_pos_site_id
 _symmetry_equiv_pos_as_xyz
  1  'x, y, z'
loop_
 _atom_site_type_symbol
 _atom_site_label
 _atom_site_symmetry_multiplicity
 _atom_site_fract_x
 _atom_site_fract_y
 _atom_site_fract_z
 _atom_site_occupancy
 _atom_site_hle17_ddec_charge
 _atom_site_hle17_ddec_spin_density
 _atom_site_hle17_ddec_sum_bond_order
 _atom_site_hle17_magmom
 _atom_site_hse06_10hf_ddec_charge
 _atom_site_hse06_10hf_ddec_spin_density
 _atom_site_hse06_10hf_ddec_sum_bond_order
 _atom_site_hse06_10hf_magmom
 _atom_site_hse06_ddec_charge
 _atom_site_hse06_ddec_spin_density
 _atom_site_hse06_ddec_sum_bond_order
 _atom_site_hse06_magmom
 _atom_site_pbe_cm5_charge
 _atom_site_pbe_ddec_charge
 _atom_site_pbe_ddec_spin_density
 _atom_site_pbe_ddec_sum_bond_order
 _atom_site_pbe_magmom
Cu  Cu0  1  0.49999608  0.50000459  0.49999933  1  0.838609  -0.670586  1.777775  -0.496  0.81076  -0.758812  2.167648  -0.605  0.897394  -0.821053  2.103319  -0.685  0.7366  0.75506  -0.718385  2.217418  -0.557
H  H1  1  0.57003077  0.96499300  0.65646087  1  0.118829  -8.8e-05  0.966674  0.0  0.134222  -0.000227  1.035366  0.0  0.135572  -0.000126  1.03614  0.0  0.089691  0.133226  -0.0003  1.034895  0.0
H  H2  1  0.42996940  0.03500711  0.34354158  1  0.118799  -9.3e-05  0.966574  0.0  0.134178  -0.000226  1.035294  0.0  0.135527  -0.000126  1.036066  0.0  0.089689  0.133182  -0.0003  1.034822  0.0
H  H3  1  0.18834834  0.05994955  0.61887051  1  0.133727  0.000445  0.947298  0.0  0.152569  -2.9e-05  1.00446  0.0  0.155069  -1.1e-05  1.00379  0.0  0.092156  0.150632  -5.7e-05  1.004917  0.0
H  H4  1  0.81165649  0.94005509  0.38112691  1  0.133707  0.000442  0.947288  0.0  0.152536  -2.9e-05  1.004458  0.0  0.155034  -1.2e-05  1.003789  0.0  0.092163  0.1506  -5.7e-05  1.004914  0.0
H  H5  1  0.32065316  0.01150719  0.78016719  1  0.131328  -0.000485  0.933051  -0.001  0.150733  -0.000499  0.989503  -0.001  0.15252  -0.000302  0.988913  0.0  0.094648  0.149115  -0.000695  0.990419  -0.001
H  H6  1  0.67934570  0.98849633  0.21983447  1  0.131409  -0.000489  0.933111  -0.001  0.150806  -0.000499  0.98955  -0.001  0.15259  -0.000302  0.988961  0.0  0.094679  0.149187  -0.000695  0.990465  -0.001
H  H7  1  0.35485262  0.78864492  0.60599919  1  0.107165  9.3e-05  0.978458  -0.001  0.118683  -0.000134  1.035228  -0.001  0.121189  -6.2e-05  1.034241  -0.001  0.120014  0.116737  -0.000184  1.035936  -0.001
H  H8  1  0.64515129  0.21135180  0.39400767  1  0.107195  0.0001  0.978381  -0.001  0.118637  -0.000133  1.035235  -0.001  0.121144  -6.1e-05  1.034245  -0.001  0.12001  0.116689  -0.000184  1.03595  -0.001
H  H9  1  0.95513769  0.80576944  0.80963167  1  0.115027  -0.000448  0.956538  -0.001  0.128776  -0.000407  1.009344  -0.001  0.131338  -0.000305  1.007909  0.0  0.127604  0.126347  -0.000529  1.011485  -0.001
H  H10  1  0.04487205  0.19422390  0.19037765  1  0.115082  -0.000452  0.956516  -0.001  0.128799  -0.000407  1.009347  -0.001  0.131361  -0.000304  1.007912  0.0  0.127626  0.126372  -0.000529  1.011486  -0.001
H  H11  1  0.97477899  0.39406488  0.70984685  1  0.11078  0.000418  0.964728  0.0  0.113918  0.000378  1.038002  0.0  0.117568  0.000394  1.032639  0.0  0.13844  0.110702  0.000301  1.042826  0.0
H  H12  1  0.02521253  0.60593973  0.29015020  1  0.110801  0.000424  0.964673  0.0  0.113937  0.000377  1.037947  0.0  0.117587  0.000394  1.032584  0.0  0.138463  0.110721  0.000301  1.042769  0.0
H  H13  1  0.69170075  0.73807908  0.96876283  1  0.104041  -3.7e-05  0.941862  0.0  0.120426  -4.5e-05  0.991417  0.0  0.123133  -3.2e-05  0.99016  0.0  0.110745  0.118449  -6.5e-05  0.99254  0.0
H  H14  1  0.30830293  0.26191645  0.03123321  1  0.104023  -2.9e-05  0.941816  0.0  0.120446  -4.6e-05  0.99134  0.0  0.123154  -3.2e-05  0.990076  0.0  0.110737  0.118468  -6.5e-05  0.992467  0.0
H  H15  1  0.64796319  0.33623477  0.85062068  1  0.125909  -2.8e-05  0.999817  0.0  0.13571  -2.3e-05  1.059927  0.0  0.139133  -1.6e-05  1.057863  0.0  0.108353  0.133231  -3.5e-05  1.061433  0.0
H  H16  1  0.35204016  0.66376190  0.14937694  1  0.125795  -3.6e-05  0.99993  0.0  0.135622  -2.2e-05  1.060019  0.0  0.139035  -1.6e-05  1.057961  0.0  0.108307  0.133142  -3.5e-05  1.061523  0.0
C  C17  1  0.38212157  0.04997043  0.67748164  1  -0.443427  -0.01091  3.671495  -0.012  -0.518392  -0.006723  3.903781  -0.007  -0.525465  -0.004667  3.907017  -0.005  -0.250662  -0.512852  -0.008226  3.901212  -0.009
C  C18  1  0.61789506  0.95003195  0.32251400  1  -0.443509  -0.010886  3.671551  -0.012  -0.518389  -0.006727  3.903829  -0.007  -0.525453  -0.004666  3.907068  -0.005  -0.250711  -0.512845  -0.008225  3.901259  -0.009
C  C19  1  0.48792436  0.20012103  0.65070306  1  0.719822  0.00806  3.853598  0.008  0.691331  0.002255  4.14791  0.003  0.727725  0.002847  4.141126  0.003  0.198579  0.666728  0.001773  4.150906  0.003
C  C20  1  0.51209281  0.79988023  0.34929468  1  0.719912  0.008049  3.85353  0.008  0.691363  0.002258  4.147968  0.003  0.727746  0.002844  4.141203  0.003  0.198552  0.666759  0.001772  4.150965  0.003
C  C21  1  0.21369341  0.71034369  0.65804166  1  0.014428  0.001652  3.742408  0.001  -0.019056  -5.6e-05  4.010593  0.0  -0.014834  0.001004  4.029598  0.0  0.000977  -0.021052  -0.000672  3.997036  -0.001
C  C22  1  0.78630278  0.28965527  0.34196125  1  0.014418  0.001558  3.742264  0.001  -0.018992  -5.6e-05  4.010472  0.0  -0.014773  0.000999  4.029475  0.0  0.000985  -0.02099  -0.000672  3.996915  -0.001
C  C23  1  0.01627430  0.71921230  0.75882218  1  -0.064438  -0.003963  3.680263  -0.004  -0.101675  -0.002234  3.936253  -0.002  -0.10045  -0.001951  3.954318  -0.002  0.00303  -0.102452  -0.002328  3.924138  -0.002
C  C24  1  0.98372895  0.28078554  0.24118072  1  -0.064521  -0.003897  3.680167  -0.004  -0.101728  -0.002235  3.936136  -0.002  -0.1005  -0.001949  3.954197  -0.002  0.003013  -0.102506  -0.002328  3.924023  -0.002
C  C25  1  0.02915151  0.50213913  0.70985900  1  0.181838  0.008895  3.57993  0.004  0.121393  0.003147  3.857494  0.001  0.137293  0.004515  3.868272  0.002  0.151518  0.110847  0.002293  3.851294  0.0
C  C26  1  0.97083664  0.49786321  0.29014155  1  0.181829  0.008784  3.579795  0.004  0.121405  0.003153  3.857371  0.001  0.137306  0.004507  3.86815  0.002  0.151538  0.110859  0.002294  3.851164  0.0
C  C27  1  0.60730432  0.63386596  0.98062407  1  -0.132831  -4.7e-05  3.751412  0.0  -0.156103  -7.5e-05  4.010053  0.0  -0.158567  -3.3e-05  4.029809  0.0  -0.09059  -0.154239  -0.000149  3.996531  0.0
C  C28  1  0.39268663  0.36613409  0.01937229  1  -0.132833  -6.6e-05  3.751425  0.0  -0.156102  -7.3e-05  4.010093  0.0  -0.158564  -2.9e-05  4.029855  0.0  -0.090611  -0.154243  -0.000149  3.996569  0.0
C  C29  1  0.58855464  0.40826016  0.91617792  1  -0.141793  0.000304  3.726738  0.0  -0.163134  0.000184  3.978699  0.0  -0.166714  0.00019  3.99945  0.0  -0.092532  -0.160489  0.000133  3.964473  0.0
C  C30  1  0.41143858  0.59173990  0.08381927  1  -0.141629  0.000338  3.726588  0.0  -0.162962  0.000181  3.97861  0.0  -0.166529  0.000194  3.999351  0.0  -0.092488  -0.160321  0.000133  3.96437  0.0
C  C31  1  0.69693258  0.54308653  0.89611327  1  0.174204  -0.000688  3.784524  -0.001  0.163341  -0.000471  4.038323  -0.001  0.168219  -0.000388  4.061785  -0.001  0.091818  0.159868  -0.000542  4.022399  -0.001
C  C32  1  0.30305267  0.45691124  0.10388483  1  0.174158  -0.000682  3.784366  -0.001  0.163197  -0.000471  4.038326  -0.001  0.168074  -0.000391  4.061787  -0.001  0.091821  0.159743  -0.000542  4.022374  -0.001
N  N33  1  0.22116254  0.57477477  0.62906634  1  -0.341129  -0.063624  3.31985  -0.082  -0.297902  -0.047931  3.640568  -0.065  -0.326736  -0.040107  3.657901  -0.059  -0.369776  -0.280301  -0.052321  3.631176  -0.068
N  N34  1  0.77883051  0.42522646  0.37093520  1  -0.341136  -0.06358  3.319842  -0.082  -0.297945  -0.047929  3.640589  -0.065  -0.326777  -0.040104  3.65792  -0.059  -0.369797  -0.280344  -0.05232  3.631193  -0.068
N  N35  1  0.89904787  0.58674980  0.79146263  1  -0.090112  -0.001049  3.588619  -0.002  0.001065  -0.000981  3.79576  -0.002  -0.014064  -0.000649  3.822267  -0.001  -0.220053  0.011252  -0.001289  3.777662  -0.002
N  N36  1  0.10094600  0.41324914  0.20853853  1  -0.090096  -0.001038  3.588442  -0.002  0.001103  -0.000987  3.795626  -0.002  -0.014025  -0.000647  3.822133  -0.001  -0.220098  0.011283  -0.001289  3.777519  -0.002
O  O37  1  0.68527477  0.21442873  0.71923277  1  -0.636765  0.001066  1.902133  -0.001  -0.601021  0.00126  2.123906  -0.001  -0.625433  0.002237  2.113759  0.001  -0.337485  -0.583616  0.000473  2.130319  -0.001
O  O38  1  0.31474407  0.78557366  0.28076277  1  -0.63679  0.001061  1.902056  -0.001  -0.60104  0.001262  2.123884  -0.001  -0.625448  0.002237  2.113743  0.001  -0.337473  -0.583637  0.000473  2.130299  -0.001
O  O39  1  0.36148480  0.30479954  0.55263016  1  -0.605933  -0.104246  2.043054  -0.143  -0.580262  -0.067985  2.328264  -0.102  -0.625198  -0.052012  2.32279  -0.084  -0.334765  -0.54966  -0.078394  2.332339  -0.111
O  O40  1  0.63851632  0.69520399  0.44737233  1  -0.605892  -0.104241  2.043078  -0.143  -0.580254  -0.067983  2.328383  -0.102  -0.625183  -0.052008  2.322913  -0.084  -0.334713  -0.549652  -0.078388  2.332464  -0.111
