# generated using pymatgen
data_MnH14C20N4O5
_symmetry_space_group_name_H-M   'P 1'
_cell_length_a   9.71308220
_cell_length_b   9.90170992
_cell_length_c   11.95893855
_cell_angle_alpha   82.31034657
_cell_angle_beta   68.00325806
_cell_angle_gamma   61.68585862
_symmetry_Int_Tables_number   1
_chemical_formula_structural   MnH14C20N4O5
_chemical_formula_sum   'Mn2 H28 C40 N8 O10'
_cell_volume   937.49457757
_cell_formula_units_Z   2
loop_
 _symmetry_equiv_pos_site_id
 _symmetry_equiv_pos_as_xyz
  1  'x, y, z'
loop_
 _atom_site_type_symbol
 _atom_site_label
 _atom_site_symmetry_multiplicity
 _atom_site_fract_x
 _atom_site_fract_y
 _atom_site_fract_z
 _atom_site_occupancy
 _atom_site_pbe_cm5_charge
 _atom_site_pbe_ddec_charge
 _atom_site_pbe_ddec_spin_density
 _atom_site_pbe_ddec_sum_bond_order
 _atom_site_pbe_magmom
Mn  Mn0  1  0.49616594  0.17197601  0.89792783  1  0.626948  0.91225  4.671803  2.402455  4.424
Mn  Mn1  1  0.50383202  0.82802450  0.10207112  1  0.626954  0.912275  4.67185  2.402369  4.424
H  H2  1  0.48486192  0.77054359  0.40989133  1  0.301353  0.361515  8.9e-05  0.980462  0.0
H  H3  1  0.51514566  0.22944655  0.59010747  1  0.301332  0.361538  8.9e-05  0.980355  0.0
H  H4  1  0.34818736  0.43515319  0.11085192  1  0.139724  0.108396  3e-06  1.014252  0.0
H  H5  1  0.65181554  0.56485075  0.88914433  1  0.139743  0.108371  4e-06  1.014296  0.0
H  H6  1  0.08440102  0.23576145  0.04560658  1  0.123881  0.122106  -0.000207  0.986557  0.0
H  H7  1  0.91559806  0.76423903  0.95439454  1  0.1239  0.122169  -0.000207  0.986603  0.0
H  H8  1  0.87505792  0.44092500  0.24788798  1  0.120107  0.125892  0.00024  1.046475  0.0
H  H9  1  0.12493714  0.55908353  0.75211351  1  0.120125  0.125943  0.00024  1.046592  0.0
H  H10  1  0.79312409  0.70578819  0.30963810  1  0.114001  0.132251  -0.000207  1.007398  0.0
H  H11  1  0.20687663  0.29421345  0.69036157  1  0.114008  0.132268  -0.000207  1.007334  0.0
H  H12  1  0.71157896  0.87557477  0.48275331  1  0.109169  0.118853  4.9e-05  1.050134  0.0
H  H13  1  0.28841963  0.12442226  0.51725001  1  0.109189  0.118878  4.9e-05  1.050155  0.0
H  H14  1  0.20609426  0.61553335  0.49894700  1  0.10923  0.12053  6.3e-05  1.002763  0.0
H  H15  1  0.79390700  0.38446943  0.50105154  1  0.109218  0.120517  6.3e-05  1.002721  0.0
H  H16  1  0.28747254  0.44586205  0.32703351  1  0.103244  0.106143  1.4e-05  1.053613  0.0
H  H17  1  0.71253033  0.55414417  0.67296417  1  0.103228  0.106122  1.5e-05  1.053615  0.0
H  H18  1  0.64492667  0.90315271  0.68434007  1  0.132236  0.090683  -7.2e-05  1.064306  0.0
H  H19  1  0.35507411  0.09684661  0.31566233  1  0.132248  0.090665  -7.2e-05  1.064295  0.0
H  H20  1  0.91188689  0.08223391  0.76971730  1  0.124331  0.123056  8.5e-05  0.98257  0.0
H  H21  1  0.08811104  0.91776888  0.23028310  1  0.124318  0.123044  8.5e-05  0.982548  0.0
H  H22  1  0.12579766  0.87740605  0.56954382  1  0.120701  0.125383  0.000377  1.032342  0.0
H  H23  1  0.87420023  0.12259903  0.43045634  1  0.120682  0.125381  0.000377  1.032351  0.0
H  H24  1  0.39987709  0.00598218  0.65448880  1  0.108169  0.126238  -0.000264  1.043633  0.0
H  H25  1  0.60012151  0.99401260  0.34550974  1  0.108138  0.126192  -0.000264  1.043621  0.0
H  H26  1  0.44102239  0.58936403  0.54236252  1  0.099824  0.109077  -5e-05  1.079373  0.0
H  H27  1  0.55898690  0.41062494  0.45763839  1  0.099808  0.109043  -5e-05  1.079369  0.0
H  H28  1  0.38016595  0.65861321  0.90941652  1  0.106957  0.116633  -0.000444  1.018472  0.0
H  H29  1  0.61982422  0.34138732  0.09058564  1  0.106924  0.116586  -0.000444  1.018475  0.0
C  C30  1  0.25129683  0.40477320  0.11943106  1  0.146518  0.100427  0.008129  3.895003  0.007
C  C31  1  0.74870496  0.59523074  0.88056636  1  0.146516  0.100488  0.008126  3.89518  0.007
C  C32  1  0.10778656  0.30807461  0.08890875  1  0.006835  -0.015439  0.003586  3.990997  0.004
C  C33  1  0.89221129  0.69193502  0.91109679  1  0.006841  -0.015459  0.003586  3.990515  0.004
C  C34  1  0.00335232  0.40753744  0.18870286  1  0.000139  -0.101186  -7e-05  3.892757  0.0
C  C35  1  0.99666233  0.59246075  0.81128790  1  9.2e-05  -0.101257  -6.9e-05  3.892526  0.0
C  C36  1  0.04656138  0.56710175  0.30655297  1  0.093794  0.156785  0.000955  4.018185  0.001
C  C37  1  0.95344488  0.43290215  0.69344560  1  0.093816  0.156849  0.000955  4.018107  0.001
C  C38  1  0.88321474  0.68608999  0.35119792  1  -0.082053  -0.136369  0.000449  3.943954  0.0
C  C39  1  0.11678430  0.31391280  0.64880214  1  -0.082075  -0.136395  0.000449  3.944034  0.0
C  C40  1  0.83724385  0.78057433  0.44853685  1  -0.08835  -0.154195  0.000507  3.965713  0.0
C  C41  1  0.16275915  0.21942499  0.55146404  1  -0.088363  -0.154218  0.000507  3.965638  0.0
C  C42  1  0.95356792  0.75726298  0.50059635  1  0.094145  0.158766  0.000978  4.022163  0.001
C  C43  1  0.04643170  0.24273865  0.49940449  1  0.094139  0.158754  0.000977  4.022083  0.001
C  C44  1  0.11654762  0.63758107  0.45625218  1  -0.085544  -0.141964  0.000427  3.963377  0.0
C  C45  1  0.88345476  0.36242171  0.54374685  1  -0.085546  -0.141959  0.000427  3.9634  0.0
C  C46  1  0.16229507  0.54213079  0.35963422  1  -0.08555  -0.142282  0.000478  3.97859  0.0
C  C47  1  0.83770561  0.45787315  0.64036353  1  -0.085517  -0.142214  0.000478  3.97841  0.0
C  C48  1  0.74430901  0.92573406  0.68231796  1  0.147624  0.113176  0.009568  3.914076  0.008
C  C49  1  0.25569064  0.07426529  0.31768227  1  0.147624  0.113189  0.009567  3.91412  0.008
C  C50  1  0.88811963  0.01404599  0.72250676  1  0.005331  -0.019372  0.003026  3.98327  0.004
C  C51  1  0.11188051  0.98595680  0.27749128  1  0.005348  -0.01935  0.003027  3.983091  0.004
C  C52  1  0.99590756  0.91216730  0.62450049  1  -0.002281  -0.11149  0.001118  3.929333  0.001
C  C53  1  0.00408922  0.08783778  0.37550084  1  -0.002227  -0.111473  0.001119  3.929041  0.001
C  C54  1  0.37420183  0.93837670  0.88515456  1  0.223283  0.586679  0.032545  4.183249  0.028
C  C55  1  0.62579110  0.06162497  0.11484581  1  0.223307  0.586696  0.032547  4.183197  0.028
C  C56  1  0.38148371  0.84462296  0.79230460  1  -0.023164  -0.028702  1.1e-05  4.019942  0.0
C  C57  1  0.61851095  0.15537526  0.20769645  1  -0.023122  -0.028659  1.1e-05  4.019852  0.0
C  C58  1  0.39870738  0.89606959  0.67527114  1  -0.100999  -0.227618  0.007446  3.932298  0.006
C  C59  1  0.60128844  0.10392633  0.32473064  1  -0.101003  -0.227577  0.007446  3.93222  0.006
C  C60  1  0.42135750  0.80378578  0.58432409  1  0.077652  0.320474  -0.001414  4.090906  -0.001
C  C61  1  0.57864334  0.19620897  0.41567711  1  0.077564  0.320405  -0.001414  4.090934  -0.001
C  C62  1  0.42408370  0.66089897  0.61259484  1  -0.105638  -0.247468  0.007348  3.96576  0.006
C  C63  1  0.57591939  0.33909349  0.38740425  1  -0.105579  -0.247376  0.007347  3.965762  0.006
C  C64  1  0.41272284  0.60696145  0.72833039  1  -0.022481  -0.017026  -0.000795  4.018509  -0.001
C  C65  1  0.58727460  0.39303789  0.27167219  1  -0.02249  -0.017139  -0.000794  4.018552  -0.001
C  C66  1  0.38874380  0.69979869  0.81920719  1  -0.094743  -0.15464  0.005858  3.982127  0.005
C  C67  1  0.61124807  0.30020067  0.18079625  1  -0.094694  -0.154502  0.005858  3.981977  0.005
C  C68  1  0.44188238  0.44385123  0.74907783  1  0.214503  0.583585  0.011576  4.194599  0.009
C  C69  1  0.55811793  0.55614237  0.25092365  1  0.214506  0.583582  0.011574  4.194978  0.009
N  N70  1  0.26176977  0.30736711  0.04654171  1  -0.342596  -0.306048  0.030512  3.535013  0.012
N  N71  1  0.73823320  0.69263224  0.95345500  1  -0.342597  -0.306002  0.030511  3.535004  0.012
N  N72  1  0.09662359  0.46764680  0.20796114  1  -0.225511  0.00692  0.003397  3.797284  0.003
N  N73  1  0.90337594  0.53235944  0.79203673  1  -0.225522  0.006738  0.003396  3.797564  0.003
N  N74  1  0.90255244  0.85682490  0.59922757  1  -0.228643  -0.002385  0.002396  3.808532  0.002
N  N75  1  0.09744829  0.14317673  0.40077292  1  -0.22866  -0.002366  0.002396  3.808524  0.002
N  N76  1  0.73140132  0.02144373  0.75763499  1  -0.343695  -0.301209  0.030431  3.521653  0.012
N  N77  1  0.26859887  0.97855675  0.24236579  1  -0.343706  -0.301222  0.03043  3.521743  0.012
O  O78  1  0.38075982  0.06416834  0.85285926  1  -0.312454  -0.555792  0.05779  2.335256  0.038
O  O79  1  0.61924035  0.93583218  0.14713651  1  -0.312444  -0.555811  0.057791  2.335287  0.038
O  O80  1  0.36801191  0.88397443  0.98853669  1  -0.315288  -0.561037  0.057154  2.365891  0.038
O  O81  1  0.63197642  0.11603643  0.01146409  1  -0.315329  -0.561069  0.057157  2.365829  0.038
O  O82  1  0.49441338  0.38005700  0.83521402  1  -0.316185  -0.546189  0.046304  2.295923  0.031
O  O83  1  0.50558798  0.61994117  0.16478916  1  -0.316158  -0.546169  0.046304  2.296127  0.031
O  O84  1  0.41575051  0.37996065  0.67930430  1  -0.32141  -0.586717  0.0091  2.230583  0.007
O  O85  1  0.58425540  0.62003062  0.32069823  1  -0.321435  -0.586717  0.009099  2.230678  0.007
O  O86  1  0.44021096  0.85615117  0.47130003  1  -0.353161  -0.468751  -0.000313  2.352089  0.0
O  O87  1  0.55979326  0.14384127  0.52870039  1  -0.353051  -0.468701  -0.000313  2.352036  0.0
