# generated using pymatgen
data_ErH8C6O7
_symmetry_space_group_name_H-M   'P 1'
_cell_length_a   7.49741625
_cell_length_b   8.41471040
_cell_length_c   13.81753929
_cell_angle_alpha   96.47364415
_cell_angle_beta   98.05965396
_cell_angle_gamma   99.39796706
_symmetry_Int_Tables_number   1
_chemical_formula_structural   ErH8C6O7
_chemical_formula_sum   'Er4 H32 C24 O28'
_cell_volume   843.28452196
_cell_formula_units_Z   4
loop_
 _symmetry_equiv_pos_site_id
 _symmetry_equiv_pos_as_xyz
  1  'x, y, z'
loop_
 _atom_site_type_symbol
 _atom_site_label
 _atom_site_symmetry_multiplicity
 _atom_site_fract_x
 _atom_site_fract_y
 _atom_site_fract_z
 _atom_site_occupancy
 _atom_site_hle17_bader_spin_density
 _atom_site_hle17_ddec_charge
 _atom_site_hle17_ddec_spin_density
 _atom_site_hle17_ddec_sum_bond_order
 _atom_site_hle17_magmom
 _atom_site_hse06_10hf_bader_spin_density
 _atom_site_hse06_10hf_ddec_charge
 _atom_site_hse06_10hf_ddec_spin_density
 _atom_site_hse06_10hf_ddec_sum_bond_order
 _atom_site_hse06_10hf_magmom
 _atom_site_hse06_bader_spin_density
 _atom_site_hse06_ddec_charge
 _atom_site_hse06_ddec_spin_density
 _atom_site_hse06_ddec_sum_bond_order
 _atom_site_hse06_magmom
 _atom_site_pbe_bader_spin_density
 _atom_site_pbe_cm5_charge
 _atom_site_pbe_ddec_charge
 _atom_site_pbe_ddec_spin_density
 _atom_site_pbe_ddec_sum_bond_order
 _atom_site_pbe_magmom
Er  Er0  1  0.59749662  0.98522851  0.70710890  1  0  2.278776  0  1.587336  0  0  2.127289  0  2.056149  0  0  2.267693  0  1.850597  0  0  1.51112  2.089703  0  2.08569  0
Er  Er1  1  0.40249990  0.01477073  0.29289067  1  0  2.27881  0  1.58734  0  0  2.12735  0  2.056129  0  0  2.26774  0  1.850602  0  0  1.511174  2.089769  0  2.085672  0
Er  Er2  1  0.14022544  0.07954223  0.79452103  1  0  2.267952  0  1.593539  0  0  2.119494  0  2.062519  0  0  2.259977  0  1.857301  0  0  1.504087  2.081557  0  2.09241  0
Er  Er3  1  0.85977328  0.92045459  0.20547926  1  0  2.267952  0  1.593521  0  0  2.119496  0  2.062468  0  0  2.259969  0  1.85727  0  0  1.504094  2.081551  0  2.092383  0
H  H4  1  0.34500854  0.59271402  0.84088608  1  0  0.144353  0  0.915093  0  0  0.157845  0  0.971901  0  0  0.161589  0  0.969181  0  0  0.117966  0.1554  0  0.973394  0
H  H5  1  0.65499632  0.40728647  0.15911278  1  0  0.144352  0  0.915093  0  0  0.157857  0  0.971902  0  0  0.161602  0  0.969187  0  0  0.117964  0.155408  0  0.973396  0
H  H6  1  0.54306351  0.72017368  0.90919193  1  0  0.120938  0  0.914034  0  0  0.13585  0  0.969594  0  0  0.138695  0  0.967978  0  0  0.111945  0.133925  0  0.970556  0
H  H7  1  0.45694049  0.27982924  0.09080775  1  0  0.120944  0  0.913944  0  0  0.135862  0  0.969536  0  0  0.138708  0  0.967926  0  0  0.111952  0.133937  0  0.970497  0
H  H8  1  0.04228305  0.66126128  0.75500646  1  0  0.117549  0  0.92913  0  0  0.131904  0  0.988285  0  0  0.134069  0  0.987862  0  0  0.114329  0.130273  0  0.988798  0
H  H9  1  0.95771550  0.33874159  0.24499931  1  0  0.117502  0  0.929142  0  0  0.131887  0  0.988311  0  0  0.134058  0  0.987872  0  0  0.114306  0.130254  0  0.988829  0
H  H10  1  0.95654140  0.62344873  0.86353858  1  0  0.114687  0  0.915957  0  0  0.134262  0  0.968327  0  0  0.136376  0  0.967318  0  0  0.110825  0.132896  0  0.968675  0
H  H11  1  0.04344774  0.37655412  0.13646501  1  0  0.114597  0  0.916014  0  0  0.134158  0  0.968449  0  0  0.136272  0  0.96744  0  0  0.110769  0.132797  0  0.968799  0
H  H12  1  0.96946888  0.79626629  0.43086452  1  0  0.120732  0  0.936723  0  0  0.133146  0  0.999099  0  0  0.135818  0  0.998618  0  0  0.11253  0.131139  0  0.999809  0
H  H13  1  0.03052837  0.20373660  0.56913536  1  0  0.120716  0  0.93676  0  0  0.133143  0  0.99912  0  0  0.135813  0  0.998641  0  0  0.112528  0.131134  0  0.999834  0
H  H14  1  0.96253589  0.63732334  0.50326394  1  0  0.102927  0  0.922543  0  0  0.121241  0  0.975493  0  0  0.123542  0  0.974051  0  0  0.10415  0.119685  0  0.976292  0
H  H15  1  0.03746296  0.36268077  0.49673543  1  0  0.102957  0  0.922501  0  0  0.121274  0  0.975453  0  0  0.123571  0  0.974012  0  0  0.104177  0.119721  0  0.976252  0
H  H16  1  0.36576878  0.52191645  0.00524540  1  0  0.116604  0  0.93109  0  0  0.132936  0  0.987514  0  0  0.135224  0  0.986451  0  0  0.108889  0.131417  0  0.988047  0
H  H17  1  0.63423536  0.47808040  0.99475315  1  0  0.116613  0  0.931118  0  0  0.132977  0  0.987524  0  0  0.135267  0  0.98646  0  0  0.108914  0.131457  0  0.988056  0
H  H18  1  0.18585447  0.63394161  0.99403812  1  0  0.102653  0  0.947459  0  0  0.116743  0  1.007904  0  0  0.119554  0  1.005415  0  0  0.100461  0.114875  0  1.009306  0
H  H19  1  0.81414832  0.36605523  0.00596033  1  0  0.102649  0  0.947487  0  0  0.11676  0  1.007925  0  0  0.119571  0  1.005439  0  0  0.10045  0.114891  0  1.009329  0
H  H20  1  0.61257917  0.61231743  0.48430934  1  0  0.114153  0  0.921204  0  0  0.12836  0  0.977996  0  0  0.130868  0  0.97633  0  0  0.108951  0.126698  0  0.978932  0
H  H21  1  0.38741785  0.38768425  0.51568972  1  0  0.114121  0  0.921201  0  0  0.128355  0  0.977976  0  0  0.130852  0  0.976307  0  0  0.108938  0.126693  0  0.97891  0
H  H22  1  0.69646799  0.56190319  0.37248707  1  0  0.131881  0  0.903498  0  0  0.148017  0  0.955782  0  0  0.151032  0  0.953646  0  0  0.115473  0.146008  0  0.957051  0
H  H23  1  0.30353122  0.43809606  0.62751344  1  0  0.13186  0  0.903473  0  0  0.148009  0  0.955773  0  0  0.151015  0  0.953631  0  0  0.115471  0.146  0  0.957044  0
H  H24  1  0.78194853  0.44828420  0.65499380  1  0  0.120825  0  0.905732  0  0  0.138811  0  0.956372  0  0  0.141195  0  0.955279  0  0  0.112588  0.137286  0  0.956779  0
H  H25  1  0.21804981  0.55171747  0.34500898  1  0  0.120821  0  0.905669  0  0  0.138812  0  0.956319  0  0  0.141194  0  0.95523  0  0  0.112586  0.137289  0  0.956722  0
H  H26  1  0.70058226  0.40747591  0.76315300  1  0  0.118571  0  0.920615  0  0  0.133759  0  0.975165  0  0  0.135955  0  0.974681  0  0  0.113373  0.132176  0  0.975591  0
H  H27  1  0.29941803  0.59252211  0.23685040  1  0  0.118584  0  0.920629  0  0  0.133769  0  0.975197  0  0  0.135966  0  0.974713  0  0  0.113387  0.132189  0  0.975622  0
H  H28  1  0.02818793  0.14080137  0.99464974  1  0  0.450677  0  0.804925  0  0  0.429537  0  0.864898  0  0  0.439058  0  0.851027  0  0  0.327452  0.423085  0  0.872757  0
H  H29  1  0.97181238  0.85919667  0.00535149  1  0  0.450606  0  0.804963  0  0  0.429462  0  0.864992  0  0  0.438983  0  0.85112  0  0  0.327392  0.423008  0  0.872817  0
H  H30  1  0.87383880  0.16796037  0.91213809  1  0  0.435713  0  0.869949  0  0  0.40397  0  0.935828  0  0  0.415771  0  0.918828  0  0  0.299617  0.395714  0  0.947892  0
H  H31  1  0.12616287  0.83203768  0.08786180  1  0  0.435723  0  0.869929  0  0  0.403975  0  0.935818  0  0  0.415775  0  0.918821  0  0  0.2996  0.395722  0  0.947877  0
H  H32  1  0.24241557  0.84876535  0.59511074  1  0  0.435737  0  0.864699  0  0  0.404465  0  0.928657  0  0  0.416193  0  0.911828  0  0  0.296074  0.396344  0  0.940429  0
H  H33  1  0.75757691  0.15123388  0.40488779  1  0  0.435686  0  0.864775  0  0  0.404424  0  0.928703  0  0  0.416148  0  0.911882  0  0  0.296057  0.39631  0  0.940462  0
H  H34  1  0.38780996  0.82302607  0.51861199  1  0  0.4514  0  0.842188  0  0  0.419983  0  0.905734  0  0  0.431708  0  0.888827  0  0  0.302535  0.411928  0  0.917489  0
H  H35  1  0.61218705  0.17697561  0.48138707  1  0  0.451436  0  0.842148  0  0  0.420018  0  0.905692  0  0  0.431741  0  0.88879  0  0  0.302545  0.411964  0  0.917444  0
C  C36  1  0.31816853  0.83820614  0.87048601  1  0  0.738154  0  3.802997  0  0  0.692996  0  4.101826  0  0  0.726543  0  4.102444  0  0  0.216473  0.669744  0  4.107772  0
C  C37  1  0.68183166  0.16179797  0.12951418  1  0  0.738291  0  3.802979  0  0  0.693039  0  4.10198  0  0  0.726594  0  4.102598  0  0  0.216489  0.669794  0  4.107918  0
C  C38  1  0.39292936  0.69322545  0.90191030  1  0  -0.247663  0  3.64411  0  0  -0.287077  0  3.896853  0  0  -0.291835  0  3.901089  0  0  -0.155342  -0.283244  0  3.892484  0
C  C39  1  0.60707489  0.30677869  0.09808877  1  0  -0.247647  0  3.643989  0  0  -0.287087  0  3.896899  0  0  -0.291844  0  3.901132  0  0  -0.155324  -0.283251  0  3.892523  0
C  C40  1  0.79348626  0.74399032  0.76815671  1  0  0.712408  0  3.852474  0  0  0.668725  0  4.152117  0  0  0.701494  0  4.153728  0  0  0.20473  0.646004  0  4.157563  0
C  C41  1  0.20651319  0.25601014  0.23184462  1  0  0.712448  0  3.852465  0  0  0.668843  0  4.152043  0  0  0.701614  0  4.153649  0  0  0.204807  0.646125  0  4.157485  0
C  C42  1  0.91550911  0.62041702  0.78359450  1  0  -0.236765  0  3.679801  0  0  -0.27826  0  3.929771  0  0  -0.282662  0  3.936147  0  0  -0.158907  -0.274674  0  3.924053  0
C  C43  1  0.08448628  0.37958342  0.21640941  1  0  -0.236546  0  3.679697  0  0  -0.278149  0  3.929817  0  0  -0.282549  0  3.936201  0  0  -0.158836  -0.274571  0  3.924105  0
C  C44  1  0.89674483  0.85585839  0.57301350  1  0  0.749011  0  3.783158  0  0  0.705961  0  4.077764  0  0  0.740562  0  4.07245  0  0  0.233821  0.683108  0  4.08295  0
C  C45  1  0.10325083  0.14414328  0.42698617  1  0  0.748992  0  3.783378  0  0  0.705942  0  4.077996  0  0  0.740538  0  4.072682  0  0  0.233836  0.683089  0  4.08318  0
C  C46  1  0.43754734  0.76107147  0.08604648  1  0  0.766519  0  3.762084  0  0  0.725873  0  4.054309  0  0  0.761292  0  4.047451  0  0  0.236732  0.702452  0  4.06079  0
C  C47  1  0.56245541  0.23892535  0.91395630  1  0  0.766738  0  3.761946  0  0  0.726105  0  4.054169  0  0  0.761521  0  4.047313  0  0  0.236831  0.702683  0  4.060652  0
C  C48  1  0.94946357  0.32716356  0.74626778  1  0  0.72639  0  3.811472  0  0  0.684274  0  4.105236  0  0  0.717311  0  4.106202  0  0  0.210018  0.661516  0  4.110419  0
C  C49  1  0.05053591  0.67283692  0.25373066  1  0  0.726204  0  3.811756  0  0  0.684206  0  4.105363  0  0  0.71724  0  4.106339  0  0  0.209999  0.661448  0  4.110541  0
C  C50  1  0.88983992  0.73448906  0.48143777  1  0  -0.238905  0  3.631512  0  0  -0.280239  0  3.883454  0  0  -0.284615  0  3.888136  0  0  -0.154753  -0.276706  0  3.878611  0
C  C51  1  0.11015708  0.26551261  0.51856274  1  0  -0.238927  0  3.631442  0  0  -0.280255  0  3.883438  0  0  -0.284638  0  3.888103  0  0  -0.154774  -0.276737  0  3.878621  0
C  C52  1  0.59508512  0.78179901  0.38164973  1  0  0.767158  0  3.761057  0  0  0.720455  0  4.058262  0  0  0.755835  0  4.05477  0  0  0.232261  0.696365  0  4.065866  0
C  C53  1  0.40491227  0.21819781  0.61834973  1  0  0.767129  0  3.761057  0  0  0.720483  0  4.058194  0  0  0.755828  0  4.054733  0  0  0.23223  0.69639  0  4.065808  0
C  C54  1  0.33402775  0.64316257  0.99723201  1  0  -0.242504  0  3.653274  0  0  -0.286158  0  3.901854  0  0  -0.290093  0  3.905975  0  0  -0.162977  -0.282882  0  3.897181  0
C  C55  1  0.66597576  0.35683791  0.00276819  1  0  -0.242605  0  3.653377  0  0  -0.286317  0  3.902028  0  0  -0.29026  0  3.90617  0  0  -0.163023  -0.28304  0  3.897351  0
C  C56  1  0.69335159  0.66174418  0.43064826  1  0  -0.238445  0  3.639118  0  0  -0.279856  0  3.891773  0  0  -0.283624  0  3.894958  0  0  -0.154709  -0.276866  0  3.888139  0
C  C57  1  0.30665302  0.33825509  0.56935266  1  0  -0.238353  0  3.638986  0  0  -0.279841  0  3.891725  0  0  -0.283553  0  3.894851  0  0  -0.154703  -0.276846  0  3.888094  0
C  C58  1  0.82653328  0.45045796  0.73455667  1  0  -0.232164  0  3.6772  0  0  -0.269988  0  3.925136  0  0  -0.274125  0  3.930639  0  0  -0.157983  -0.266612  0  3.919858  0
C  C59  1  0.17346457  0.54954127  0.26544589  1  0  -0.232158  0  3.677164  0  0  -0.270025  0  3.925183  0  0  -0.274157  0  3.930681  0  0  -0.158018  -0.26665  0  3.919902  0
O  O60  1  0.36857713  0.83042647  0.58876249  1  0  -0.921054  0  1.858308  0  0  -0.873281  0  2.056113  0  0  -0.903964  0  2.014687  0  0  -0.65965  -0.859289  0  2.079157  0
O  O61  1  0.63141854  0.16957521  0.41123573  1  0  -0.921015  0  1.858299  0  0  -0.873244  0  2.056126  0  0  -0.903928  0  2.014705  0  0  -0.659629  -0.85925  0  2.079169  0
O  O62  1  0.35745862  0.89220484  0.79051901  1  0  -0.840654  0  2.143405  0  0  -0.783947  0  2.413141  0  0  -0.832316  0  2.40159  0  0  -0.446092  -0.764971  0  2.419429  0
O  O63  1  0.64253389  0.10779440  0.20947663  1  0  -0.840744  0  2.143552  0  0  -0.783965  0  2.413263  0  0  -0.832329  0  2.401694  0  0  -0.446145  -0.764994  0  2.41956  0
O  O64  1  0.20948512  0.90433085  0.91706225  1  0  -0.68266  0  1.988521  0  0  -0.632548  0  2.22858  0  0  -0.66593  0  2.219078  0  0  -0.358109  -0.615261  0  2.23337  0
O  O65  1  0.79051728  0.09567084  0.08293795  1  0  -0.682723  0  1.988462  0  0  -0.632584  0  2.228582  0  0  -0.665959  0  2.219053  0  0  -0.358108  -0.615297  0  2.233371  0
O  O66  1  0.63057987  0.70367347  0.72425991  1  0  -0.644776  0  1.94205  0  0  -0.59999  0  2.177185  0  0  -0.632647  0  2.168964  0  0  -0.345038  -0.583326  0  2.181424  0
O  O67  1  0.36942205  0.29632580  0.27573791  1  0  -0.644813  0  1.942082  0  0  -0.600057  0  2.177197  0  0  -0.632716  0  2.168973  0  0  -0.345084  -0.583392  0  2.181433  0
O  O68  1  0.85967590  0.89645686  0.79975467  1  0  -0.853239  0  2.138174  0  0  -0.795818  0  2.3995  0  0  -0.842754  0  2.389094  0  0  -0.441458  -0.776954  0  2.405228  0
O  O69  1  0.14032573  0.10354117  0.20024956  1  0  -0.853279  0  2.138251  0  0  -0.795852  0  2.399511  0  0  -0.842787  0  2.389096  0  0  -0.441458  -0.776984  0  2.405242  0
O  O70  1  0.04821303  0.89884770  0.63307847  1  0  -0.729121  0  2.039652  0  0  -0.673239  0  2.282758  0  0  -0.71014  0  2.272393  0  0  -0.347537  -0.654445  0  2.287757  0
O  O71  1  0.95178103  0.10115275  0.36692244  1  0  -0.72918  0  2.039743  0  0  -0.673239  0  2.282767  0  0  -0.710138  0  2.272402  0  0  -0.347542  -0.654454  0  2.287787  0
O  O72  1  0.75014853  0.90622195  0.58429361  1  0  -0.708533  0  2.072687  0  0  -0.650273  0  2.324111  0  0  -0.688248  0  2.312324  0  0  -0.390067  -0.631942  0  2.328791  0
O  O73  1  0.24984739  0.09378094  0.41570399  1  0  -0.708446  0  2.072755  0  0  -0.650237  0  2.324221  0  0  -0.688209  0  2.312437  0  0  -0.390062  -0.631903  0  2.328904  0
O  O74  1  0.44692627  0.81685656  0.40570142  1  0  -0.697381  0  2.044224  0  0  -0.641993  0  2.283817  0  0  -0.676573  0  2.272071  0  0  -0.347365  -0.624193  0  2.290396  0
O  O75  1  0.55307544  0.18314150  0.59429341  1  0  -0.697406  0  2.044107  0  0  -0.64203  0  2.283676  0  0  -0.676606  0  2.271946  0  0  -0.347399  -0.624231  0  2.29025  0
O  O76  1  0.65651980  0.84839002  0.31090815  1  0  -0.838853  0  2.177302  0  0  -0.781277  0  2.446647  0  0  -0.830167  0  2.435596  0  0  -0.431438  -0.761782  0  2.452208  0
O  O77  1  0.34348116  0.15160439  0.68908854  1  0  -0.838828  0  2.177427  0  0  -0.781229  0  2.446695  0  0  -0.83011  0  2.435661  0  0  -0.431346  -0.761722  0  2.45222  0
O  O78  1  0.87794134  0.17416276  0.72321680  1  0  -0.851058  0  2.206175  0  0  -0.797485  0  2.476787  0  0  -0.84526  0  2.467155  0  0  -0.458114  -0.778579  0  2.482362  0
O  O79  1  0.12206000  0.82584017  0.27677761  1  0  -0.850993  0  2.206325  0  0  -0.797433  0  2.476858  0  0  -0.84521  0  2.467238  0  0  -0.458088  -0.778533  0  2.482447  0
O  O80  1  0.60975269  0.77338879  0.10147114  1  0  -0.715271  0  2.041025  0  0  -0.667327  0  2.29591  0  0  -0.705928  0  2.282164  0  0  -0.392532  -0.648943  0  2.301518  0
O  O81  1  0.39025116  0.22660681  0.89853309  1  0  -0.715397  0  2.040844  0  0  -0.667484  0  2.295792  0  0  -0.706083  0  2.282047  0  0  -0.39264  -0.649103  0  2.301406  0
O  O82  1  0.34665516  0.84165481  0.13959991  1  0  -0.751138  0  2.082919  0  0  -0.692473  0  2.326748  0  0  -0.731144  0  2.314554  0  0  -0.371151  -0.673466  0  2.332765  0
O  O83  1  0.65334600  0.15834079  0.86040266  1  0  -0.751154  0  2.082875  0  0  -0.692487  0  2.326716  0  0  -0.73116  0  2.314525  0  0  -0.371108  -0.673482  0  2.332733  0
O  O84  1  0.01036388  0.18020643  0.93099886  1  0  -0.892338  0  1.866324  0  0  -0.85112  0  2.068185  0  0  -0.879061  0  2.028526  0  0  -0.633735  -0.838601  0  2.088681  0
O  O85  1  0.98963634  0.81978433  0.06899896  1  0  -0.892271  0  1.866295  0  0  -0.85107  0  2.068207  0  0  -0.87901  0  2.028551  0  0  -0.633637  -0.838551  0  2.088662  0
O  O86  1  0.11914536  0.36620013  0.77749193  1  0  -0.643282  0  1.936216  0  0  -0.593591  0  2.163572  0  0  -0.626306  0  2.155747  0  0  -0.339494  -0.576603  0  2.167655  0
O  O87  1  0.88085463  0.63380280  0.22250310  1  0  -0.643213  0  1.936288  0  0  -0.593578  0  2.163608  0  0  -0.626295  0  2.155793  0  0  -0.339517  -0.576588  0  2.167691  0
