# generated using pymatgen
data_NiH34C28(NO2)4
_symmetry_space_group_name_H-M   'P 1'
_cell_length_a   8.03947992
_cell_length_b   8.60748897
_cell_length_c   10.19287627
_cell_angle_alpha   95.99943153
_cell_angle_beta   97.32278895
_cell_angle_gamma   100.19329797
_symmetry_Int_Tables_number   1
_chemical_formula_structural   NiH34C28(NO2)4
_chemical_formula_sum   'Ni1 H34 C28 N4 O8'
_cell_volume   682.69048586
_cell_formula_units_Z   1
loop_
 _symmetry_equiv_pos_site_id
 _symmetry_equiv_pos_as_xyz
  1  'x, y, z'
loop_
 _atom_site_type_symbol
 _atom_site_label
 _atom_site_symmetry_multiplicity
 _atom_site_fract_x
 _atom_site_fract_y
 _atom_site_fract_z
 _atom_site_occupancy
 _atom_site_pbe_bader_spin_density
 _atom_site_pbe_cm5_charge
 _atom_site_pbe_ddec_charge
 _atom_site_pbe_ddec_spin_density
 _atom_site_pbe_ddec_sum_bond_order
 _atom_site_pbe_magmom
Ni  Ni0  1  0.99993534  0.00050252  0.00000252  1  0  0.601545  0.481159  0  2.843291  0
H  H1  1  0.45458748  0.96988614  0.02101038  1  0  0.277756  0.375364  0  0.963827  0
H  H2  1  0.68317716  0.02884075  0.91855011  1  0  0.307969  0.377795  0  0.924931  0
H  H3  1  0.27719009  0.89044739  0.94200980  1  0  0.274314  0.353201  0  1.010321  0
H  H4  1  0.71384046  0.09925830  0.07125440  1  0  0.281929  0.360456  0  1.003908  0
H  H5  1  0.37496329  0.70297549  0.06033922  1  0  0.294312  0.279228  0  1.012867  0
H  H6  1  0.61923880  0.30028419  0.94504311  1  0  0.301379  0.278162  0  0.9958  0
H  H7  1  0.26455625  0.27384669  0.11921690  1  0  0.124915  0.124431  0  1.032907  0
H  H8  1  0.73343399  0.72387240  0.88128313  1  0  0.120082  0.112888  0  1.0518  0
H  H9  1  0.88669788  0.16548815  0.78597685  1  0  0.114035  0.0871  0  1.041273  0
H  H10  1  0.11964041  0.83643387  0.20851546  1  0  0.12158  0.103386  0  1.020157  0
H  H11  1  0.96540238  0.43690727  0.71977841  1  0  0.103445  0.106055  0  1.05379  0
H  H12  1  0.03791939  0.56683578  0.28070595  1  0  0.104412  0.107248  0  1.051534  0
H  H13  1  0.20214877  0.63404790  0.86113731  1  0  0.115816  0.131218  0  1.013816  0
H  H14  1  0.79860943  0.36927583  0.14340089  1  0  0.115059  0.129893  0  1.012245  0
H  H15  1  0.58141185  0.82327565  0.20505861  1  0  0.099657  0.118259  0  0.99777  0
H  H16  1  0.41648881  0.17616036  0.79827289  1  0  0.098164  0.116513  0  0.99849  0
H  H17  1  0.69439351  0.71906340  0.31639124  1  0  0.094393  0.108684  0  1.010668  0
H  H18  1  0.30381370  0.28070306  0.68733009  1  0  0.096198  0.113729  0  1.004593  0
H  H19  1  0.33737265  0.78102379  0.35132191  1  0  0.087681  0.078234  0  1.001435  0
H  H20  1  0.65960181  0.21722338  0.64957315  1  0  0.084515  0.073092  0  1.007095  0
H  H21  1  0.48475627  0.72151688  0.46913720  1  0  0.091285  0.084357  0  0.997394  0
H  H22  1  0.51186847  0.27825668  0.53348772  1  0  0.094235  0.090148  0  0.993812  0
H  H23  1  0.68110165  0.99102184  0.47755205  1  0  0.083029  0.072176  0  1.007956  0
H  H24  1  0.31416969  0.01005395  0.52300880  1  0  0.084711  0.076238  0  1.002899  0
H  H25  1  0.52705525  0.04488037  0.36169260  1  0  0.093115  0.098225  0  0.970242  0
H  H26  1  0.46589923  0.95322404  0.63854952  1  0  0.089345  0.089938  0  0.979346  0
H  H27  1  0.99167035  0.09799006  0.45852466  1  0  0.102183  0.116332  0  1.01022  0
H  H28  1  0.00067709  0.90333532  0.54149192  1  0  0.102514  0.117381  0  1.007882  0
H  H29  1  0.18668314  0.18476658  0.40741020  1  0  0.10811  0.134523  0  0.984227  0
H  H30  1  0.80506149  0.81553849  0.59097056  1  0  0.105569  0.13091  0  0.990354  0
H  H31  1  0.74547445  0.28699248  0.41078885  1  0  0.103672  0.109752  0  1.035499  0
H  H32  1  0.24754964  0.71444083  0.58902528  1  0  0.103069  0.10883  0  1.036753  0
H  H33  1  0.70213424  0.55074691  0.50245680  1  0  0.102221  0.106681  0  1.025582  0
H  H34  1  0.29097098  0.45036308  0.49764765  1  0  0.102765  0.107423  0  1.022625  0
C  C35  1  0.24810396  0.47132933  0.00474126  1  0  0.109579  0.219288  0  4.022071  0
C  C36  1  0.75113352  0.52971044  0.99809527  1  0  0.107267  0.216755  0  4.025278  0
C  C37  1  0.20071298  0.31419480  0.03253445  1  0  0.038617  -0.02719  0  3.824406  0
C  C38  1  0.79815434  0.68588505  0.96872308  1  0  0.035236  -0.032885  0  3.847383  0
C  C39  1  0.98879464  0.25438651  0.84512293  1  0  0.025754  0.033035  0  3.962268  0
C  C40  1  0.01361995  0.74787961  0.15384066  1  0  0.033538  0.052172  0  3.918218  0
C  C41  1  0.03374525  0.40571871  0.80943131  1  0  -0.08575  -0.105676  0  4.023489  0
C  C42  1  0.96821362  0.59739255  0.19138586  1  0  -0.084102  -0.108083  0  4.01535  0
C  C43  1  0.16446436  0.51528826  0.88855851  1  0  -0.070808  -0.12751  0  3.889407  0
C  C44  1  0.83591995  0.48728081  0.11436187  1  0  -0.070207  -0.127782  0  3.898448  0
C  C45  1  0.46593199  0.57609196  0.20556147  1  0  0.238807  0.532909  0  4.070003  0
C  C46  1  0.53336331  0.42318185  0.79657554  1  0  0.239768  0.53481  0  4.06505  0
C  C47  1  0.56638169  0.73559219  0.27566285  1  0  -0.16699  -0.300801  0  3.922576  0
C  C48  1  0.43190292  0.26368634  0.72743487  1  0  -0.166  -0.30392  0  3.924368  0
C  C49  1  0.47490515  0.79660147  0.38844654  1  0  -0.16077  -0.119681  0  3.930002  0
C  C50  1  0.52174497  0.20243945  0.61360766  1  0  -0.162284  -0.124306  0  3.934107  0
C  C51  1  0.54231239  0.97150572  0.44317884  1  0  -0.166515  -0.147789  0  3.944125  0
C  C52  1  0.45271293  0.02803217  0.55773848  1  0  -0.166969  -0.14716  0  3.949726  0
C  C53  1  0.96786826  0.12597569  0.25436530  1  0  0.223424  0.619556  0  4.106917  0
C  C54  1  0.02331056  0.87468374  0.74531837  1  0  0.221456  0.626553  0  4.098217  0
C  C55  1  0.04971112  0.18597914  0.39813730  1  0  -0.155578  -0.337271  0  3.928699  0
C  C56  1  0.94219947  0.81504321  0.60147790  1  0  -0.155304  -0.337107  0  3.928338  0
C  C57  1  0.02089054  0.34849617  0.44932162  1  0  -0.015696  0.121308  0  3.979213  0
C  C58  1  0.97205220  0.65277745  0.55060151  1  0  -0.014913  0.122565  0  3.975698  0
C  C59  1  0.85590518  0.37983975  0.45101461  1  0  -0.095204  -0.143401  0  3.990538  0
C  C60  1  0.13713767  0.62146551  0.54896463  1  0  -0.095265  -0.144514  0  3.991381  0
C  C61  1  0.83191749  0.52983486  0.50139511  1  0  -0.092978  -0.144975  0  3.995735  0
C  C62  1  0.16116652  0.47136340  0.49867640  1  0  -0.093388  -0.146135  0  3.993977  0
N  N63  1  0.07195438  0.20946901  0.95422712  1  0  -0.340047  -0.153523  0  3.687713  0
N  N64  1  0.92785526  0.79142141  0.04530688  1  0  -0.338647  -0.148515  0  3.67325  0
N  N65  1  0.37008604  0.58796855  0.08647861  1  0  -0.401463  -0.39725  0  3.578436  0
N  N66  1  0.62757409  0.41295073  0.91715437  1  0  -0.401723  -0.394845  0  3.581896  0
O  O67  1  0.46654248  0.44988269  0.25395194  1  0  -0.301277  -0.487797  0  2.066379  0
O  O68  1  0.53597856  0.54840866  0.74643711  1  0  -0.298861  -0.483273  0  2.070157  0
O  O69  1  0.07244652  0.07894700  0.17945770  1  0  -0.293911  -0.467587  0  2.484739  0
O  O70  1  0.91886503  0.92371538  0.82085958  1  0  -0.30992  -0.502463  0  2.480107  0
O  O71  1  0.81209902  0.12336509  0.21890979  1  0  -0.298105  -0.533944  0  2.231049  0
O  O72  1  0.17760747  0.87616468  0.78226018  1  0  -0.294849  -0.530166  0  2.212175  0
O  O73  1  0.34973940  0.89359739  0.02940287  1  0  -0.600271  -0.774129  0  2.009957  0
O  O74  1  0.63547694  0.09296573  0.98335730  1  0  -0.560627  -0.738281  0  2.048396  0
