# generated using pymatgen
data_GaH5C4O7
_symmetry_space_group_name_H-M   'P 1'
_cell_length_a   8.69490014
_cell_length_b   10.64782151
_cell_length_c   10.64755810
_cell_angle_alpha   60.17446643
_cell_angle_beta   65.95144179
_cell_angle_gamma   65.95192920
_symmetry_Int_Tables_number   1
_chemical_formula_structural   GaH5C4O7
_chemical_formula_sum   'Ga4 H20 C16 O28'
_cell_volume   754.41577311
_cell_formula_units_Z   4
loop_
 _symmetry_equiv_pos_site_id
 _symmetry_equiv_pos_as_xyz
  1  'x, y, z'
loop_
 _atom_site_type_symbol
 _atom_site_label
 _atom_site_symmetry_multiplicity
 _atom_site_fract_x
 _atom_site_fract_y
 _atom_site_fract_z
 _atom_site_occupancy
 _atom_site_hle17_bader_spin_density
 _atom_site_hle17_ddec_charge
 _atom_site_hle17_ddec_spin_density
 _atom_site_hle17_ddec_sum_bond_order
 _atom_site_hle17_magmom
 _atom_site_hse06_10hf_bader_spin_density
 _atom_site_hse06_10hf_ddec_charge
 _atom_site_hse06_10hf_ddec_spin_density
 _atom_site_hse06_10hf_ddec_sum_bond_order
 _atom_site_hse06_10hf_magmom
 _atom_site_hse06_bader_spin_density
 _atom_site_hse06_ddec_charge
 _atom_site_hse06_ddec_spin_density
 _atom_site_hse06_ddec_sum_bond_order
 _atom_site_hse06_magmom
 _atom_site_pbe_bader_spin_density
 _atom_site_pbe_cm5_charge
 _atom_site_pbe_ddec_charge
 _atom_site_pbe_ddec_spin_density
 _atom_site_pbe_ddec_sum_bond_order
 _atom_site_pbe_magmom
Ga  Ga0  1  0.90791647  0.09205046  0.09206457  1  0  1.554125  0  2.340416  0  0  1.400901  0  2.770478  0  0  1.454842  0  2.720814  0  0  0.564062  1.363566  0  2.804073  0
Ga  Ga1  1  0.59209233  0.40793152  0.40794554  1  0  1.554132  0  2.340318  0  0  1.400835  0  2.770391  0  0  1.454779  0  2.720728  0  0  0.564081  1.363499  0  2.803985  0
Ga  Ga2  1  0.09208860  0.90794727  0.90792349  1  0  1.553966  0  2.34057  0  0  1.400695  0  2.770644  0  0  1.454637  0  2.720987  0  0  0.563953  1.363355  0  2.804239  0
Ga  Ga3  1  0.40791908  0.59205923  0.59206157  1  0  1.554174  0  2.340455  0  0  1.40087  0  2.770549  0  0  1.454812  0  2.720886  0  0  0.564063  1.363535  0  2.804141  0
H  H4  1  0.68244708  0.99441709  0.35448511  1  0  0.407462  0  0.898064  0  0  0.373313  0  0.974591  0  0  0.386478  0  0.956097  0  0  0.308806  0.363609  0  0.988214  0
H  H5  1  0.96861446  0.35439975  0.99449880  1  0  0.408106  0  0.89662  0  0  0.374147  0  0.973312  0  0  0.387298  0  0.954808  0  0  0.309161  0.364461  0  0.986859  0
H  H6  1  0.81754045  0.14549971  0.50558690  1  0  0.407494  0  0.898087  0  0  0.373287  0  0.974665  0  0  0.386457  0  0.956161  0  0  0.308736  0.363575  0  0.988303  0
H  H7  1  0.53138831  0.50550490  0.14559528  1  0  0.408039  0  0.896788  0  0  0.374124  0  0.973355  0  0  0.387273  0  0.954852  0  0  0.309154  0.364438  0  0.986935  0
H  H8  1  0.31754810  0.00559597  0.64550058  1  0  0.407471  0  0.89809  0  0  0.373249  0  0.974698  0  0  0.386421  0  0.95619  0  0  0.308723  0.363535  0  0.988336  0
H  H9  1  0.03138683  0.64559183  0.00550718  1  0  0.408184  0  0.896628  0  0  0.374278  0  0.973143  0  0  0.387426  0  0.954643  0  0  0.30923  0.36459  0  0.986728  0
H  H10  1  0.18243903  0.85448184  0.49442139  1  0  0.407457  0  0.898122  0  0  0.373302  0  0.974625  0  0  0.386467  0  0.956129  0  0  0.308807  0.363597  0  0.988248  0
H  H11  1  0.46861881  0.49451184  0.85440602  1  0  0.408121  0  0.896574  0  0  0.374124  0  0.97335  0  0  0.387269  0  0.954854  0  0  0.30919  0.364439  0  0.986918  0
H  H12  1  0.10918619  0.17447074  0.82574810  1  0  0.447641  0  0.806303  0  0  0.428916  0  0.854715  0  0  0.438734  0  0.840691  0  0  0.335114  0.421733  0  0.865081  0
H  H13  1  0.89082498  0.82553402  0.17424102  1  0  0.447599  0  0.806104  0  0  0.428878  0  0.854705  0  0  0.438697  0  0.840678  0  0  0.33507  0.421695  0  0.865074  0
H  H14  1  0.39082871  0.67423571  0.32553341  1  0  0.447633  0  0.80603  0  0  0.42889  0  0.854689  0  0  0.438712  0  0.840655  0  0  0.335083  0.421703  0  0.865065  0
H  H15  1  0.60919944  0.32576483  0.67447362  1  0  0.44749  0  0.806296  0  0  0.428779  0  0.854852  0  0  0.438598  0  0.840828  0  0  0.335046  0.421596  0  0.86522  0
H  H16  1  0.44210731  0.12255795  0.25355871  1  0  0.097995  0  0.909353  0  0  0.101697  0  0.973118  0  0  0.104584  0  0.970774  0  0  0.126011  0.099466  0  0.975047  0
H  H17  1  0.18127051  0.25394240  0.12294733  1  0  0.098568  0  0.908103  0  0  0.102697  0  0.972166  0  0  0.105707  0  0.969742  0  0  0.12618  0.100435  0  0.974013  0
H  H18  1  0.05788784  0.24641901  0.37746402  1  0  0.097973  0  0.909282  0  0  0.101675  0  0.973056  0  0  0.104578  0  0.970699  0  0  0.125928  0.099438  0  0.974985  0
H  H19  1  0.31873243  0.37707321  0.24601915  1  0  0.098426  0  0.908146  0  0  0.102611  0  0.972269  0  0  0.105623  0  0.969845  0  0  0.126112  0.100347  0  0.97412  0
H  H20  1  0.55789091  0.87747039  0.74642238  1  0  0.098024  0  0.909605  0  0  0.1018  0  0.973293  0  0  0.104703  0  0.970938  0  0  0.126027  0.099563  0  0.97522  0
H  H21  1  0.81872226  0.74603415  0.87707441  1  0  0.098384  0  0.908138  0  0  0.102678  0  0.972194  0  0  0.105692  0  0.96977  0  0  0.126132  0.100416  0  0.974042  0
H  H22  1  0.94210652  0.75355067  0.62255443  1  0  0.097925  0  0.909468  0  0  0.101658  0  0.97315  0  0  0.10455  0  0.970808  0  0  0.125994  0.099425  0  0.975077  0
H  H23  1  0.68127231  0.62295082  0.75396421  1  0  0.098422  0  0.908182  0  0  0.102584  0  0.972271  0  0  0.105594  0  0.96985  0  0  0.12613  0.100321  0  0.974119  0
C  C24  1  0.53300327  0.18972526  0.21630073  1  0  0.062671  0  3.610807  0  0  0.033826  0  3.86371  0  0  0.036038  0  3.869499  0  0  0.010383  0.03208  0  3.860217  0
C  C25  1  0.06052353  0.21663471  0.19006788  1  0  0.063881  0  3.607988  0  0  0.032742  0  3.863329  0  0  0.034539  0  3.869502  0  0  0.011011  0.03131  0  3.859465  0
C  C26  1  0.96700130  0.28368077  0.31028343  1  0  0.062807  0  3.611088  0  0  0.033911  0  3.863891  0  0  0.036086  0  3.869715  0  0  0.010515  0.032189  0  3.860376  0
C  C27  1  0.43947686  0.30994395  0.28334033  1  0  0.064349  0  3.607762  0  0  0.032854  0  3.863502  0  0  0.034637  0  3.869677  0  0  0.011094  0.031431  0  3.859639  0
C  C28  1  0.46700556  0.81029728  0.78369159  1  0  0.062519  0  3.611076  0  0  0.033584  0  3.863886  0  0  0.035755  0  3.86971  0  0  0.010297  0.031858  0  3.860369  0
C  C29  1  0.93947776  0.78333511  0.80993493  1  0  0.06447  0  3.607757  0  0  0.032685  0  3.863878  0  0  0.034469  0  3.870066  0  0  0.011051  0.031259  0  3.860007  0
C  C30  1  0.03298962  0.71631531  0.68972922  1  0  0.06258  0  3.611397  0  0  0.033867  0  3.864072  0  0  0.036052  0  3.869886  0  0  0.010378  0.032131  0  3.860572  0
C  C31  1  0.56052719  0.69007012  0.71664200  1  0  0.064333  0  3.607601  0  0  0.033027  0  3.863219  0  0  0.034819  0  3.8694  0  0  0.011203  0.031596  0  3.859351  0
C  C32  1  0.57849692  0.26926247  0.04527418  1  0  0.657129  0  3.823364  0  0  0.600881  0  4.13409  0  0  0.634671  0  4.125506  0  0  0.235107  0.577879  0  4.13941  0
C  C33  1  0.10641281  0.04561170  0.26964344  1  0  0.658597  0  3.821189  0  0  0.602571  0  4.132445  0  0  0.636381  0  4.123927  0  0  0.236156  0.579485  0  4.137829  0
C  C34  1  0.92150163  0.45470584  0.23074259  1  0  0.657086  0  3.823387  0  0  0.600772  0  4.134181  0  0  0.634571  0  4.125601  0  0  0.23501  0.577769  0  4.139489  0
C  C35  1  0.39357974  0.23036497  0.45436935  1  0  0.658053  0  3.821592  0  0  0.602263  0  4.132599  0  0  0.636069  0  4.124088  0  0  0.236054  0.579181  0  4.137973  0
C  C36  1  0.42150099  0.73075954  0.95470920  1  0  0.656874  0  3.823297  0  0  0.600596  0  4.134148  0  0  0.634401  0  4.125562  0  0  0.235  0.577593  0  4.139457  0
C  C37  1  0.89357434  0.95436866  0.73036822  1  0  0.658239  0  3.821208  0  0  0.602382  0  4.132476  0  0  0.636188  0  4.123964  0  0  0.236081  0.579308  0  4.137836  0
C  C38  1  0.07849400  0.54527602  0.76927464  1  0  0.65719  0  3.823454  0  0  0.600977  0  4.133973  0  0  0.63479  0  4.125364  0  0  0.235239  0.577964  0  4.139308  0
C  C39  1  0.60641457  0.76964633  0.54562194  1  0  0.658371  0  3.821548  0  0  0.602358  0  4.132799  0  0  0.636168  0  4.124281  0  0  0.236082  0.57928  0  4.13817  0
O  O40  1  0.68937781  0.09719354  0.26165875  1  0  -0.588865  0  2.266838  0  0  -0.521793  0  2.511763  0  0  -0.542907  0  2.496621  0  0  -0.336441  -0.507057  0  2.522679  0
O  O41  1  0.95136009  0.26191555  0.09744631  1  0  -0.590353  0  2.264936  0  0  -0.52308  0  2.510608  0  0  -0.543968  0  2.495526  0  0  -0.336971  -0.508335  0  2.521277  0
O  O42  1  0.81062249  0.23833005  0.40281113  1  0  -0.588892  0  2.266978  0  0  -0.521741  0  2.511823  0  0  -0.542851  0  2.496695  0  0  -0.336357  -0.507011  0  2.522734  0
O  O43  1  0.54864666  0.40255820  0.23806574  1  0  -0.590353  0  2.264976  0  0  -0.523004  0  2.510689  0  0  -0.543885  0  2.495609  0  0  -0.336936  -0.508265  0  2.521385  0
O  O44  1  0.31063127  0.90281264  0.73832589  1  0  -0.588905  0  2.266867  0  0  -0.521669  0  2.51169  0  0  -0.542785  0  2.496571  0  0  -0.336339  -0.506918  0  2.522585  0
O  O45  1  0.04863427  0.73807539  0.90255967  1  0  -0.590496  0  2.264751  0  0  -0.523119  0  2.510598  0  0  -0.543998  0  2.495519  0  0  -0.337047  -0.508384  0  2.521297  0
O  O46  1  0.18938199  0.76165326  0.59719492  1  0  -0.588824  0  2.266882  0  0  -0.521774  0  2.51173  0  0  -0.54289  0  2.496613  0  0  -0.336437  -0.507039  0  2.522639  0
O  O47  1  0.45134925  0.59746076  0.76193218  1  0  -0.590333  0  2.264886  0  0  -0.523018  0  2.510669  0  0  -0.543898  0  2.495594  0  0  -0.336984  -0.508276  0  2.521346  0
O  O48  1  0.73840765  0.24199151  0.97194379  1  0  -0.599082  0  2.025367  0  0  -0.540412  0  2.26913  0  0  -0.566211  0  2.256319  0  0  -0.259204  -0.522687  0  2.277448  0
O  O49  1  0.04721279  0.97215436  0.24227050  1  0  -0.600071  0  2.025114  0  0  -0.541246  0  2.268597  0  0  -0.566983  0  2.255773  0  0  -0.260216  -0.523479  0  2.277033  0
O  O50  1  0.76160766  0.52805189  0.25800390  1  0  -0.599076  0  2.025532  0  0  -0.540322  0  2.26925  0  0  -0.56612  0  2.256441  0  0  -0.259148  -0.5226  0  2.277567  0
O  O51  1  0.45276138  0.25775430  0.52783201  1  0  -0.599941  0  2.025195  0  0  -0.541163  0  2.268556  0  0  -0.566899  0  2.255737  0  0  -0.260253  -0.523395  0  2.276986  0
O  O52  1  0.26159548  0.75801989  0.02804191  1  0  -0.598807  0  2.02547  0  0  -0.540168  0  2.269276  0  0  -0.56597  0  2.256471  0  0  -0.25909  -0.522445  0  2.277591  0
O  O53  1  0.95277316  0.02783960  0.75772875  1  0  -0.59997  0  2.025128  0  0  -0.541184  0  2.268593  0  0  -0.56692  0  2.255775  0  0  -0.260199  -0.523419  0  2.277021  0
O  O54  1  0.23840318  0.47193485  0.74201888  1  0  -0.599216  0  2.025563  0  0  -0.540413  0  2.269105  0  0  -0.566219  0  2.256289  0  0  -0.259273  -0.522687  0  2.277432  0
O  O55  1  0.54722580  0.74225413  0.47216824  1  0  -0.600098  0  2.025257  0  0  -0.541206  0  2.26867  0  0  -0.566941  0  2.25585  0  0  -0.260274  -0.523441  0  2.2771  0
O  O56  1  0.45377099  0.36018408  0.98818587  1  0  -0.566882  0  2.007621  0  0  -0.522877  0  2.238497  0  0  -0.546602  0  2.22665  0  0  -0.294645  -0.505796  0  2.24613  0
O  O57  1  0.19713933  0.98861010  0.36071469  1  0  -0.566705  0  2.007419  0  0  -0.522396  0  2.237737  0  0  -0.546075  0  2.225893  0  0  -0.294182  -0.505378  0  2.245741  0
O  O58  1  0.04623499  0.51179832  0.13981243  1  0  -0.566923  0  2.007516  0  0  -0.522937  0  2.238333  0  0  -0.546668  0  2.226486  0  0  -0.294614  -0.505853  0  2.245966  0
O  O59  1  0.30284617  0.13930600  0.51136252  1  0  -0.566537  0  2.007608  0  0  -0.522232  0  2.237782  0  0  -0.545913  0  2.225941  0  0  -0.294054  -0.505215  0  2.245788  0
O  O60  1  0.54623151  0.63984005  0.01180420  1  0  -0.566788  0  2.007291  0  0  -0.522824  0  2.238115  0  0  -0.546555  0  2.226265  0  0  -0.294658  -0.505744  0  2.24575  0
O  O61  1  0.80285103  0.01136517  0.63930148  1  0  -0.566641  0  2.007586  0  0  -0.522287  0  2.237811  0  0  -0.545967  0  2.225969  0  0  -0.29409  -0.50527  0  2.245811  0
O  O62  1  0.95377357  0.48818166  0.86019253  1  0  -0.566844  0  2.007782  0  0  -0.522946  0  2.238653  0  0  -0.54668  0  2.226791  0  0  -0.294669  -0.505861  0  2.24629  0
O  O63  1  0.69715355  0.86070053  0.48861876  1  0  -0.566647  0  2.007563  0  0  -0.522322  0  2.237851  0  0  -0.546002  0  2.226007  0  0  -0.294119  -0.505309  0  2.245851  0
O  O64  1  0.10511088  0.08337007  0.91679290  1  0  -0.944293  0  1.817911  0  0  -0.879875  0  2.055734  0  0  -0.906496  0  2.024837  0  0  -0.480377  -0.861283  0  2.076952  0
O  O65  1  0.89488929  0.91663737  0.08319731  1  0  -0.944156  0  1.817706  0  0  -0.879769  0  2.055708  0  0  -0.906394  0  2.02483  0  0  -0.480286  -0.861178  0  2.076919  0
O  O66  1  0.39489207  0.58319796  0.41664250  1  0  -0.944216  0  1.817639  0  0  -0.879797  0  2.05566  0  0  -0.906422  0  2.02478  0  0  -0.48032  -0.861202  0  2.076877  0
O  O67  1  0.60510432  0.41680880  0.58337229  1  0  -0.944047  0  1.817873  0  0  -0.879716  0  2.055927  0  0  -0.906342  0  2.025038  0  0  -0.480271  -0.861123  0  2.077141  0
