# generated using pymatgen
data_CuH17C22I(NO)4
_symmetry_space_group_name_H-M   'P 1'
_cell_length_a   9.37359892
_cell_length_b   9.81688827
_cell_length_c   13.26991789
_cell_angle_alpha   79.32686442
_cell_angle_beta   78.90165348
_cell_angle_gamma   64.28632131
_symmetry_Int_Tables_number   1
_chemical_formula_structural   CuH17C22I(NO)4
_chemical_formula_sum   'Cu2 H34 C44 I2 N8 O8'
_cell_volume   1072.43196620
_cell_formula_units_Z   2
loop_
 _symmetry_equiv_pos_site_id
 _symmetry_equiv_pos_as_xyz
  1  'x, y, z'
loop_
 _atom_site_type_symbol
 _atom_site_label
 _atom_site_symmetry_multiplicity
 _atom_site_fract_x
 _atom_site_fract_y
 _atom_site_fract_z
 _atom_site_occupancy
 _atom_site_pbe_cm5_charge
 _atom_site_pbe_ddec_charge
 _atom_site_pbe_ddec_spin_density
 _atom_site_pbe_ddec_sum_bond_order
 _atom_site_pbe_magmom
Cu  Cu0  1  0.17992408  0.34319960  0.60757629  1  0.747103  0.834875  -0.769032  2.229032  -0.593
Cu  Cu1  1  0.82007076  0.65680237  0.39242004  1  0.747127  0.834908  0.769036  2.229024  0.593
H  H2  1  0.95977685  0.65032645  0.80890197  1  0.101583  0.110952  -0.000203  1.044497  0.0
H  H3  1  0.04022327  0.34967328  0.19108791  1  0.101586  0.110914  0.000203  1.044524  0.0
H  H4  1  0.54146796  0.05828203  0.88480811  1  0.087564  0.084684  -3.5e-05  1.090995  0.0
H  H5  1  0.45852676  0.94171536  0.11519114  1  0.087555  0.084676  3.5e-05  1.091033  0.0
H  H6  1  0.66302832  0.93117863  0.57554833  1  0.107364  0.118922  -0.000203  1.01715  0.0
H  H7  1  0.33697061  0.06883368  0.42444448  1  0.107286  0.118766  0.000203  1.017194  0.0
H  H8  1  0.17788406  0.64436729  0.46052170  1  0.118915  0.128786  -0.000466  1.033074  0.0
H  H9  1  0.82211572  0.35563588  0.53947829  1  0.118926  0.128807  0.000466  1.033047  0.0
H  H10  1  0.45283035  0.62635248  0.32283360  1  0.122037  0.140292  -0.000518  1.036106  -0.001
H  H11  1  0.54717047  0.37364843  0.67716958  1  0.122059  0.14035  0.000518  1.036108  0.001
H  H12  1  0.52169658  0.18901577  0.47702910  1  0.137666  0.111974  3.5e-05  1.009973  0.0
H  H13  1  0.47829948  0.81098851  0.52297427  1  0.137673  0.111987  -3.5e-05  1.009978  0.0
H  H14  1  0.75274376  0.21267394  0.35980278  1  0.120785  0.110584  -1.2e-05  0.948624  0.0
H  H15  1  0.24725276  0.78732692  0.64020327  1  0.120785  0.110483  1.2e-05  0.94867  0.0
H  H16  1  0.75212840  0.39680730  0.33285976  1  0.116163  0.114316  -0.000212  1.017033  0.0
H  H17  1  0.24787345  0.60319134  0.66714660  1  0.116158  0.114209  0.000212  1.017133  0.0
H  H18  1  0.56812107  0.17562633  0.23736189  1  0.096711  0.099006  1.9e-05  1.036236  0.0
H  H19  1  0.43188242  0.82437347  0.76264182  1  0.09669  0.098945  -1.9e-05  1.03623  0.0
H  H20  1  0.56366266  0.17518778  0.05157305  1  0.087211  0.081748  -1e-05  1.067782  0.0
H  H21  1  0.43634459  0.82481092  0.94843104  1  0.087218  0.081808  1e-05  1.067654  0.0
H  H22  1  0.78412812  0.49176099  0.97359881  1  0.088273  0.083184  6e-06  1.050225  0.0
H  H23  1  0.21587597  0.50823996  0.02640691  1  0.088285  0.083134  -6e-06  1.050154  0.0
H  H24  1  0.78451083  0.49519379  0.15965474  1  0.098886  0.110421  1.9e-05  1.027099  0.0
H  H25  1  0.21549377  0.50480603  0.84035182  1  0.098861  0.110375  -1.9e-05  1.027181  0.0
H  H26  1  0.60811004  0.26687012  0.87515993  1  0.112876  0.107063  -8.4e-05  0.988931  0.0
H  H27  1  0.39188871  0.73313306  0.12484548  1  0.112829  0.107012  8.4e-05  0.988954  0.0
H  H28  1  0.60687162  0.45022083  0.85153017  1  0.112226  0.098367  -3.3e-05  1.009711  0.0
H  H29  1  0.39313397  0.54977671  0.14847431  1  0.112193  0.098293  3.3e-05  1.009789  0.0
H  H30  1  0.83912922  0.48457012  0.74880145  1  0.133482  0.103657  -0.000188  1.028118  0.0
H  H31  1  0.16087301  0.51542507  0.25119856  1  0.133499  0.103684  0.000188  1.028014  0.0
H  H32  1  0.17756149  0.03159038  0.73207990  1  0.113784  0.111165  -0.000259  1.040639  -0.001
H  H33  1  0.82243749  0.96840477  0.26791982  1  0.113803  0.111194  0.000259  1.040664  0.001
H  H34  1  0.91269713  0.03243328  0.87103475  1  0.109199  0.108927  -0.000437  1.06001  -0.001
H  H35  1  0.08730579  0.96756536  0.12896920  1  0.109168  0.108872  0.000438  1.059974  0.001
C  C36  1  0.85571108  0.75143531  0.78719247  1  -0.095798  -0.144657  -0.00029  3.975088  0.0
C  C37  1  0.14428695  0.24856669  0.21279813  1  -0.095816  -0.144584  0.000291  3.975103  0.0
C  C38  1  0.75416106  0.84994200  0.85898871  1  -0.054818  0.039389  -0.000646  3.959494  -0.001
C  C39  1  0.24583959  0.15005659  0.14100426  1  -0.054946  0.039236  0.000645  3.959707  0.001
C  C40  1  0.62168638  0.97963943  0.82985494  1  -0.09704  -0.148015  -0.000625  3.995235  -0.001
C  C41  1  0.37830998  0.02035912  0.17014166  1  -0.097009  -0.148013  0.000625  3.99523  0.001
C  C42  1  0.58661531  0.00835963  0.72794072  1  -0.015774  -0.002974  -0.007687  3.952883  -0.009
C  C43  1  0.41338272  0.99164009  0.27205774  1  -0.015814  -0.003088  0.007685  3.952895  0.009
C  C44  1  0.68795896  0.91052149  0.65519110  1  -0.080927  -0.123706  -0.000766  3.928285  -0.001
C  C45  1  0.31203671  0.08949078  0.34480141  1  -0.080773  -0.123427  0.000766  3.928077  0.001
C  C46  1  0.82403103  0.78378158  0.68426204  1  -0.0172  -0.014474  -0.006183  3.949401  -0.007
C  C47  1  0.17596131  0.21622835  0.31572901  1  -0.017155  -0.014338  0.006182  3.949285  0.007
C  C48  1  0.93631956  0.68038205  0.60509919  1  0.207383  0.583706  -0.002978  4.20452  -0.001
C  C49  1  0.06367975  0.31962683  0.39488876  1  0.207398  0.583638  0.002979  4.204777  0.001
C  C50  1  0.43867926  0.14633761  0.70098858  1  0.191977  0.544755  0.0001  4.245791  0.003
C  C51  1  0.56131675  0.85366666  0.29900953  1  0.192121  0.544946  -0.0001  4.245519  -0.003
C  C52  1  0.29090076  0.54843603  0.44445112  1  -0.005746  -0.033612  -0.001707  3.977092  -0.002
C  C53  1  0.70910070  0.45156832  0.55555149  1  -0.005739  -0.033562  0.001707  3.977112  0.002
C  C54  1  0.42233709  0.54095893  0.37484271  1  -0.002722  -0.106515  -0.002354  3.88849  -0.002
C  C55  1  0.57766597  0.45904429  0.62516133  1  -0.002809  -0.106794  0.002354  3.888606  0.002
C  C56  1  0.46354891  0.31045631  0.45495319  1  0.137831  0.081458  0.000312  3.923821  0.0
C  C57  1  0.53645195  0.68954688  0.54504665  1  0.137785  0.08133  -0.000312  3.923863  0.0
C  C58  1  0.68888863  0.32924982  0.32385094  1  -0.044902  -0.114088  -0.00094  3.877656  -0.001
C  C59  1  0.31111380  0.67074997  0.67615518  1  -0.044961  -0.113943  0.00094  3.877478  0.001
C  C60  1  0.68272632  0.33087911  0.21077657  1  -0.015085  0.086496  -7.3e-05  3.968568  0.0
C  C61  1  0.31727452  0.66912180  0.78922962  1  -0.015074  0.086515  7.3e-05  3.968376  0.0
C  C62  1  0.61762166  0.24363541  0.17953419  1  -0.096843  -0.133793  -9.2e-05  3.984504  0.0
C  C63  1  0.38238394  0.75636212  0.82047105  1  -0.096777  -0.133646  9.2e-05  3.984245  0.0
C  C64  1  0.61454077  0.24380436  0.07483603  1  -0.096566  -0.132327  -9.5e-05  4.003265  0.0
C  C65  1  0.38546642  0.75619205  0.92516989  1  -0.096581  -0.132446  9.5e-05  4.003229  0.0
C  C66  1  0.67634876  0.33105821  0.99962007  1  -0.016571  0.086384  -9.3e-05  3.975775  0.0
C  C67  1  0.32365901  0.66893936  0.00038636  1  -0.016751  0.086161  9.3e-05  3.975932  0.0
C  C68  1  0.73848358  0.42046195  0.03111026  1  -0.09806  -0.139263  -5.3e-05  4.027045  0.0
C  C69  1  0.26151733  0.57954125  0.96889484  1  -0.098  -0.139067  5.3e-05  4.026945  0.0
C  C70  1  0.74109758  0.42105488  0.13565373  1  -0.091004  -0.129586  -9.8e-05  3.980907  0.0
C  C71  1  0.25890016  0.57895057  0.86435226  1  -0.090927  -0.129557  9.8e-05  3.981024  0.0
C  C72  1  0.67154792  0.33318623  0.88629650  1  -0.045763  -0.10637  -0.000764  3.872448  -0.001
C  C73  1  0.32845718  0.66681245  0.11370865  1  -0.045635  -0.106103  0.000764  3.872329  0.001
C  C74  1  0.89740448  0.36182338  0.76219257  1  0.138331  0.08953  3.8e-05  3.920507  0.0
C  C75  1  0.10259667  0.63817180  0.23780760  1  0.13838  0.089611  -3.8e-05  3.920395  0.0
C  C76  1  0.06774398  0.12534099  0.75615495  1  -0.007635  -0.030319  -0.00104  3.992949  -0.001
C  C77  1  0.93225557  0.87465531  0.24384377  1  -0.007597  -0.030357  0.00104  3.992969  0.001
C  C78  1  0.93744086  0.12432639  0.82407913  1  -0.004542  -0.102766  -0.002315  3.920844  -0.003
C  C79  1  0.06256147  0.87567110  0.17592355  1  -0.004541  -0.102663  0.002316  3.920817  0.003
I  I80  1  0.79774823  0.80258916  0.01475289  1  0.14135  0.04707  -0.001103  1.663133  -0.001
I  I81  1  0.20225227  0.19740486  0.98523848  1  0.141397  0.047128  0.001103  1.663154  0.001
N  N82  1  0.31847089  0.40390488  0.49431007  1  -0.380147  -0.302088  -0.05343  3.654006  -0.067
N  N83  1  0.68152840  0.59609944  0.50569134  1  -0.380135  -0.302039  0.053426  3.654061  0.067
N  N84  1  0.52996122  0.39006779  0.38284170  1  -0.241889  0.048616  -0.001478  3.794198  -0.002
N  N85  1  0.47003916  0.60993654  0.61716030  1  -0.241791  0.048886  0.001479  3.793865  0.002
N  N86  1  0.04143483  0.27411634  0.71838897  1  -0.372934  -0.278007  -0.050632  3.617074  -0.064
N  N87  1  0.95856420  0.72588110  0.28160816  1  -0.372986  -0.278016  0.050638  3.617147  0.064
N  N88  1  0.83034112  0.27496213  0.82638228  1  -0.241877  0.043225  -0.001482  3.773463  -0.002
N  N89  1  0.16966222  0.72503308  0.17362059  1  -0.241923  0.043031  0.001482  3.773533  0.002
O  O90  1  0.04052542  0.55476309  0.64437256  1  -0.331063  -0.577875  -0.052569  2.424203  -0.073
O  O91  1  0.95946465  0.44524452  0.35561536  1  -0.331163  -0.577946  0.052573  2.424188  0.073
O  O92  1  0.92187921  0.72388879  0.51115832  1  -0.325755  -0.577267  0.001014  2.288986  0.002
O  O93  1  0.07812142  0.27612697  0.48883075  1  -0.325719  -0.577268  -0.001013  2.289209  -0.002
O  O94  1  0.39325355  0.26124322  0.74750430  1  -0.326073  -0.571216  -0.001086  2.204136  -0.003
O  O95  1  0.60674829  0.73875769  0.25249270  1  -0.326184  -0.571378  0.001086  2.203883  0.003
O  O96  1  0.36754887  0.13497457  0.63054444  1  -0.321959  -0.540639  -0.075043  2.274567  -0.104
O  O97  1  0.63244915  0.86502514  0.36945251  1  -0.321983  -0.540658  0.075034  2.274648  0.104
