# generated using pymatgen
data_LiH12C12SN3O4
_symmetry_space_group_name_H-M   'P 1'
_cell_length_a   5.19213093
_cell_length_b   7.92294850
_cell_length_c   31.29800000
_cell_angle_alpha   90.00000000
_cell_angle_beta   91.26684653
_cell_angle_gamma   90.00000000
_symmetry_Int_Tables_number   1
_chemical_formula_structural   LiH12C12SN3O4
_chemical_formula_sum   'Li4 H48 C48 S4 N12 O16'
_cell_volume   1287.19067967
_cell_formula_units_Z   4
loop_
 _symmetry_equiv_pos_site_id
 _symmetry_equiv_pos_as_xyz
  1  'x, y, z'
loop_
 _atom_site_type_symbol
 _atom_site_label
 _atom_site_symmetry_multiplicity
 _atom_site_fract_x
 _atom_site_fract_y
 _atom_site_fract_z
 _atom_site_occupancy
 _atom_site_hle17_bader_spin_density
 _atom_site_hle17_ddec_charge
 _atom_site_hle17_ddec_spin_density
 _atom_site_hle17_ddec_sum_bond_order
 _atom_site_hle17_magmom
 _atom_site_hse06_10hf_bader_spin_density
 _atom_site_hse06_10hf_ddec_charge
 _atom_site_hse06_10hf_ddec_spin_density
 _atom_site_hse06_10hf_ddec_sum_bond_order
 _atom_site_hse06_10hf_magmom
 _atom_site_hse06_bader_spin_density
 _atom_site_hse06_ddec_charge
 _atom_site_hse06_ddec_spin_density
 _atom_site_hse06_ddec_sum_bond_order
 _atom_site_hse06_magmom
 _atom_site_pbe_bader_charge
 _atom_site_pbe_bader_spin_density
 _atom_site_pbe_cm5_charge
 _atom_site_pbe_ddec_charge
 _atom_site_pbe_ddec_spin_density
 _atom_site_pbe_ddec_sum_bond_order
 _atom_site_pbe_magmom
Li  Li0  1  0.80716847  0.71889524  0.00127153  1  0  0.864676  0  0.38904  0  0  0.831742  0  0.483646  0  0  0.839597  0  0.468804  0  0.865839  0  0.519897  0.825977  0  0.494461  0
Li  Li1  1  0.30718984  0.78108800  0.50127557  1  0  0.864693  0  0.388991  0  0  0.83173  0  0.483619  0  0  0.839588  0  0.468772  0  0.865836  0  0.519853  0.825966  0  0.494432  0
Li  Li2  1  0.19280999  0.28108727  0.99872621  1  0  0.864675  0  0.389008  0  0  0.831719  0  0.483629  0  0  0.839575  0  0.468785  0  0.865849  0  0.519859  0.825954  0  0.494443  0
Li  Li3  1  0.69283486  0.21889073  0.49873033  1  0  0.864685  0  0.389035  0  0  0.83178  0  0.483584  0  0  0.839633  0  0.468744  0  0.865842  0  0.519913  0.82602  0  0.494391  0
H  H4  1  0.56520094  0.64264964  0.43548152  1  0  0.316562  0  0.914733  0  0  0.303663  0  0.97482  0  0  0.310367  0  0.969344  0  0.457951  0  0.302138  0.2989  0  0.978625  0
H  H5  1  0.06517608  0.85734749  0.93548539  1  0  0.31653  0  0.914618  0  0  0.303595  0  0.974765  0  0  0.310298  0  0.969293  0  0.45779  0  0.302105  0.29883  0  0.978571  0
H  H6  1  0.43481604  0.35734424  0.56451797  1  0  0.316568  0  0.914646  0  0  0.303675  0  0.974734  0  0  0.310379  0  0.969262  0  0.457871  0  0.302142  0.29891  0  0.978544  0
H  H7  1  0.93481972  0.14263882  0.06451849  1  0  0.316516  0  0.914663  0  0  0.303642  0  0.974723  0  0  0.310347  0  0.969245  0  0.457808  0  0.302144  0.298877  0  0.978532  0
H  H8  1  0.79116920  0.79257236  0.44169595  1  0  0.311976  0  0.887499  0  0  0.300959  0  0.945378  0  0  0.306589  0  0.941321  0  0.465474  0  0.315632  0.296894  0  0.948385  0
H  H9  1  0.29115204  0.70742603  0.94169793  1  0  0.312107  0  0.88748  0  0  0.301068  0  0.945368  0  0  0.306698  0  0.941311  0  0.465462  0  0.315653  0.296998  0  0.94839  0
H  H10  1  0.20885164  0.20742404  0.55830355  1  0  0.311973  0  0.887608  0  0  0.300939  0  0.945507  0  0  0.306569  0  0.941451  0  0.466173  0  0.315618  0.296884  0  0.948482  0
H  H11  1  0.70885147  0.29256280  0.05830182  1  0  0.311959  0  0.887548  0  0  0.300978  0  0.945384  0  0  0.306608  0  0.941328  0  0.465488  0  0.315636  0.29692  0  0.948367  0
H  H12  1  0.55088540  0.90530565  0.95217960  1  0  0.401313  0  0.906023  0  0  0.368038  0  0.976409  0  0  0.377577  0  0.9626  0  0.621009  0  0.293984  0.361405  0  0.985971  0
H  H13  1  0.05090484  0.59469148  0.45218012  1  0  0.401422  0  0.905985  0  0  0.368135  0  0.976288  0  0  0.377675  0  0.962486  0  0.621119  0  0.294034  0.361501  0  0.985851  0
H  H14  1  0.44911040  0.09468192  0.04781981  1  0  0.401299  0  0.906059  0  0  0.368045  0  0.976396  0  0  0.37758  0  0.962592  0  0.62105  0  0.294004  0.361411  0  0.985961  0
H  H15  1  0.94912371  0.40530492  0.54782069  1  0  0.401418  0  0.905977  0  0  0.368137  0  0.976279  0  0  0.377676  0  0.962474  0  0.620968  0  0.294034  0.361502  0  0.985844  0
H  H16  1  0.75343366  0.03651545  0.97142495  1  0  0.432216  0  0.86606  0  0  0.40527  0  0.922443  0  0  0.414849  0  0.908335  0  0.637462  0  0.30341  0.398518  0  0.932377  0
H  H17  1  0.25344924  0.46348023  0.47142578  1  0  0.432295  0  0.865933  0  0  0.405353  0  0.922315  0  0  0.41493  0  0.908207  0  0.637401  0  0.303457  0.398601  0  0.932249  0
H  H18  1  0.24656407  0.96347338  0.02857478  1  0  0.432275  0  0.865979  0  0  0.405346  0  0.922336  0  0  0.414924  0  0.908228  0  0.637367  0  0.303476  0.398595  0  0.93227  0
H  H19  1  0.74657160  0.53651239  0.52857436  1  0  0.432287  0  0.865954  0  0  0.405335  0  0.922354  0  0  0.414916  0  0.908241  0  0.63749  0  0.303452  0.398583  0  0.932288  0
H  H20  1  0.12553407  0.83608015  0.38758196  1  0  0.103391  0  0.982906  0  0  0.113048  0  1.045119  0  0  0.115974  0  1.045207  0  0.089598  0  0.100254  0.11087  0  1.045295  0
H  H21  1  0.62550307  0.66391193  0.88758683  1  0  0.103447  0  0.982899  0  0  0.113158  0  1.045024  0  0  0.116046  0  1.045161  0  0.089886  0  0.100287  0.110979  0  1.0452  0
H  H22  1  0.87448870  0.16391246  0.61241563  1  0  0.103383  0  0.983002  0  0  0.113079  0  1.045158  0  0  0.115966  0  1.045295  0  0.089931  0  0.100241  0.1109  0  1.045336  0
H  H23  1  0.37448117  0.33608448  0.11241669  1  0  0.103409  0  0.982953  0  0  0.113084  0  1.045121  0  0  0.116009  0  1.045214  0  0.089661  0  0.100253  0.110906  0  1.045301  0
H  H24  1  0.81327343  0.54482495  0.18046352  1  0  0.105951  0  0.978429  0  0  0.107208  0  1.052772  0  0  0.110038  0  1.052502  0  0.142049  0  0.104478  0.105177  0  1.05305  0
H  H25  1  0.31330443  0.95517597  0.68046728  1  0  0.105928  0  0.978575  0  0  0.107286  0  1.052809  0  0  0.110107  0  1.052564  0  0.142117  0  0.104459  0.105255  0  1.053087  0
H  H26  1  0.18669540  0.45518155  0.81953227  1  0  0.105952  0  0.978504  0  0  0.107287  0  1.052753  0  0  0.110105  0  1.052516  0  0.141823  0  0.104467  0.105255  0  1.05303  0
H  H27  1  0.68670678  0.04483053  0.31953379  1  0  0.106017  0  0.978468  0  0  0.107288  0  1.052789  0  0  0.110123  0  1.052503  0  0.142125  0  0.104464  0.105258  0  1.053063  0
H  H28  1  0.49463463  0.85025796  0.19489329  1  0  0.110453  0  0.955911  0  0  0.115237  0  1.025064  0  0  0.117866  0  1.024624  0  0.080425  0  0.106431  0.113296  0  1.025571  0
H  H29  1  0.99464794  0.64976568  0.69489193  1  0  0.110441  0  0.956063  0  0  0.115141  0  1.025281  0  0  0.117782  0  1.024828  0  0.08057  0  0.106423  0.113204  0  1.025787  0
H  H30  1  0.50534961  0.14977126  0.80510800  1  0  0.110463  0  0.956068  0  0  0.115166  0  1.025294  0  0  0.117808  0  1.024839  0  0.080307  0  0.10642  0.113228  0  1.025801  0
H  H31  1  0.00534786  0.35026102  0.30510716  1  0  0.110425  0  0.955846  0  0  0.115196  0  1.025013  0  0  0.11783  0  1.024569  0  0.08046  0  0.106421  0.113258  0  1.025516  0
H  H32  1  0.89677594  0.51243801  0.10272678  1  0  0.100408  0  0.968953  0  0  0.107315  0  1.035704  0  0  0.110721  0  1.033826  0  0.103062  0  0.106455  0.104828  0  1.037114  0
H  H33  1  0.39675685  0.98754649  0.60272907  1  0  0.100417  0  0.968902  0  0  0.107322  0  1.035638  0  0  0.110728  0  1.033756  0  0.103045  0  0.106497  0.104829  0  1.037066  0
H  H34  1  0.10324490  0.48754450  0.89727081  1  0  0.100424  0  0.968897  0  0  0.107325  0  1.035641  0  0  0.11073  0  1.03376  0  0.103034  0  0.106488  0.104836  0  1.03706  0
H  H35  1  0.60321197  0.01244612  0.39727024  1  0  0.100245  0  0.968929  0  0  0.107213  0  1.035583  0  0  0.110627  0  1.033689  0  0.103248  0  0.106377  0.104709  0  1.03705  0
H  H36  1  0.20350571  0.83619501  0.30946006  1  0  0.102012  0  0.971592  0  0  0.106214  0  1.042392  0  0  0.108603  0  1.041426  0  0.110754  0  0.103989  0.104478  0  1.043087  0
H  H37  1  0.70349783  0.66380212  0.80946565  1  0  0.101916  0  0.971741  0  0  0.106162  0  1.042451  0  0  0.108559  0  1.041487  0  0.110703  0  0.103962  0.104421  0  1.043159  0
H  H38  1  0.79648817  0.16380392  0.69053711  1  0  0.101897  0  0.971619  0  0  0.106127  0  1.042375  0  0  0.10852  0  1.041408  0  0.110735  0  0.103929  0.104388  0  1.043084  0
H  H39  1  0.29650375  0.33618671  0.19053921  1  0  0.102022  0  0.971506  0  0  0.106231  0  1.042296  0  0  0.108622  0  1.041321  0  0.11054  0  0.103995  0.104491  0  1.042999  0
H  H40  1  0.51966708  0.53913136  0.28811469  1  0  0.107329  0  0.952144  0  0  0.111108  0  1.023286  0  0  0.113597  0  1.021659  0  0.102855  0  0.106329  0.109257  0  1.024568  0
H  H41  1  0.01966533  0.96087334  0.78811577  1  0  0.10733  0  0.952089  0  0  0.111134  0  1.023215  0  0  0.113619  0  1.021592  0  0.102866  0  0.10636  0.109281  0  1.024499  0
H  H42  1  0.48033064  0.46087009  0.71188568  1  0  0.107375  0  0.95202  0  0  0.111167  0  1.023162  0  0  0.113655  0  1.021536  0  0.10287  0  0.10633  0.109314  0  1.024447  0
H  H43  1  0.98034203  0.03911927  0.21188304  1  0  0.107337  0  0.952089  0  0  0.111157  0  1.023166  0  0  0.113643  0  1.021542  0  0.102868  0  0.106329  0.109303  0  1.024452  0
H  H44  1  0.58176852  0.81665052  0.11709158  1  0  0.103997  0  0.959142  0  0  0.112889  0  1.020786  0  0  0.115747  0  1.020079  0  0.098716  0  0.105901  0.110822  0  1.021334  0
H  H45  1  0.08176677  0.68336933  0.61709139  1  0  0.103939  0  0.959241  0  0  0.11285  0  1.020841  0  0  0.115704  0  1.02014  0  0.098727  0  0.105903  0.110784  0  1.02139  0
H  H46  1  0.41823306  0.18336987  0.88290881  1  0  0.103937  0  0.959253  0  0  0.11285  0  1.02085  0  0  0.115703  0  1.02015  0  0.098711  0  0.105908  0.110785  0  1.021398  0
H  H47  1  0.91821169  0.31665358  0.38290764  1  0  0.104104  0  0.958901  0  0  0.11294  0  1.020589  0  0  0.115795  0  1.019886  0  0.09859  0  0.105956  0.110873  0  1.021137  0
H  H48  1  0.44182066  0.53522877  0.36653868  1  0  0.102739  0  0.967818  0  0  0.112462  0  1.029487  0  0  0.114896  0  1.030502  0  0.054905  0  0.099446  0.110699  0  1.028939  0
H  H49  1  0.94179737  0.96477341  0.86653878  1  0  0.102618  0  0.967825  0  0  0.112341  0  1.029494  0  0  0.114778  0  1.030499  0  0.054951  0  0.099394  0.110579  0  1.028945  0
H  H50  1  0.55818670  0.46477773  0.63346237  1  0  0.102677  0  0.967802  0  0  0.112416  0  1.029459  0  0  0.114853  0  1.030466  0  0.055046  0  0.09944  0.110653  0  1.028911  0
H  H51  1  0.05818109  0.03521669  0.13346088  1  0  0.102679  0  0.967774  0  0  0.112363  0  1.029474  0  0  0.1148  0  1.030481  0  0.055123  0  0.099456  0.110601  0  1.028924  0
C  C52  1  0.99237664  0.77227184  0.36559355  1  0  -0.182018  0  3.728147  0  0  -0.196235  0  3.973219  0  0  -0.204693  0  3.995722  0  -0.114024  0  -0.101157  -0.190544  0  3.95801  0
C  C53  1  0.49236333  0.72772782  0.86559714  1  0  -0.18227  0  3.728138  0  0  -0.196474  0  3.973329  0  0  -0.204899  0  3.995848  0  -0.114375  0  -0.101204  -0.190778  0  3.958118  0
C  C54  1  0.00764035  0.22771825  0.63440626  1  0  -0.182102  0  3.72819  0  0  -0.196307  0  3.9733  0  0  -0.204735  0  3.995824  0  -0.114322  0  -0.101122  -0.190614  0  3.958096  0
C  C55  1  0.50763632  0.27227237  0.13440612  1  0  -0.18208  0  3.728194  0  0  -0.196252  0  3.973333  0  0  -0.204707  0  3.995836  0  -0.114065  0  -0.101141  -0.190564  0  3.958129  0
C  C56  1  0.14633794  0.70279265  0.19208347  1  0  0.172715  0  3.789562  0  0  0.178221  0  4.03506  0  0  0.180694  0  4.057425  0  0.263702  0  0.095029  0.176622  0  4.019997  0
C  C57  1  0.64636088  0.79721962  0.69208566  1  0  0.172849  0  3.789542  0  0  0.178334  0  4.035035  0  0  0.180814  0  4.05739  0  0.264536  0  0.095088  0.176734  0  4.019974  0
C  C58  1  0.85363667  0.29722773  0.80791426  1  0  0.172766  0  3.78962  0  0  0.178208  0  4.035168  0  0  0.180685  0  4.057529  0  0.264812  0  0.095046  0.17657  0  4.020161  0
C  C59  1  0.35364455  0.20278940  0.30791506  1  0  0.172646  0  3.78987  0  0  0.17815  0  4.035348  0  0  0.180629  0  4.057707  0  0.263769  0  0.095012  0.176552  0  4.020284  0
C  C60  1  0.24206578  0.66424514  0.10544946  1  0  -0.147125  0  3.756435  0  0  -0.121639  0  4.002114  0  0  -0.128903  0  4.022897  0  -0.23973  0  -0.020731  -0.117048  0  3.988408  0
C  C61  1  0.74205790  0.83576588  0.60545090  1  0  -0.14706  0  3.756374  0  0  -0.121612  0  4.002113  0  0  -0.128892  0  4.022916  0  -0.239857  0  -0.020681  -0.117022  0  3.988402  0
C  C62  1  0.75794351  0.33576389  0.89454872  1  0  -0.147185  0  3.756385  0  0  -0.121721  0  4.002111  0  0  -0.128994  0  4.022906  0  -0.239755  0  -0.020717  -0.117124  0  3.988395  0
C  C63  1  0.25791093  0.16423684  0.39454905  1  0  -0.146961  0  3.756188  0  0  -0.121562  0  4.001977  0  0  -0.128838  0  4.022775  0  -0.240032  0  -0.020619  -0.11697  0  3.988265  0
C  C64  1  0.97821907  0.60561166  0.16611930  1  0  -0.123264  0  3.696841  0  0  -0.137078  0  3.937453  0  0  -0.141619  0  3.959218  0  -0.026162  0  -0.079503  -0.134164  0  3.922875  0
C  C65  1  0.47822695  0.89439178  0.66612105  1  0  -0.123359  0  3.696981  0  0  -0.137261  0  3.937591  0  0  -0.14181  0  3.959347  0  -0.025778  0  -0.079539  -0.134347  0  3.923014  0
C  C66  1  0.02176902  0.39439989  0.83387881  1  0  -0.123302  0  3.696949  0  0  -0.137157  0  3.937529  0  0  -0.141705  0  3.959285  0  -0.02556  0  -0.079512  -0.134229  0  3.92296  0
C  C67  1  0.52176307  0.10560967  0.33387866  1  0  -0.123433  0  3.697124  0  0  -0.137268  0  3.937729  0  0  -0.141817  0  3.959502  0  -0.025731  0  -0.079511  -0.134351  0  3.923147  0
C  C68  1  0.36320944  0.77879971  0.17420581  1  0  -0.111097  0  3.67162  0  0  -0.129272  0  3.919508  0  0  -0.133696  0  3.940325  0  0.069218  0  -0.074603  -0.126429  0  3.905575  0
C  C69  1  0.86321697  0.72122392  0.67420507  1  0  -0.111188  0  3.671859  0  0  -0.129271  0  3.919728  0  0  -0.133702  0  3.940511  0  0.068137  0  -0.074574  -0.126436  0  3.905804  0
C  C70  1  0.63678058  0.22123077  0.82579453  1  0  -0.111271  0  3.671915  0  0  -0.12935  0  3.919796  0  0  -0.133781  0  3.940583  0  0.068297  0  -0.074573  -0.126499  0  3.905881  0
C  C71  1  0.13676920  0.27880025  0.32579398  1  0  -0.111139  0  3.671462  0  0  -0.129279  0  3.919326  0  0  -0.133704  0  3.940133  0  0.069113  0  -0.074654  -0.126437  0  3.905393  0
C  C72  1  0.86771333  0.68525625  0.29399535  1  0  0.123989  0  3.834361  0  0  0.127771  0  4.086934  0  0  0.122049  0  4.113296  0  0.421007  0  0.07809  0.131429  0  4.06912  0
C  C73  1  0.36771736  0.81474845  0.79399901  1  0  0.124043  0  3.83437  0  0  0.127873  0  4.086882  0  0  0.12215  0  4.113249  0  0.420806  0  0.078  0.131527  0  4.06907  0
C  C74  1  0.13228054  0.31474646  0.70600277  1  0  0.12385  0  3.834529  0  0  0.127659  0  4.087093  0  0  0.121936  0  4.113458  0  0.421062  0  0.078011  0.131319  0  4.06928  0
C  C75  1  0.63229000  0.18524291  0.20600364  1  0  0.123992  0  3.834589  0  0  0.127931  0  4.086965  0  0  0.122209  0  4.113327  0  0.420576  0  0.078097  0.131587  0  4.06915  0
C  C76  1  0.02539077  0.58725865  0.12299651  1  0  -0.048608  0  3.754382  0  0  -0.070782  0  4.000243  0  0  -0.069528  0  4.019183  0  0.024622  0  -0.079997  -0.071476  0  3.987563  0
C  C77  1  0.52539445  0.91274732  0.62299799  1  0  -0.048599  0  3.754422  0  0  -0.070754  0  4.000338  0  0  -0.069489  0  4.019266  0  0.024523  0  -0.080064  -0.071449  0  3.987653  0
C  C78  1  0.97460888  0.41275164  0.87700132  1  0  -0.048596  0  3.754342  0  0  -0.070765  0  4.00024  0  0  -0.069498  0  4.019165  0  0.024498  0  -0.080083  -0.071457  0  3.987549  0
C  C79  1  0.47459171  0.08725918  0.37700170  1  0  -0.048359  0  3.754156  0  0  -0.070502  0  3.999931  0  0  -0.069243  0  4.018868  0  0.024414  0  -0.079924  -0.071207  0  3.987245  0
C  C80  1  0.03671067  0.77205349  0.32226034  1  0  -0.089671  0  3.729116  0  0  -0.107254  0  3.970425  0  0  -0.10614  0  3.992769  0  0.017393  0  -0.077025  -0.107641  0  3.955053  0
C  C81  1  0.53669701  0.72794238  0.82226463  1  0  -0.089456  0  3.729257  0  0  -0.107038  0  3.970522  0  0  -0.105931  0  3.992859  0  0.018061  0  -0.076874  -0.107425  0  3.955143  0
C  C82  1  0.96329476  0.22794418  0.67773719  1  0  -0.089441  0  3.729284  0  0  -0.107036  0  3.970605  0  0  -0.105924  0  3.99294  0  0.017441  0  -0.076948  -0.10742  0  3.955209  0
C  C83  1  0.46330264  0.27204392  0.17773766  1  0  -0.089621  0  3.72926  0  0  -0.107254  0  3.970561  0  0  -0.106137  0  3.9929  0  0.018308  0  -0.076995  -0.107642  0  3.955187  0
C  C84  1  0.65168755  0.60225180  0.31046132  1  0  -0.085252  0  3.718708  0  0  -0.106959  0  3.970498  0  0  -0.106414  0  3.992926  0  -0.079921  0  -0.072778  -0.107063  0  3.955157  0
C  C85  1  0.15169157  0.89775290  0.81046243  1  0  -0.085267  0  3.718549  0  0  -0.107033  0  3.97033  0  0  -0.106488  0  3.992762  0  -0.079986  0  -0.072764  -0.107136  0  3.95499  0
C  C86  1  0.34830632  0.39774713  0.68953840  1  0  -0.085343  0  3.718696  0  0  -0.107084  0  3.970498  0  0  -0.10654  0  3.992929  0  -0.079985  0  -0.072803  -0.107189  0  3.955158  0
C  C87  1  0.84831771  0.10223467  0.18953735  1  0  -0.085378  0  3.718725  0  0  -0.107157  0  3.97046  0  0  -0.106616  0  3.992895  0  -0.080037  0  -0.072797  -0.10726  0  3.955118  0
C  C88  1  0.41122266  0.76047446  0.13082961  1  0  -0.058472  0  3.756027  0  0  -0.081222  0  4.00295  0  0  -0.079783  0  4.022553  0  -0.059695  0  -0.083299  -0.081996  0  3.989674  0
C  C89  1  0.91123790  0.73954034  0.63082954  1  0  -0.058418  0  3.755939  0  0  -0.081197  0  4.002884  0  0  -0.079754  0  4.022488  0  -0.059971  0  -0.083369  -0.081973  0  3.989613  0
C  C90  1  0.58876351  0.23954340  0.86917072  1  0  -0.058333  0  3.756004  0  0  -0.081125  0  4.002935  0  0  -0.079679  0  4.022535  0  -0.060005  0  -0.083359  -0.081899  0  3.989658  0
C  C91  1  0.08875405  0.26047374  0.36917050  1  0  -0.058587  0  3.755814  0  0  -0.081291  0  4.002799  0  0  -0.079851  0  4.022404  0  -0.059526  0  -0.083386  -0.082066  0  3.989524  0
C  C92  1  0.77824457  0.68645278  0.38221280  1  0  0.308033  0  3.812468  0  0  0.303935  0  4.058401  0  0  0.314376  0  4.079012  0  0.321359  0  0.101385  0.296827  0  4.044201  0
C  C93  1  0.27822355  0.81355445  0.88221509  1  0  0.308196  0  3.81204  0  0  0.303836  0  4.058306  0  0  0.314283  0  4.078908  0  0.321435  0  0.101265  0.296734  0  4.044104  0
C  C94  1  0.22177628  0.31354110  0.61778638  1  0  0.308135  0  3.81234  0  0  0.303897  0  4.058464  0  0  0.314338  0  4.079073  0  0.321345  0  0.101348  0.296787  0  4.044268  0
C  C95  1  0.72177225  0.18644826  0.11778624  1  0  0.308012  0  3.812298  0  0  0.303694  0  4.058523  0  0  0.314137  0  4.079137  0  0.321388  0  0.101244  0.29659  0  4.044324  0
C  C96  1  0.60895476  0.60051507  0.35407480  1  0  -0.186501  0  3.730333  0  0  -0.199121  0  3.9736  0  0  -0.207526  0  3.997084  0  0.028844  0  -0.101887  -0.19347  0  3.957637  0
C  C97  1  0.10894337  0.89949720  0.85407649  1  0  -0.186258  0  3.729949  0  0  -0.198766  0  3.973227  0  0  -0.207167  0  3.996714  0  0.028654  0  -0.101719  -0.193115  0  3.957261  0
C  C98  1  0.39105645  0.39948385  0.64592530  1  0  -0.18635  0  3.730272  0  0  -0.198926  0  3.973564  0  0  -0.207331  0  3.997056  0  0.028666  0  -0.101811  -0.193277  0  3.957601  0
C  C99  1  0.89104279  0.10050173  0.14592449  1  0  -0.186268  0  3.730319  0  0  -0.19877  0  3.973603  0  0  -0.207171  0  3.997093  0  0.028491  0  -0.101781  -0.193118  0  3.957635  0
S  S100  1  0.30719176  0.62754037  0.05099154  1  0  1.369106  0  5.605859  0  0  1.274998  0  6.122767  0  0  1.322177  0  6.095617  0  3.177783  0  0.550806  1.2424  0  6.140808  0
S  S101  1  0.80721278  0.87244667  0.55099372  1  0  1.369135  0  5.606066  0  0  1.275009  0  6.123013  0  0  1.322191  0  6.09587  0  3.177902  0  0.550802  1.24241  0  6.141054  0
S  S102  1  0.69279440  0.37244846  0.94900656  1  0  1.368977  0  5.606074  0  0  1.274821  0  6.123048  0  0  1.322004  0  6.095905  0  3.177946  0  0.550685  1.242221  0  6.141085  0
S  S103  1  0.19280806  0.12753838  0.44900738  1  0  1.369005  0  5.606236  0  0  1.274899  0  6.123175  0  0  1.322077  0  6.096035  0  3.177554  0  0.550714  1.242302  0  6.141211  0
N  N104  1  0.11360927  0.72817336  0.23631195  1  0  -0.179532  0  2.975759  0  0  -0.158543  0  3.263783  0  0  -0.159526  0  3.269374  0  -0.494806  0  -0.161122  -0.15785  0  3.260038  0
N  N105  1  0.61363606  0.77184271  0.73631544  1  0  -0.179376  0  2.975754  0  0  -0.158338  0  3.263759  0  0  -0.159329  0  3.269349  0  -0.494671  0  -0.16103  -0.157651  0  3.260011  0
N  N106  1  0.88635764  0.27184955  0.76368576  1  0  -0.179226  0  2.975465  0  0  -0.15817  0  3.263444  0  0  -0.159154  0  3.269034  0  -0.494508  0  -0.160943  -0.157465  0  3.259706  0
N  N107  1  0.38638478  0.22817137  0.26368598  1  0  -0.179378  0  2.975951  0  0  -0.158379  0  3.263987  0  0  -0.159371  0  3.26958  0  -0.49491  0  -0.161005  -0.157691  0  3.260241  0
N  N108  1  0.74339871  0.68305127  0.42632712  1  0  -0.660687  0  3.092275  0  0  -0.619071  0  3.311326  0  0  -0.638673  0  3.310382  0  -1.228936  0  -0.574397  -0.604993  0  3.311518  0
N  N109  1  0.24337577  0.81694713  0.92633036  1  0  -0.660899  0  3.091981  0  0  -0.61916  0  3.311178  0  0  -0.638762  0  3.310228  0  -1.228969  0  -0.574423  -0.605079  0  3.311372  0
N  N110  1  0.25662020  0.31694261  0.57367269  1  0  -0.660732  0  3.092263  0  0  -0.619067  0  3.311303  0  0  -0.638674  0  3.310365  0  -1.229638  0  -0.574387  -0.604986  0  3.311505  0
N  N111  1  0.75662195  0.18304675  0.07367193  1  0  -0.660634  0  3.092086  0  0  -0.619013  0  3.311114  0  0  -0.638612  0  3.31017  0  -1.228894  0  -0.574406  -0.604928  0  3.311316  0
N  N112  1  0.90352242  0.66795714  0.25008682  1  0  -0.137905  0  3.022165  0  0  -0.1163  0  3.309297  0  0  -0.110882  0  3.315318  0  -0.509993  0  -0.147191  -0.119673  0  3.305171  0
N  N113  1  0.40354763  0.83205135  0.75008991  1  0  -0.138171  0  3.022307  0  0  -0.116632  0  3.30952  0  0  -0.111207  0  3.315544  0  -0.51002  0  -0.147302  -0.120001  0  3.305391  0
N  N114  1  0.09645604  0.33204684  0.74991253  1  0  -0.138109  0  3.022105  0  0  -0.116555  0  3.309292  0  0  -0.111132  0  3.315313  0  -0.51027  0  -0.14731  -0.119927  0  3.305161  0
N  N115  1  0.59646165  0.16794884  0.24991242  1  0  -0.137992  0  3.022521  0  0  -0.11647  0  3.309674  0  0  -0.111052  0  3.315698  0  -0.509963  0  -0.147285  -0.119839  0  3.305546  0
O  O116  1  0.72401465  0.91479327  0.96618669  1  0  -0.889157  0  1.805286  0  0  -0.841627  0  1.967126  0  0  -0.857574  0  1.936891  0  -1.2953  0  -0.643616  -0.830354  0  1.988222  0
O  O117  1  0.22403602  0.58520259  0.46618594  1  0  -0.889291  0  1.80514  0  0  -0.841737  0  1.966897  0  0  -0.857707  0  1.936658  0  -1.295336  0  -0.643698  -0.830464  0  1.987994  0
O  O118  1  0.27597537  0.08519556  0.03381525  1  0  -0.88918  0  1.80527  0  0  -0.84169  0  1.967062  0  0  -0.857635  0  1.936839  0  -1.295249  0  -0.643691  -0.83042  0  1.988154  0
O  O119  1  0.77599061  0.41479002  0.53381422  1  0  -0.889313  0  1.805164  0  0  -0.8418  0  1.966965  0  0  -0.857733  0  1.936675  0  -1.295265  0  -0.643717  -0.830531  0  1.988063  0
O  O120  1  0.58453492  0.65466789  0.04645920  1  0  -0.742593  0  1.977428  0  0  -0.700243  0  2.237284  0  0  -0.718253  0  2.219651  0  -1.369679  0  -0.398793  -0.687549  0  2.249107  0
O  O121  1  0.08454858  0.84531788  0.54646736  1  0  -0.74251  0  1.977676  0  0  -0.700105  0  2.237464  0  0  -0.718113  0  2.219833  0  -1.369582  0  -0.398654  -0.687414  0  2.249291  0
O  O122  1  0.41545317  0.34531715  0.95353284  1  0  -0.742452  0  1.977604  0  0  -0.700049  0  2.237404  0  0  -0.71806  0  2.219779  0  -1.36955  0  -0.398612  -0.68737  0  2.249258  0
O  O123  1  0.91546456  0.15466969  0.45354265  1  0  -0.742652  0  1.977307  0  0  -0.700322  0  2.237185  0  0  -0.718332  0  2.219549  0  -1.369729  0  -0.398867  -0.687622  0  2.249  0
O  O124  1  0.15462365  0.75042012  0.02474534  1  0  -0.757448  0  1.967792  0  0  -0.699033  0  2.210404  0  0  -0.718416  0  2.192774  0  -1.370837  0  -0.388356  -0.685358  0  2.222262  0
O  O125  1  0.65463889  0.74957700  0.52474590  1  0  -0.75753  0  1.967934  0  0  -0.699084  0  2.210536  0  0  -0.718469  0  2.192906  0  -1.37073  0  -0.388391  -0.68541  0  2.222391  0
O  O126  1  0.84536059  0.24957249  0.97525371  1  0  -0.757411  0  1.96787  0  0  -0.698932  0  2.21045  0  0  -0.718318  0  2.192825  0  -1.370776  0  -0.388309  -0.685257  0  2.222307  0
O  O127  1  0.34539159  0.25042319  0.47524884  1  0  -0.757443  0  1.967948  0  0  -0.699011  0  2.210552  0  0  -0.718394  0  2.192925  0  -1.37072  0  -0.388251  -0.685341  0  2.222408  0
O  O128  1  0.22390309  0.45387522  0.04223312  1  0  -0.737592  0  1.97912  0  0  -0.695773  0  2.245832  0  0  -0.714162  0  2.228793  0  -1.364947  0  -0.389185  -0.682852  0  2.257301  0
O  O129  1  0.72392218  0.04612298  0.54223275  1  0  -0.737636  0  1.978881  0  0  -0.695827  0  2.245574  0  0  -0.714216  0  2.228527  0  -1.365249  0  -0.389287  -0.682909  0  2.257042  0
O  O130  1  0.77608886  0.54611866  0.95776691  1  0  -0.737564  0  1.978946  0  0  -0.695769  0  2.245673  0  0  -0.714153  0  2.228627  0  -1.365264  0  -0.389235  -0.682843  0  2.257138  0
O  O131  1  0.27609096  0.95387721  0.45776641  1  0  -0.737517  0  1.97939  0  0  -0.695682  0  2.246079  0  0  -0.714069  0  2.229039  0  -1.364902  0  -0.389139  -0.68276  0  2.257545  0
