# generated using pymatgen
data_Nd2CoH32(C4O5)4
_symmetry_space_group_name_H-M   'P 1'
_cell_length_a   8.25048084
_cell_length_b   9.46660462
_cell_length_c   11.24235578
_cell_angle_alpha   111.07467232
_cell_angle_beta   105.28701671
_cell_angle_gamma   93.23270615
_symmetry_Int_Tables_number   1
_chemical_formula_structural   Nd2CoH32(C4O5)4
_chemical_formula_sum   'Nd2 Co1 H32 C16 O20'
_cell_volume   779.12028686
_cell_formula_units_Z   1
loop_
 _symmetry_equiv_pos_site_id
 _symmetry_equiv_pos_as_xyz
  1  'x, y, z'
loop_
 _atom_site_type_symbol
 _atom_site_label
 _atom_site_symmetry_multiplicity
 _atom_site_fract_x
 _atom_site_fract_y
 _atom_site_fract_z
 _atom_site_occupancy
 _atom_site_hse06_10hf_ddec_charge
 _atom_site_hse06_10hf_ddec_spin_density
 _atom_site_hse06_10hf_ddec_sum_bond_order
 _atom_site_hse06_10hf_magmom
 _atom_site_hse06_ddec_charge
 _atom_site_hse06_ddec_spin_density
 _atom_site_hse06_ddec_sum_bond_order
 _atom_site_hse06_magmom
 _atom_site_pbe_cm5_charge
 _atom_site_pbe_ddec_charge
 _atom_site_pbe_ddec_spin_density
 _atom_site_pbe_ddec_sum_bond_order
 _atom_site_pbe_magmom
Nd  Nd0  1  0.10674486  0.92008188  0.34340007  1  2.11949  -0.000264  2.124795  0.0  2.214206  -0.000285  1.982092  0.0  1.495117  2.086101  -0.000314  2.16054  0.0
Nd  Nd1  1  0.89324359  0.07992554  0.65659928  1  2.119477  -0.000264  2.124752  0.0  2.214234  -0.00029  1.981991  0.0  1.495106  2.086094  -0.000314  2.16051  0.0
Co  Co2  1  0.99999884  0.99999444  0.99999694  1  0.985351  1.02655  2.580123  0.974  1.080541  1.015416  2.485631  0.967  0.60619  0.918165  1.028112  2.654144  0.972
H  H3  1  0.23699205  0.91601912  0.61540598  1  0.391257  3e-06  0.950701  0.0  0.40168  0.0  0.935941  0.0  0.297519  0.38369  2e-06  0.961668  0.0
H  H4  1  0.76300619  0.08399855  0.38459597  1  0.391328  3e-06  0.950588  0.0  0.401753  0.0  0.935823  0.0  0.29755  0.383759  2e-06  0.961556  0.0
H  H5  1  0.41118035  0.97132536  0.59671250  1  0.414093  1.4e-05  0.90631  0.0  0.424307  8e-06  0.891643  0.0  0.304449  0.406976  1.1e-05  0.916644  0.0
H  H6  1  0.58881864  0.02868998  0.40328888  1  0.414064  1.4e-05  0.906339  0.0  0.424283  8e-06  0.891665  0.0  0.304453  0.40695  1.1e-05  0.916669  0.0
H  H7  1  0.05776929  0.59427209  0.19634647  1  0.413811  -3.4e-05  0.892666  0.0  0.424233  -1.6e-05  0.877339  0.0  0.317552  0.406096  -6.3e-05  0.904242  0.0
H  H8  1  0.94226662  0.40571875  0.80367795  1  0.413504  -3.4e-05  0.893129  0.0  0.42393  -1.5e-05  0.877797  0.0  0.317423  0.405797  -6.3e-05  0.904693  0.0
H  H9  1  0.23470201  0.59637192  0.29671853  1  0.430673  -2e-06  0.848866  0.0  0.438158  -1e-06  0.838388  0.0  0.339491  0.425319  4e-06  0.856606  0.0
H  H10  1  0.76533210  0.40366488  0.70332719  1  0.430772  -2e-06  0.848713  0.0  0.43826  -1e-06  0.838227  0.0  0.339538  0.42542  4e-06  0.856452  0.0
H  H11  1  0.39194389  0.85268934  0.00981394  1  0.164432  -0.000102  0.989293  0.0  0.167003  -7.7e-05  0.988625  0.0  0.105944  0.162524  -0.000162  0.98974  0.0
H  H12  1  0.60804898  0.14730305  0.99017978  1  0.16447  -0.000102  0.989216  0.0  0.167041  -7.7e-05  0.988545  0.0  0.105948  0.162565  -0.000162  0.989667  0.0
H  H13  1  0.57972488  0.93464279  0.15208249  1  0.160525  -5.8e-05  1.012854  0.0  0.163333  -5.5e-05  1.012148  0.0  0.100157  0.158573  -5.3e-05  1.013245  0.0
H  H14  1  0.42026794  0.06533797  0.84791109  1  0.160521  -5.8e-05  1.012803  0.0  0.163328  -5.6e-05  1.012098  0.0  0.100188  0.158575  -5.3e-05  1.013195  0.0
H  H15  1  0.44092037  0.05296142  0.09435575  1  0.171321  -0.000126  1.001551  0.0  0.174337  -0.00011  1.00045  0.0  0.106877  0.169118  -0.000128  1.002322  0.0
H  H16  1  0.55908489  0.94703060  0.90564399  1  0.171226  -0.000126  1.001555  0.0  0.17422  -0.000109  1.000478  0.0  0.106803  0.169038  -0.000128  1.00231  0.0
H  H17  1  0.57286257  0.63324285  0.01325173  1  0.154002  -0.000198  1.005818  0.0  0.155365  -9e-05  1.006878  0.0  0.100989  0.152907  -0.00034  1.005037  0.0
H  H18  1  0.42713526  0.36675614  0.98675224  1  0.153914  -0.000198  1.005862  0.0  0.155278  -9.1e-05  1.00692  0.0  0.10098  0.152822  -0.00034  1.005081  0.0
H  H19  1  0.69518421  0.50011244  0.93990409  1  0.144535  -0.000168  1.003939  0.0  0.146539  -7.5e-05  1.003054  0.0  0.09675  0.143403  -0.000172  1.004044  0.0
H  H20  1  0.30481572  0.49988036  0.06011170  1  0.14448  -0.000168  1.003931  0.0  0.146474  -7.5e-05  1.003057  0.0  0.096715  0.143348  -0.000172  1.004027  0.0
H  H21  1  0.59378338  0.61629100  0.85520098  1  0.147719  -8.1e-05  1.014828  0.0  0.150306  -8.5e-05  1.013476  0.0  0.095844  0.145826  -4.9e-05  1.015886  0.0
H  H22  1  0.40622372  0.38369274  0.14480275  1  0.147766  -8.1e-05  1.014895  0.0  0.150353  -8.5e-05  1.013542  0.0  0.09588  0.145856  -4.9e-05  1.015969  0.0
H  H23  1  0.27324728  0.40225381  0.75445905  1  0.156114  7e-06  1.008257  0.0  0.158731  7e-06  1.007512  0.0  0.101888  0.154093  4e-06  1.008985  0.0
H  H24  1  0.72674197  0.59774458  0.24553048  1  0.156074  7e-06  1.008261  0.0  0.15869  7e-06  1.007518  0.0  0.101905  0.154051  4e-06  1.008992  0.0
H  H25  1  0.39252150  0.44672902  0.65501398  1  0.153566  5e-06  0.996523  0.0  0.156125  9e-06  0.995217  0.0  0.100551  0.151676  -1.1e-05  0.997505  0.0
H  H26  1  0.60746989  0.55327386  0.34498009  1  0.153521  5e-06  0.996604  0.0  0.15608  9e-06  0.995297  0.0  0.100547  0.15163  -1.1e-05  0.997585  0.0
H  H27  1  0.45067657  0.30965599  0.72638866  1  0.163426  2.7e-05  1.016761  0.0  0.166753  1.9e-05  1.015039  0.0  0.104814  0.161099  7e-05  1.017804  0.0
H  H28  1  0.54930677  0.69033796  0.27359646  1  0.163409  2.7e-05  1.016626  0.0  0.166733  1.8e-05  1.014904  0.0  0.104795  0.161077  7e-05  1.017667  0.0
H  H29  1  0.88938965  0.41226810  0.28807725  1  0.154139  -3.7e-05  1.020806  0.0  0.157149  -3.6e-05  1.018946  0.0  0.095511  0.151672  -3.6e-05  1.022594  0.0
H  H30  1  0.11061826  0.58773950  0.71190573  1  0.154239  -3.7e-05  1.020648  0.0  0.157251  -3.6e-05  1.018787  0.0  0.095546  0.151766  -3.6e-05  1.022438  0.0
H  H31  1  0.90643225  0.34726574  0.42213492  1  0.168943  -0.000263  0.980984  0.0  0.17087  -0.000239  0.980997  0.0  0.108253  0.167664  -0.000222  0.980691  0.0
H  H32  1  0.09358552  0.65275313  0.57785545  1  0.168934  -0.000263  0.981006  0.0  0.17086  -0.00024  0.981021  0.0  0.108267  0.167655  -0.000222  0.980714  0.0
H  H33  1  0.70927814  0.30557749  0.29675474  1  0.155179  -0.00016  0.991749  0.0  0.157319  1.2e-05  0.99114  0.0  0.101371  0.153433  -0.00044  0.99225  0.0
H  H34  1  0.29073360  0.69443778  0.70324214  1  0.155161  -0.00016  0.991725  0.0  0.157303  1.2e-05  0.991116  0.0  0.101333  0.153412  -0.00044  0.992227  0.0
C  C35  1  0.33792026  0.93657346  0.19394335  1  0.726263  0.000391  4.103458  0.002  0.761441  0.000491  4.097271  0.002  0.208945  0.701123  -0.000226  4.110474  0.001
C  C36  1  0.66207530  0.06341998  0.80605304  1  0.726166  0.000392  4.103582  0.002  0.761344  0.00049  4.097394  0.002  0.2089  0.701036  -0.000225  4.110591  0.001
C  C37  1  0.81707655  0.73729482  0.02434630  1  0.740437  -0.002025  4.091176  0.0  0.779343  -0.000106  4.081849  0.002  0.225606  0.712722  -0.005132  4.098314  -0.003
C  C38  1  0.18292777  0.26269938  0.97565927  1  0.74037  -0.002025  4.091246  0.0  0.779276  -0.000106  4.081918  0.002  0.225634  0.712655  -0.005131  4.098389  -0.003
C  C39  1  0.23410968  0.22597933  0.55811919  1  0.751521  7e-06  4.111837  0.0  0.784951  6e-06  4.107389  0.0  0.212758  0.728572  7e-06  4.117523  0.0
C  C40  1  0.76587111  0.77402623  0.44186818  1  0.751524  6e-06  4.112061  0.0  0.784955  6e-06  4.107616  0.0  0.212757  0.728571  7e-06  4.117746  0.0
C  C41  1  0.89231910  0.16922517  0.23366110  1  0.736941  -0.004232  4.069577  -0.002  0.775921  -0.001843  4.061699  0.0  0.23243  0.708468  -0.007419  4.076189  -0.004
C  C42  1  0.10767765  0.83077884  0.76633089  1  0.736582  -0.004233  4.069627  -0.002  0.775562  -0.001844  4.061756  0.0  0.232211  0.708113  -0.00742  4.076226  -0.004
C  C43  1  0.44777542  0.94505966  0.10931216  1  -0.532084  -0.000527  3.864758  0.0  -0.539667  -0.000489  3.865747  0.0  -0.243472  -0.526338  -0.000523  3.863632  0.0
C  C44  1  0.55222231  0.05492671  0.89068601  1  -0.532035  -0.000527  3.864571  0.0  -0.539597  -0.000488  3.865576  0.0  -0.243443  -0.526304  -0.000523  3.863438  0.0
C  C45  1  0.66017477  0.61362623  0.95225064  1  -0.536092  -0.000897  3.908259  0.0  -0.543925  -0.000472  3.911504  0.0  -0.244052  -0.530036  -0.001154  3.905392  0.0
C  C46  1  0.33982345  0.38636339  0.04775577  1  -0.535979  -0.000897  3.908351  0.0  -0.543802  -0.000472  3.911601  0.0  -0.244053  -0.529908  -0.001154  3.905492  0.0
C  C47  1  0.34250961  0.35669401  0.68195076  1  -0.534778  3.5e-05  3.882977  0.0  -0.54217  2.7e-05  3.884425  0.0  -0.23988  -0.529215  7e-05  3.88134  0.0
C  C48  1  0.65747882  0.64330665  0.31804110  1  -0.534634  3.5e-05  3.882907  0.0  -0.542025  2.7e-05  3.884361  0.0  -0.239873  -0.529075  7e-05  3.881275  0.0
C  C49  1  0.84809930  0.31910033  0.31486029  1  -0.533405  -0.00075  3.875849  0.0  -0.541691  -0.000411  3.878301  0.0  -0.240071  -0.526619  -0.001059  3.873691  0.0
C  C50  1  0.15191489  0.68091390  0.68513143  1  -0.533389  -0.00075  3.875784  0.0  -0.541679  -0.000411  3.878233  0.0  -0.239984  -0.526598  -0.001059  3.873624  0.0
O  O51  1  0.10116739  0.15101958  0.56229296  1  -0.791453  -2e-05  2.332001  0.0  -0.829205  -1.4e-05  2.319057  0.0  -0.451227  -0.773057  -4e-06  2.339406  0.0
O  O52  1  0.89882147  0.84898332  0.43770148  1  -0.791395  -2e-05  2.331977  0.0  -0.829145  -1.3e-05  2.319034  0.0  -0.4512  -0.772983  -4e-06  2.339345  0.0
O  O53  1  0.27850576  0.18385912  0.45293850  1  -0.63063  -4.9e-05  2.100941  0.0  -0.658401  -4.1e-05  2.090155  0.0  -0.375058  -0.614787  -3.9e-05  2.107105  0.0
O  O54  1  0.72146608  0.81615132  0.54704590  1  -0.630715  -4.8e-05  2.101032  0.0  -0.658488  -4.1e-05  2.090237  0.0  -0.375073  -0.614871  -3.9e-05  2.107192  0.0
O  O55  1  0.18668512  0.96541959  0.16479175  1  -0.669043  0.018456  2.431472  0.029  -0.70421  0.015997  2.415663  0.025  -0.374231  -0.647407  0.020919  2.442624  0.033
O  O56  1  0.81330581  0.03456362  0.83519866  1  -0.669018  0.018454  2.431455  0.029  -0.704191  0.015997  2.415649  0.025  -0.374251  -0.647387  0.020918  2.442611  0.033
O  O57  1  0.39284766  0.89915890  0.29514721  1  -0.677869  0.001867  2.158068  0.003  -0.707609  0.001381  2.14666  0.002  -0.370747  -0.660511  0.002235  2.165389  0.004
O  O58  1  0.60715111  0.10085046  0.70486023  1  -0.677755  0.001867  2.158116  0.003  -0.707496  0.001381  2.14671  0.002  -0.370662  -0.660403  0.002235  2.165441  0.004
O  O59  1  0.92996832  0.16211777  0.12956934  1  -0.545218  -0.00767  2.377763  -0.005  -0.587264  -0.006891  2.36611  -0.005  -0.287213  -0.514297  -0.006624  2.385222  -0.004
O  O60  1  0.07003439  0.83787912  0.87042429  1  -0.545094  -0.00767  2.377793  -0.005  -0.587142  -0.006891  2.366146  -0.005  -0.287174  -0.51417  -0.006624  2.385239  -0.004
O  O61  1  0.88537471  0.05872426  0.27446497  1  -0.717759  -0.001784  2.307526  -0.001  -0.750475  -0.001294  2.294375  -0.001  -0.398404  -0.699107  -0.002256  2.316017  -0.001
O  O62  1  0.11462127  0.94128881  0.72553595  1  -0.717563  -0.001785  2.307307  -0.001  -0.750282  -0.001293  2.294157  -0.001  -0.398338  -0.69892  -0.002256  2.315805  -0.001
O  O63  1  0.82379551  0.84109173  0.97836966  1  -0.548826  -0.013119  2.406053  -0.01  -0.590754  -0.011922  2.393522  -0.009  -0.287255  -0.518397  -0.009111  2.414224  -0.007
O  O64  1  0.17620905  0.15889687  0.02162797  1  -0.548745  -0.013118  2.406065  -0.01  -0.590673  -0.011921  2.39354  -0.009  -0.28725  -0.518314  -0.009111  2.414244  -0.007
O  O65  1  0.92538901  0.72790061  0.12508017  1  -0.722843  -0.00147  2.249617  -0.001  -0.755242  -0.001088  2.233733  -0.001  -0.403705  -0.704236  -0.001785  2.259208  -0.001
O  O66  1  0.07461243  0.27209819  0.87492893  1  -0.722841  -0.001469  2.249572  -0.001  -0.755246  -0.001088  2.233687  -0.001  -0.403704  -0.704235  -0.001784  2.259171  -0.001
O  O67  1  0.29939356  0.90238887  0.54812679  1  -0.857887  4e-05  2.001197  0.0  -0.882537  3.1e-05  1.967031  0.0  -0.641351  -0.844549  4.7e-05  2.022578  0.0
O  O68  1  0.70060342  0.09762882  0.45187492  1  -0.857934  4e-05  2.001044  0.0  -0.882592  3.1e-05  1.966878  0.0  -0.641401  -0.844596  4.7e-05  2.022425  0.0
O  O69  1  0.12622699  0.63284540  0.29096555  1  -0.813217  -9e-05  1.983023  0.0  -0.835236  -5.4e-05  1.950333  0.0  -0.599238  -0.801632  -0.000104  2.004341  0.0
O  O70  1  0.87379537  0.36717005  0.70906029  1  -0.813037  -9e-05  1.983219  0.0  -0.835075  -5.4e-05  1.95056  0.0  -0.599177  -0.801453  -0.000104  2.004519  0.0
