# generated using pymatgen
data_Cd3H28C52Br12(NO6)2
_symmetry_space_group_name_H-M   'P 1'
_cell_length_a   9.62283446
_cell_length_b   11.01851046
_cell_length_c   15.44290000
_cell_angle_alpha   71.62585445
_cell_angle_beta   82.02753533
_cell_angle_gamma   87.87956031
_symmetry_Int_Tables_number   1
_chemical_formula_structural   Cd3H28C52Br12(NO6)2
_chemical_formula_sum   'Cd3 H28 C52 Br12 N2 O12'
_cell_volume   1538.86430927
_cell_formula_units_Z   1
loop_
 _symmetry_equiv_pos_site_id
 _symmetry_equiv_pos_as_xyz
  1  'x, y, z'
loop_
 _atom_site_type_symbol
 _atom_site_label
 _atom_site_symmetry_multiplicity
 _atom_site_fract_x
 _atom_site_fract_y
 _atom_site_fract_z
 _atom_site_occupancy
 _atom_site_hle17_bader_spin_density
 _atom_site_hle17_ddec_charge
 _atom_site_hle17_ddec_spin_density
 _atom_site_hle17_ddec_sum_bond_order
 _atom_site_hle17_magmom
 _atom_site_hse06_10hf_bader_spin_density
 _atom_site_hse06_10hf_ddec_charge
 _atom_site_hse06_10hf_ddec_spin_density
 _atom_site_hse06_10hf_ddec_sum_bond_order
 _atom_site_hse06_10hf_magmom
 _atom_site_hse06_bader_spin_density
 _atom_site_hse06_ddec_charge
 _atom_site_hse06_ddec_spin_density
 _atom_site_hse06_ddec_sum_bond_order
 _atom_site_hse06_magmom
 _atom_site_pbe_bader_charge
 _atom_site_pbe_bader_spin_density
 _atom_site_pbe_cm5_charge
 _atom_site_pbe_ddec_charge
 _atom_site_pbe_ddec_spin_density
 _atom_site_pbe_ddec_sum_bond_order
 _atom_site_pbe_magmom
Cd  Cd0  1  0.15496812  0.10003824  0.98903321  1  0  1.173182  0  1.728054  0  0  0.996589  0  2.179118  0  0  1.054705  0  2.122653  0  1.31436  0  0.786019  0.955136  0  2.217659  0
Cd  Cd1  1  0.84503704  0.89996259  0.01096525  1  0  1.17318  0  1.728073  0  0  0.996593  0  2.179124  0  0  1.054706  0  2.122664  0  1.314356  0  0.786017  0.955142  0  2.217664  0
Cd  Cd2  1  0.50000139  0.99999987  0.99999835  1  0  1.326179  0  1.651245  0  0  1.162138  0  2.116573  0  0  1.218067  0  2.051505  0  1.395574  0  0.807954  1.12154  0  2.161589  0
H  H3  1  0.33566645  0.52393911  0.81662386  1  0  0.120001  0  0.95065  0  0  0.124997  0  1.021178  0  0  0.129745  0  1.016558  0  0.121764  0  0.103181  0.121585  0  1.024455  0
H  H4  1  0.66433560  0.47606555  0.18337725  1  0  0.12004  0  0.950644  0  0  0.125019  0  1.021191  0  0  0.129769  0  1.016574  0  0.12175  0  0.103199  0.121614  0  1.024448  0
H  H5  1  0.73772631  0.67576236  0.83124317  1  0  0.118673  0  0.963654  0  0  0.127896  0  1.026253  0  0  0.130834  0  1.025451  0  0.11088  0  0.101969  0.125775  0  1.026823  0
H  H6  1  0.26227675  0.32423751  0.16875893  1  0  0.118683  0  0.963639  0  0  0.127906  0  1.026234  0  0  0.130841  0  1.025433  0  0.110934  0  0.101968  0.125796  0  1.026771  0
H  H7  1  0.61012956  0.29210440  0.99943656  1  0  0.12284  0  0.933532  0  0  0.131782  0  0.995598  0  0  0.135766  0  0.992467  0  0.115873  0  0.108168  0.128886  0  0.997928  0
H  H8  1  0.38987139  0.70789357  0.00056162  1  0  0.122863  0  0.933515  0  0  0.131805  0  0.995579  0  0  0.135789  0  0.992446  0  0.115925  0  0.108175  0.128905  0  0.997908  0
H  H9  1  0.93817679  0.68644375  0.18997744  1  0  0.1329  0  0.947405  0  0  0.14003  0  1.013854  0  0  0.144352  0  1.009709  0  0.156522  0  0.106984  0.13689  0  1.016875  0
H  H10  1  0.06182204  0.31355134  0.81002545  1  0  0.132932  0  0.947329  0  0  0.140059  0  1.013791  0  0  0.144381  0  1.009642  0  0.15659  0  0.106989  0.136918  0  1.016812  0
H  H11  1  0.12644893  0.45603590  0.42637138  1  0  0.106914  0  0.9896  0  0  0.111463  0  1.063537  0  0  0.115646  0  1.060045  0  0.101625  0  0.088063  0.108477  0  1.066006  0
H  H12  1  0.87354887  0.54396206  0.57363160  1  0  0.106953  0  0.989509  0  0  0.111477  0  1.063442  0  0  0.11566  0  1.05995  0  0.101696  0  0.088067  0.108491  0  1.065912  0
H  H13  1  0.36762927  0.75679711  0.21377421  1  0  0.128232  0  0.947363  0  0  0.134931  0  1.013499  0  0  0.138869  0  1.010676  0  0.148776  0  0.106709  0.132027  0  1.01569  0
H  H14  1  0.63236854  0.24320181  0.78623050  1  0  0.128229  0  0.947338  0  0  0.13494  0  1.013473  0  0  0.138877  0  1.010654  0  0.148984  0  0.106691  0.131992  0  1.015712  0
H  H15  1  0.58880767  0.08019413  0.69364216  1  0  0.118882  0  0.945163  0  0  0.128635  0  1.008501  0  0  0.132086  0  1.005808  0  0.096017  0  0.105583  0.126147  0  1.010497  0
H  H16  1  0.41119224  0.91980479  0.30635589  1  0  0.118873  0  0.945169  0  0  0.128618  0  1.008515  0  0  0.132068  0  1.005824  0  0.096166  0  0.105566  0.12613  0  1.010511  0
H  H17  1  0.38209838  0.20345620  0.44887628  1  0  0.108754  0  0.983168  0  0  0.11337  0  1.056474  0  0  0.117612  0  1.052876  0  0.131397  0  0.09027  0.110365  0  1.059008  0
H  H18  1  0.61790156  0.79654655  0.55112220  1  0  0.108777  0  0.983205  0  0  0.113397  0  1.056469  0  0  0.117639  0  1.052872  0  0.131393  0  0.090292  0.11039  0  1.059005  0
H  H19  1  0.13961925  0.11485582  0.71974637  1  0  0.126222  0  0.938081  0  0  0.134733  0  0.999863  0  0  0.138219  0  0.998011  0  0.138006  0  0.107553  0.132205  0  1.001322  0
H  H20  1  0.86037853  0.88514023  0.28025316  1  0  0.126207  0  0.938073  0  0  0.134752  0  0.999826  0  0  0.138239  0  0.99797  0  0.138647  0  0.107553  0.132216  0  1.001294  0
H  H21  1  0.26539576  0.04716013  0.18047694  1  0  0.096628  0  0.942466  0  0  0.103162  0  1.008687  0  0  0.105922  0  1.006222  0  0.140093  0  0.116672  0.101107  0  1.010499  0
H  H22  1  0.73460304  0.95283209  0.81952271  1  0  0.096604  0  0.942529  0  0  0.103147  0  1.008734  0  0  0.105893  0  1.006288  0  0.140056  0  0.116691  0.101093  0  1.010544  0
H  H23  1  0.19715587  0.07532156  0.33588525  1  0  0.093804  0  0.972495  0  0  0.097537  0  1.044908  0  0  0.101093  0  1.043414  0  0.104641  0  0.094944  0.094983  0  1.046121  0
H  H24  1  0.80283664  0.92467162  0.66411344  1  0  0.093796  0  0.972323  0  0  0.097556  0  1.044729  0  0  0.101114  0  1.043232  0  0.104553  0  0.094933  0.095002  0  1.045943  0
H  H25  1  0.96791761  0.18027254  0.36612391  1  0  0.081041  0  0.974785  0  0  0.088979  0  1.043929  0  0  0.092021  0  1.040987  0  0.089075  0  0.087651  0.086736  0  1.046057  0
H  H26  1  0.03208232  0.81972925  0.63387349  1  0  0.081002  0  0.974843  0  0  0.088945  0  1.043995  0  0  0.091989  0  1.041052  0  0.089257  0  0.087626  0.086698  0  1.046126  0
H  H27  1  0.81137350  0.24556206  0.24175773  1  0  0.092542  0  0.983824  0  0  0.096319  0  1.055987  0  0  0.099885  0  1.054682  0  0.085627  0  0.092452  0.093788  0  1.056991  0
H  H28  1  0.18862967  0.75445120  0.75823682  1  0  0.092534  0  0.983966  0  0  0.096351  0  1.056095  0  0  0.099924  0  1.054778  0  0.085793  0  0.092458  0.093821  0  1.057099  0
H  H29  1  0.89067815  0.20249125  0.09297813  1  0  0.07558  0  0.9597  0  0  0.08101  0  1.030307  0  0  0.083638  0  1.02749  0  0.106636  0  0.107484  0.078994  0  1.032488  0
H  H30  1  0.10933132  0.79752297  0.90701760  1  0  0.075524  0  0.9597  0  0  0.081021  0  1.030225  0  0  0.08365  0  1.027413  0  0.106687  0  0.107492  0.078994  0  1.032429  0
C  C31  1  0.35884884  0.29167500  0.94106447  1  0  0.653572  0  3.896679  0  0  0.602718  0  4.183197  0  0  0.637692  0  4.177291  0  1.559025  0  0.201611  0.579157  0  4.185971  0
C  C32  1  0.64115319  0.70832679  0.05893340  1  0  0.6536  0  3.896709  0  0  0.602779  0  4.183169  0  0  0.637752  0  4.177268  0  1.558968  0  0.201646  0.579219  0  4.185943  0
C  C33  1  0.46397149  0.39841625  0.91035952  1  0  -0.030549  0  3.74124  0  0  -0.000111  0  3.971518  0  0  -0.008565  0  3.994734  0  -0.03637  0  -0.012706  0.005146  0  3.956099  0
C  C34  1  0.53603159  0.60158554  0.08964020  1  0  -0.030597  0  3.741143  0  0  -0.000163  0  3.971407  0  0  -0.008618  0  3.994635  0  -0.036404  0  -0.012698  0.005098  0  3.955972  0
C  C35  1  0.43454978  0.51379040  0.84483252  1  0  -0.126782  0  3.732496  0  0  -0.166949  0  3.988263  0  0  -0.166023  0  4.006359  0  0.024363  0  -0.09265  -0.16723  0  3.975937  0
C  C36  1  0.56545436  0.48621330  0.15516862  1  0  -0.126732  0  3.732346  0  0  -0.166918  0  3.988195  0  0  -0.165969  0  4.006229  0  0.024268  0  -0.092642  -0.167197  0  3.975874  0
C  C37  1  0.53329065  0.61214261  0.81853702  1  0  0.104224  0  3.722121  0  0  0.12394  0  3.989819  0  0  0.125656  0  4.011151  0  -0.113455  0  -0.014175  0.122429  0  3.975523  0
C  C38  1  0.46671034  0.38786109  0.18146827  1  0  0.104273  0  3.721874  0  0  0.123949  0  3.989608  0  0  0.125668  0  4.010947  0  -0.113188  0  -0.014151  0.122435  0  3.975319  0
C  C39  1  0.66137918  0.59812167  0.85322117  1  0  -0.14547  0  3.717494  0  0  -0.177632  0  3.96311  0  0  -0.178204  0  3.982034  0  0.023443  0  -0.097727  -0.176904  0  3.950142  0
C  C40  1  0.33862389  0.40188012  0.14677985  1  0  -0.145565  0  3.717417  0  0  -0.177707  0  3.963032  0  0  -0.17828  0  3.981956  0  0.023447  0  -0.097777  -0.176975  0  3.950071  0
C  C41  1  0.68763778  0.48162572  0.91769513  1  0  0.103309  0  3.725654  0  0  0.122729  0  3.993578  0  0  0.123746  0  4.017041  0  -0.113512  0  -0.013904  0.12172  0  3.9777  0
C  C42  1  0.31236737  0.51837320  0.08230312  1  0  0.103315  0  3.725707  0  0  0.122748  0  3.993592  0  0  0.123767  0  4.017053  0  -0.113648  0  -0.01388  0.121737  0  3.977716  0
C  C43  1  0.59025424  0.38200445  0.94788602  1  0  -0.114483  0  3.710658  0  0  -0.153687  0  3.966613  0  0  -0.153833  0  3.987281  0  0.075962  0  -0.089805  -0.153293  0  3.952559  0
C  C44  1  0.40974881  0.61799351  0.05211262  1  0  -0.114544  0  3.71056  0  0  -0.153779  0  3.966589  0  0  -0.153925  0  3.987257  0  0.076065  0  -0.089877  -0.153386  0  3.952541  0
C  C45  1  0.16571952  0.84179112  0.10624028  1  0  0.676099  0  3.884918  0  0  0.621394  0  4.175898  0  0  0.657606  0  4.16752  0  1.564387  0  0.21272  0.596754  0  4.180914  0
C  C46  1  0.83428142  0.15820588  0.89376070  1  0  0.676177  0  3.884753  0  0  0.621448  0  4.175779  0  0  0.65766  0  4.167401  0  1.564461  0  0.212785  0.596806  0  4.180798  0
C  C47  1  0.15439780  0.73179640  0.19363393  1  0  -0.046983  0  3.750837  0  0  -0.019219  0  3.986123  0  0  -0.028523  0  4.009527  0  0.029137  0  -0.018352  -0.013335  0  3.97051  0
C  C48  1  0.84560001  0.26820252  0.80636884  1  0  -0.046973  0  3.750743  0  0  -0.019215  0  3.986076  0  0  -0.028518  0  4.009479  0  0.028679  0  -0.018369  -0.01333  0  3.970457  0
C  C49  1  0.02779677  0.66363785  0.22812628  1  0  -0.119867  0  3.704408  0  0  -0.158533  0  3.957015  0  0  -0.156808  0  3.974338  0  -0.017676  0  -0.091259  -0.159301  0  3.945294  0
C  C50  1  0.97219999  0.33636107  0.77187463  1  0  -0.119908  0  3.704298  0  0  -0.158557  0  3.956882  0  0  -0.156839  0  3.974219  0  -0.017744  0  -0.091229  -0.159324  0  3.945163  0
C  C51  1  0.02003315  0.56618938  0.31201182  1  0  0.108095  0  3.713273  0  0  0.128793  0  3.97871  0  0  0.129966  0  4.000873  0  -0.128668  0  -0.016784  0.127616  0  3.963803  0
C  C52  1  0.97996046  0.43380954  0.68799001  1  0  0.108138  0  3.713316  0  0  0.128836  0  3.978742  0  0  0.130008  0  4.000905  0  -0.128555  0  -0.016774  0.127659  0  3.963835  0
C  C53  1  0.13449497  0.53303967  0.36120272  1  0  -0.15982  0  3.748721  0  0  -0.191516  0  3.994287  0  0  -0.192411  0  4.013428  0  0.099852  0  -0.104136  -0.190614  0  3.981298  0
C  C54  1  0.86550179  0.46695925  0.63880143  1  0  -0.159896  0  3.7488  0  0  -0.191512  0  3.994329  0  0  -0.192407  0  4.013472  0  0.099816  0  -0.104116  -0.190611  0  3.981344  0
C  C55  1  0.25989197  0.60100887  0.32399939  1  0  0.109877  0  3.709604  0  0  0.131015  0  3.974724  0  0  0.132334  0  3.99694  0  -0.153538  0  -0.014928  0.129778  0  3.959874  0
C  C56  1  0.74010269  0.39899005  0.67600624  1  0  0.109783  0  3.709537  0  0  0.130894  0  3.974736  0  0  0.132216  0  3.996944  0  -0.153321  0  -0.015046  0.129659  0  3.959875  0
C  C57  1  0.27114352  0.70139139  0.24165527  1  0  -0.115021  0  3.696271  0  0  -0.151907  0  3.945529  0  0  -0.15142  0  3.965449  0  -0.019081  0  -0.091456  -0.152045  0  3.932253  0
C  C58  1  0.72885533  0.29860753  0.75834870  1  0  -0.114926  0  3.696144  0  0  -0.151837  0  3.945447  0  0  -0.151353  0  3.965362  0  -0.019419  0  -0.091329  -0.151937  0  3.932189  0
C  C59  1  0.35449089  0.05520202  0.81935737  1  0  0.66103  0  3.915762  0  0  0.609449  0  4.20555  0  0  0.64557  0  4.198169  0  1.551421  0  0.209994  0.584891  0  4.209719  0
C  C60  1  0.64551005  0.94479498  0.18064231  1  0  0.661027  0  3.915773  0  0  0.609447  0  4.205533  0  0  0.645568  0  4.198154  0  1.551474  0  0.209982  0.584888  0  4.209701  0
C  C61  1  0.36341047  0.09294600  0.71623300  1  0  -0.029514  0  3.737704  0  0  -0.003111  0  3.971249  0  0  -0.010909  0  3.993025  0  0.090229  0  -0.015905  0.001837  0  3.956824  0
C  C62  1  0.63659050  0.90705483  0.28376582  1  0  -0.029478  0  3.737796  0  0  -0.003042  0  3.971284  0  0  -0.010842  0  3.993062  0  0.090112  0  -0.01592  0.001905  0  3.956861  0
C  C63  1  0.49353774  0.10204847  0.66127241  1  0  -0.133461  0  3.748768  0  0  -0.171323  0  4.004401  0  0  -0.170223  0  4.022374  0  -0.01685  0  -0.099911  -0.171806  0  3.992392  0
C  C64  1  0.50646322  0.89795140  0.33872599  1  0  -0.133508  0  3.74884  0  0  -0.171363  0  4.004434  0  0  -0.170266  0  4.022413  0  -0.017011  0  -0.099906  -0.171847  0  3.992423  0
C  C65  1  0.49780138  0.14099267  0.56603680  1  0  0.106202  0  3.726406  0  0  0.125325  0  3.995732  0  0  0.127076  0  4.017596  0  -0.065916  0  -0.018175  0.12385  0  3.981126  0
C  C66  1  0.50219747  0.85900625  0.43396199  1  0  0.106226  0  3.726382  0  0  0.125337  0  3.995705  0  0  0.127088  0  4.017568  0  -0.066088  0  -0.018188  0.123862  0  3.981099  0
C  C67  1  0.37654673  0.17194183  0.52351429  1  0  -0.166601  0  3.762099  0  0  -0.199094  0  4.013228  0  0  -0.200414  0  4.032563  0  -0.016241  0  -0.107512  -0.197992  0  4.000269  0
C  C68  1  0.62345211  0.82805422  0.47648515  1  0  -0.166714  0  3.762082  0  0  -0.199195  0  4.013214  0  0  -0.200515  0  4.032546  0  -0.016022  0  -0.107569  -0.198091  0  4.000259  0
C  C69  1  0.24851315  0.16086738  0.58052468  1  0  0.105765  0  3.721582  0  0  0.12465  0  3.990439  0  0  0.126394  0  4.012273  0  -0.078511  0  -0.016695  0.123186  0  3.975921  0
C  C70  1  0.75148672  0.83912675  0.41947510  1  0  0.105801  0  3.721539  0  0  0.124689  0  3.990393  0  0  0.126436  0  4.012222  0  -0.078506  0  -0.016678  0.123226  0  3.975869  0
C  C71  1  0.23974389  0.12208672  0.67593483  1  0  -0.115997  0  3.710906  0  0  -0.15199  0  3.959635  0  0  -0.1517  0  3.979314  0  -0.047532  0  -0.091768  -0.152071  0  3.946654  0
C  C72  1  0.76025601  0.87791124  0.32406344  1  0  -0.116004  0  3.710832  0  0  -0.152054  0  3.959551  0  0  -0.151765  0  3.979232  0  -0.048183  0  -0.091781  -0.152126  0  3.946572  0
C  C73  1  0.16494481  0.08888441  0.19780583  1  0  0.121239  0  3.686295  0  0  0.09218  0  3.933122  0  0  0.098821  0  3.952868  0  0.422668  0  0.041487  0.087939  0  3.919652  0
C  C74  1  0.83504881  0.91111450  0.80219341  1  0  0.121163  0  3.686533  0  0  0.092106  0  3.933352  0  0  0.098755  0  3.9531  0  0.42252  0  0.041402  0.087868  0  3.919877  0
C  C75  1  0.12681724  0.10574856  0.28358336  1  0  -0.133674  0  3.767839  0  0  -0.142733  0  4.016658  0  0  -0.150638  0  4.03877  0  -0.007501  0  -0.089781  -0.137648  0  4.001694  0
C  C76  1  0.87317846  0.89424940  0.71641916  1  0  -0.13362  0  3.767583  0  0  -0.142699  0  4.016363  0  0  -0.150604  0  4.038473  0  -0.007341  0  -0.089706  -0.137611  0  4.001392  0
C  C77  1  0.99882296  0.16359009  0.30026351  1  0  -0.005542  0  3.740501  0  0  -0.022047  0  3.980562  0  0  -0.018608  0  4.000282  0  -0.056017  0  -0.071677  -0.023912  0  3.966895  0
C  C78  1  0.00118326  0.83641074  0.69973486  1  0  -0.005588  0  3.740586  0  0  -0.02211  0  3.980698  0  0  -0.01867  0  4.000417  0  -0.056488  0  -0.071687  -0.023967  0  3.967022  0
C  C79  1  0.91220640  0.20049249  0.23139056  1  0  -0.118567  0  3.737011  0  0  -0.12624  0  3.981339  0  0  -0.134696  0  4.003958  0  -0.027139  0  -0.086628  -0.120812  0  3.966149  0
C  C80  1  0.08780196  0.79951408  0.76860245  1  0  -0.118478  0  3.737199  0  0  -0.126206  0  3.981548  0  0  -0.134662  0  4.004169  0  -0.027047  0  -0.086632  -0.120777  0  3.966354  0
C  C81  1  0.95595733  0.17760529  0.14817890  1  0  0.139553  0  3.703144  0  0  0.105884  0  3.957123  0  0  0.114281  0  3.974933  0  0.503642  0  0.04461  0.100406  0  3.945117  0
C  C82  1  0.04404583  0.82240606  0.85181413  1  0  0.139664  0  3.702837  0  0  0.105943  0  3.956851  0  0  0.114335  0  3.974666  0  0.503468  0  0.044714  0.100465  0  3.944867  0
Br  Br83  1  0.49204882  0.77320796  0.73434373  1  0  -0.052709  0  1.321347  0  0  -0.038526  0  1.579254  0  0  -0.043913  0  1.572961  0  -0.07063  0  0.063167  -0.034714  0  1.583777  0
Br  Br84  1  0.50794178  0.22680913  0.26567370  1  0  -0.052723  0  1.321377  0  0  -0.038516  0  1.579307  0  0  -0.043905  0  1.573012  0  -0.070789  0  0.063161  -0.034709  0  1.583833  0
Br  Br85  1  0.86235909  0.45867541  0.96483258  1  0  -0.045189  0  1.357971  0  0  -0.033513  0  1.628432  0  0  -0.038752  0  1.622843  0  -0.052129  0  0.056226  -0.029698  0  1.632501  0
Br  Br86  1  0.13764501  0.54132255  0.03516727  1  0  -0.04517  0  1.357974  0  0  -0.033499  0  1.628425  0  0  -0.038736  0  1.622835  0  -0.052035  0  0.056236  -0.029684  0  1.632493  0
Br  Br87  1  0.84774841  0.47449427  0.36290983  1  0  -0.076197  0  1.253556  0  0  -0.069352  0  1.499069  0  0  -0.073137  0  1.492106  0  -0.068977  0  0.026106  -0.066493  0  1.504081  0
Br  Br88  1  0.15225250  0.52549891  0.63709266  1  0  -0.076204  0  1.253476  0  0  -0.069364  0  1.498981  0  0  -0.073137  0  1.491996  0  -0.06892  0  0.026099  -0.0665  0  1.503984  0
Br  Br89  1  0.41997767  0.55258158  0.38735476  1  0  -0.065048  0  1.255616  0  0  -0.05985  0  1.501176  0  0  -0.064463  0  1.49661  0  -0.064291  0  0.026381  -0.056566  0  1.504649  0
Br  Br90  1  0.58002114  0.44741160  0.61264726  1  0  -0.065036  0  1.255646  0  0  -0.059842  0  1.501221  0  0  -0.064452  0  1.496656  0  -0.064235  0  0.026381  -0.056557  0  1.504691  0
Br  Br91  1  0.67604739  0.15294695  0.49197569  1  0  -0.075077  0  1.288994  0  0  -0.066419  0  1.548752  0  0  -0.071354  0  1.54218  0  -0.077809  0  0.027428  -0.062834  0  1.553586  0
Br  Br92  1  0.32395147  0.84705197  0.50801986  1  0  -0.075048  0  1.288976  0  0  -0.066397  0  1.548744  0  0  -0.07132  0  1.542146  0  -0.077772  0  0.027445  -0.062815  0  1.553579  0
Br  Br93  1  0.07785866  0.19821066  0.52762028  1  0  -0.066403  0  1.283288  0  0  -0.056174  0  1.534043  0  0  -0.06116  0  1.527741  0  -0.079647  0  0.045647  -0.052507  0  1.538538  0
Br  Br94  1  0.92213701  0.80178348  0.47237727  1  0  -0.066375  0  1.283393  0  0  -0.056154  0  1.534154  0  0  -0.061143  0  1.527849  0  -0.079568  0  0.045679  -0.052488  0  1.538647  0
N  N95  1  0.08051019  0.12409504  0.13131222  1  0  -0.339597  0  3.253465  0  0  -0.258733  0  3.516393  0  0  -0.280862  0  3.536441  0  -1.244033  0  -0.331255  -0.243671  0  3.502544  0
N  N96  1  0.91948766  0.87590961  0.86868472  1  0  -0.339593  0  3.253409  0  0  -0.258736  0  3.516367  0  0  -0.280862  0  3.536408  0  -1.243796  0  -0.331342  -0.243673  0  3.502516  0
O  O97  1  0.24491496  0.30665037  0.90659424  1  0  -0.61251  0  1.960525  0  0  -0.555311  0  2.199592  0  0  -0.583198  0  2.189782  0  -1.14991  0  -0.318172  -0.535726  0  2.205486  0
O  O98  1  0.75508602  0.69335046  0.09340394  1  0  -0.61254  0  1.960512  0  0  -0.555351  0  2.199568  0  0  -0.583241  0  2.18976  0  -1.149833  0  -0.3182  -0.535768  0  2.205462  0
O  O99  1  0.38727979  0.18804760  0.00333902  1  0  -0.706404  0  2.065335  0  0  -0.634541  0  2.329842  0  0  -0.665646  0  2.316793  0  -1.193852  0  -0.343854  -0.612446  0  2.33759  0
O  O100  1  0.61272539  0.81195418  0.99665857  1  0  -0.706394  0  2.065448  0  0  -0.63453  0  2.329924  0  0  -0.665637  0  2.316881  0  -1.193922  0  -0.343847  -0.612434  0  2.33767  0
O  O101  1  0.06021321  0.87419871  0.06252277  1  0  -0.670933  0  2.096191  0  0  -0.597485  0  2.370345  0  0  -0.628417  0  2.356022  0  -1.190117  0  -0.334731  -0.575803  0  2.379532  0
O  O102  1  0.93978985  0.12580116  0.93747803  1  0  -0.67095  0  2.096062  0  0  -0.597481  0  2.370209  0  0  -0.628414  0  2.355889  0  -1.190076  0  -0.334758  -0.575798  0  2.379396  0
O  O103  1  0.27973653  0.90602485  0.08053949  1  0  -0.686924  0  2.094761  0  0  -0.617928  0  2.364873  0  0  -0.647714  0  2.350715  0  -1.193127  0  -0.329501  -0.596923  0  2.373876  0
O  O104  1  0.72026754  0.09397025  0.91946165  1  0  -0.686982  0  2.094811  0  0  -0.617991  0  2.364958  0  0  -0.647774  0  2.350795  0  -1.19316  0  -0.329587  -0.596984  0  2.373955  0
O  O105  1  0.47053314  0.04253239  0.85231025  1  0  -0.64781  0  2.046296  0  0  -0.581677  0  2.306825  0  0  -0.612511  0  2.294376  0  -1.152441  0  -0.321927  -0.56005  0  2.314563  0
O  O106  1  0.52946676  0.95746653  0.14768844  1  0  -0.647846  0  2.046264  0  0  -0.581726  0  2.306797  0  0  -0.612561  0  2.29435  0  -1.152474  0  -0.321916  -0.560094  0  2.314529  0
O  O107  1  0.23234032  0.04043609  0.86433438  1  0  -0.641101  0  2.070348  0  0  -0.574948  0  2.32587  0  0  -0.604457  0  2.314794  0  -1.168268  0  -0.327652  -0.554162  0  2.332515  0
O  O108  1  0.76766062  0.95956092  0.13566465  1  0  -0.641077  0  2.070283  0  0  -0.574922  0  2.325804  0  0  -0.604423  0  2.31471  0  -1.168287  0  -0.327653  -0.554144  0  2.332465  0
