# generated using pymatgen
data_ZnH9C16N3O5
_symmetry_space_group_name_H-M   'P 1'
_cell_length_a   10.39816656
_cell_length_b   13.89429466
_cell_length_c   15.13000000
_cell_angle_alpha   90.00000000
_cell_angle_beta   103.53508105
_cell_angle_gamma   90.00000000
_symmetry_Int_Tables_number   1
_chemical_formula_structural   ZnH9C16N3O5
_chemical_formula_sum   'Zn4 H36 C64 N12 O20'
_cell_volume   2125.19993176
_cell_formula_units_Z   4
loop_
 _symmetry_equiv_pos_site_id
 _symmetry_equiv_pos_as_xyz
  1  'x, y, z'
loop_
 _atom_site_type_symbol
 _atom_site_label
 _atom_site_symmetry_multiplicity
 _atom_site_fract_x
 _atom_site_fract_y
 _atom_site_fract_z
 _atom_site_occupancy
 _atom_site_hle17_bader_spin_density
 _atom_site_hle17_ddec_charge
 _atom_site_hle17_ddec_spin_density
 _atom_site_hle17_ddec_sum_bond_order
 _atom_site_hle17_magmom
 _atom_site_hse06_10hf_bader_spin_density
 _atom_site_hse06_10hf_ddec_charge
 _atom_site_hse06_10hf_ddec_spin_density
 _atom_site_hse06_10hf_ddec_sum_bond_order
 _atom_site_hse06_10hf_magmom
 _atom_site_hse06_bader_spin_density
 _atom_site_hse06_ddec_charge
 _atom_site_hse06_ddec_spin_density
 _atom_site_hse06_ddec_sum_bond_order
 _atom_site_hse06_magmom
 _atom_site_pbe_bader_charge
 _atom_site_pbe_bader_spin_density
 _atom_site_pbe_cm5_charge
 _atom_site_pbe_ddec_charge
 _atom_site_pbe_ddec_spin_density
 _atom_site_pbe_ddec_sum_bond_order
 _atom_site_pbe_magmom
Zn  Zn0  1  0.17041309  0.84919820  0.57966201  1  0  1.049976  0  1.858672  0  0  0.862181  0  2.344909  0  0  0.905143  0  2.2914  0  1.259437  0  0.710352  0.831491  0  2.382232  0
Zn  Zn1  1  0.32958710  0.34920017  0.42033716  1  0  1.049951  0  1.858733  0  0  0.862136  0  2.344992  0  0  0.905092  0  2.291497  0  1.259452  0  0.710305  0.831446  0  2.382318  0
Zn  Zn2  1  0.82958630  0.15080003  0.42033749  1  0  1.04994  0  1.85874  0  0  0.862124  0  2.344996  0  0  0.905091  0  2.291488  0  1.259444  0  0.710311  0.831438  0  2.382321  0
Zn  Zn3  1  0.67041228  0.65080166  0.57966169  1  0  1.049964  0  1.858663  0  0  0.862163  0  2.344907  0  0  0.90512  0  2.291403  0  1.259455  0  0.710341  0.83147  0  2.382232  0
H  H4  1  0.30042902  0.00757937  0.65409070  1  0  0.430816  0  0.817285  0  0  0.419506  0  0.858122  0  0  0.4266  0  0.848193  0  0.607475  0  0.334506  0.414322  0  0.865462  0
H  H5  1  0.19957215  0.50757956  0.34590929  1  0  0.430817  0  0.817287  0  0  0.4195  0  0.858131  0  0  0.426595  0  0.8482  0  0.607474  0  0.334504  0.414317  0  0.865471  0
H  H6  1  0.69957135  0.99242029  0.34590897  1  0  0.430818  0  0.817282  0  0  0.419504  0  0.858126  0  0  0.4266  0  0.848195  0  0.607465  0  0.334495  0.414319  0  0.865468  0
H  H7  1  0.80042822  0.49242082  0.65409103  1  0  0.430796  0  0.817272  0  0  0.419487  0  0.858139  0  0  0.426581  0  0.84821  0  0.607482  0  0.334509  0.414305  0  0.865478  0
H  H8  1  0.14908734  0.03876699  0.59804085  1  0  0.449975  0  0.854811  0  0  0.411892  0  0.92814  0  0  0.42458  0  0.909973  0  0.673972  0  0.289256  0.402932  0  0.940947  0
H  H9  1  0.35091186  0.53876790  0.40196014  1  0  0.449968  0  0.854829  0  0  0.411883  0  0.928162  0  0  0.424591  0  0.909962  0  0.673967  0  0.289258  0.402924  0  0.94097  0
H  H10  1  0.85091105  0.96123195  0.40195982  1  0  0.449922  0  0.854889  0  0  0.411839  0  0.928217  0  0  0.424528  0  0.91005  0  0.673991  0  0.289241  0.40288  0  0.941024  0
H  H11  1  0.64908752  0.46123320  0.59804068  1  0  0.450084  0  0.854661  0  0  0.411936  0  0.928086  0  0  0.424623  0  0.909921  0  0.673969  0  0.289285  0.402976  0  0.940895  0
H  H12  1  0.90533281  0.74264943  0.50951305  1  0  0.092072  0  0.925665  0  0  0.102223  0  0.984525  0  0  0.104817  0  0.980457  0  0.170238  0  0.136615  0.100268  0  0.987505  0
H  H13  1  0.59466478  0.24264708  0.49048596  1  0  0.092121  0  0.925632  0  0  0.102268  0  0.984487  0  0  0.104865  0  0.980422  0  0.170228  0  0.136624  0.100313  0  0.987467  0
H  H14  1  0.09466558  0.25735311  0.49048629  1  0  0.092113  0  0.925641  0  0  0.102261  0  0.984494  0  0  0.104859  0  0.980428  0  0.170224  0  0.136616  0.100306  0  0.987474  0
H  H15  1  0.40533361  0.75735187  0.50951404  1  0  0.092112  0  0.925651  0  0  0.102261  0  0.984503  0  0  0.104856  0  0.980441  0  0.170252  0  0.136633  0.100306  0  0.987483  0
H  H16  1  0.14706150  0.91943062  0.79167402  1  0  0.114063  0  0.938149  0  0  0.12373  0  0.998897  0  0  0.127315  0  0.99614  0  0.106848  0  0.112391  0.121253  0  1.000766  0
H  H17  1  0.35293869  0.41942899  0.20832515  1  0  0.114079  0  0.938106  0  0  0.123745  0  0.998857  0  0  0.127332  0  0.996079  0  0.106881  0  0.112394  0.121244  0  1.000754  0
H  H18  1  0.85293887  0.08056976  0.20832630  1  0  0.114064  0  0.938158  0  0  0.123741  0  0.998891  0  0  0.127336  0  0.996096  0  0.106862  0  0.112394  0.121241  0  1.000787  0
H  H19  1  0.64706168  0.58056923  0.79167386  1  0  0.114076  0  0.938089  0  0  0.123735  0  0.998847  0  0  0.127321  0  0.99609  0  0.106852  0  0.112406  0.121249  0  1.000726  0
H  H20  1  0.73060492  0.72800241  0.79207507  1  0  0.107416  0  0.996465  0  0  0.115274  0  1.064504  0  0  0.118144  0  1.063026  0  0.089721  0  0.105032  0.113269  0  1.065555  0
H  H21  1  0.76939564  0.22800006  0.20792575  1  0  0.107397  0  0.996473  0  0  0.11525  0  1.064518  0  0  0.118121  0  1.063052  0  0.089698  0  0.105026  0.113247  0  1.065568  0
H  H22  1  0.26939249  0.27200013  0.20792412  1  0  0.10737  0  0.996534  0  0  0.115262  0  1.064532  0  0  0.118131  0  1.063066  0  0.089752  0  0.105038  0.113258  0  1.065582  0
H  H23  1  0.23060671  0.77200033  0.79207621  1  0  0.107392  0  0.996509  0  0  0.115284  0  1.064506  0  0  0.118155  0  1.063029  0  0.089736  0  0.105047  0.11328  0  1.065558  0
H  H24  1  0.79840930  0.88782053  0.10391831  1  0  0.123107  0  0.935446  0  0  0.13311  0  0.990286  0  0  0.136986  0  0.987792  0  0.130107  0  0.113813  0.130265  0  0.992339  0
H  H25  1  0.70159423  0.38781961  0.89608166  1  0  0.123086  0  0.935427  0  0  0.133093  0  0.990269  0  0  0.136969  0  0.987775  0  0.130072  0  0.11381  0.130248  0  0.992323  0
H  H26  1  0.20159008  0.11218058  0.89608053  1  0  0.123049  0  0.935439  0  0  0.133103  0  0.990283  0  0  0.136978  0  0.987791  0  0.130115  0  0.113824  0.13026  0  0.992336  0
H  H27  1  0.29840713  0.61218077  0.10391882  1  0  0.123076  0  0.935418  0  0  0.133082  0  0.990263  0  0  0.136946  0  0.98779  0  0.130091  0  0.113802  0.130239  0  0.992316  0
H  H28  1  0.82937164  0.88722532  0.27177355  1  0  0.079073  0  0.970546  0  0  0.089749  0  1.032071  0  0  0.092952  0  1.030241  0  0.04956  0  0.09941  0.087445  0  1.033793  0
H  H29  1  0.67062990  0.38722369  0.72822610  1  0  0.079062  0  0.970557  0  0  0.089737  0  1.032086  0  0  0.092942  0  1.030253  0  0.049549  0  0.099376  0.087432  0  1.033809  0
H  H30  1  0.17062774  0.11277507  0.72822529  1  0  0.079068  0  0.970566  0  0  0.089758  0  1.032076  0  0  0.092961  0  1.030243  0  0.04945  0  0.099408  0.087454  0  1.033797  0
H  H31  1  0.32937047  0.61277598  0.27177356  1  0  0.079075  0  0.970553  0  0  0.089752  0  1.032075  0  0  0.092796  0  1.030166  0  0.049554  0  0.09938  0.087448  0  1.033796  0
H  H32  1  0.21419521  0.83152692  0.13517807  1  0  0.124651  0  0.935515  0  0  0.133458  0  0.993519  0  0  0.137324  0  0.991327  0  0.147792  0  0.111945  0.130661  0  0.995317  0
H  H33  1  0.28580695  0.33152672  0.86482274  1  0  0.124624  0  0.935484  0  0  0.133412  0  0.993511  0  0  0.137279  0  0.991318  0  0.14782  0  0.111923  0.130615  0  0.99531  0
H  H34  1  0.78580318  0.16847203  0.86482128  1  0  0.124614  0  0.935408  0  0  0.133477  0  0.993414  0  0  0.137345  0  0.99122  0  0.147795  0  0.111945  0.13068  0  0.995213  0
H  H35  1  0.71419441  0.66847222  0.13517774  1  0  0.124672  0  0.935437  0  0  0.133487  0  0.993434  0  0  0.137354  0  0.991239  0  0.147807  0  0.111943  0.13069  0  0.995234  0
H  H36  1  0.24561753  0.83607411  0.30464133  1  0  0.099689  0  0.940042  0  0  0.109963  0  0.997599  0  0  0.113335  0  0.995471  0  0.087866  0  0.103901  0.107395  0  0.999434  0
H  H37  1  0.25438365  0.33607391  0.69535932  1  0  0.099721  0  0.940046  0  0  0.109998  0  0.997595  0  0  0.113374  0  0.995462  0  0.087881  0  0.10392  0.10743  0  0.99943  0
H  H38  1  0.75438185  0.16392484  0.69535817  1  0  0.099652  0  0.940072  0  0  0.10994  0  0.997614  0  0  0.113316  0  0.995481  0  0.087855  0  0.103897  0.107373  0  0.999449  0
H  H39  1  0.74561771  0.66392575  0.30464116  1  0  0.099677  0  0.94003  0  0  0.109951  0  0.997589  0  0  0.113324  0  0.99546  0  0.087873  0  0.103902  0.107385  0  0.999424  0
C  C40  1  0.91467562  0.76241510  0.58009512  1  0  0.287931  0  3.698194  0  0  0.229186  0  3.967787  0  0  0.247924  0  3.977835  0  0.977596  0  0.155917  0.21696  0  3.960199  0
C  C41  1  0.58532296  0.26241346  0.41990406  1  0  0.287858  0  3.698225  0  0  0.229111  0  3.967815  0  0  0.247841  0  3.977877  0  0.977589  0  0.155924  0.216885  0  3.960228  0
C  C42  1  0.08532178  0.23758673  0.41990407  1  0  0.287876  0  3.698138  0  0  0.229139  0  3.967728  0  0  0.24787  0  3.977789  0  0.977588  0  0.155933  0.216913  0  3.96014  0
C  C43  1  0.41467741  0.73758620  0.58009626  1  0  0.287885  0  3.69821  0  0  0.229148  0  3.967804  0  0  0.247877  0  3.977865  0  0.977579  0  0.155909  0.216922  0  3.960216  0
C  C44  1  0.87049485  0.77556510  0.71265969  1  0  0.156032  0  3.829868  0  0  0.152963  0  4.072778  0  0  0.156265  0  4.097086  0  0.337492  0  0.089371  0.150611  0  4.05641  0
C  C45  1  0.62950669  0.27556419  0.28734063  1  0  0.156132  0  3.829825  0  0  0.153065  0  4.072708  0  0  0.156379  0  4.097001  0  0.337519  0  0.089406  0.150714  0  4.056344  0
C  C46  1  0.12950255  0.22443745  0.28733950  1  0  0.156035  0  3.829967  0  0  0.152987  0  4.072844  0  0  0.156301  0  4.097133  0  0.337491  0  0.0894  0.150636  0  4.056476  0
C  C47  1  0.37049665  0.72443692  0.71266083  1  0  0.156026  0  3.829913  0  0  0.152993  0  4.072791  0  0  0.156294  0  4.097099  0  0.337535  0  0.089403  0.150642  0  4.056422  0
C  C48  1  0.98787598  0.82904172  0.71254786  1  0  0.156845  0  3.788675  0  0  0.153131  0  4.032974  0  0  0.156798  0  4.057104  0  0.401011  0  0.093003  0.150596  0  4.016682  0
C  C49  1  0.51212457  0.32904081  0.28745296  1  0  0.15677  0  3.788685  0  0  0.153066  0  4.032968  0  0  0.156766  0  4.056953  0  0.401019  0  0.092975  0.15053  0  4.016671  0
C  C50  1  0.01212439  0.17096082  0.28745181  1  0  0.156792  0  3.788719  0  0  0.153073  0  4.033017  0  0  0.156771  0  4.057004  0  0.400769  0  0.092903  0.150538  0  4.016717  0
C  C51  1  0.48787778  0.67096101  0.71254834  1  0  0.156746  0  3.788817  0  0  0.152995  0  4.033161  0  0  0.156662  0  4.057291  0  0.400754  0  0.0929  0.150459  0  4.016864  0
C  C52  1  0.05851499  0.87720538  0.79056522  1  0  -0.125777  0  3.705204  0  0  -0.151802  0  3.963109  0  0  -0.152752  0  3.98081  0  -0.043591  0  -0.073096  -0.151083  0  3.950985  0
C  C53  1  0.44148619  0.37720375  0.20943411  1  0  -0.125711  0  3.705163  0  0  -0.151734  0  3.963045  0  0  -0.152119  0  3.981229  0  -0.043546  0  -0.073084  -0.150995  0  3.95093  0
C  C54  1  0.94148440  0.12279645  0.20943363  1  0  -0.125727  0  3.705215  0  0  -0.151746  0  3.963088  0  0  -0.15213  0  3.981245  0  -0.043399  0  -0.073046  -0.151007  0  3.950971  0
C  C55  1  0.55851616  0.62279592  0.79056587  1  0  -0.125711  0  3.705127  0  0  -0.151709  0  3.963035  0  0  -0.152663  0  3.980739  0  -0.043379  0  -0.073063  -0.150984  0  3.950913  0
C  C56  1  0.01031419  0.86485930  0.86783282  1  0  -0.062686  0  3.794748  0  0  -0.065102  0  4.056237  0  0  -0.070408  0  4.079253  0  0.015186  0  -0.014209  -0.06158  0  4.040699  0
C  C57  1  0.48968699  0.36485695  0.13216849  1  0  -0.062761  0  3.79482  0  0  -0.065192  0  4.056326  0  0  -0.07227  0  4.08169  0  0.015187  0  -0.014235  -0.061664  0  4.040759  0
C  C58  1  0.98968421  0.13514180  0.13216719  1  0  -0.062645  0  3.794997  0  0  -0.065057  0  4.05644  0  0  -0.072115  0  4.081792  0  0.015194  0  -0.014196  -0.061533  0  4.040897  0
C  C59  1  0.51031338  0.63514127  0.86783183  1  0  -0.062719  0  3.794804  0  0  -0.065148  0  4.056306  0  0  -0.07045  0  4.07932  0  0.015226  0  -0.014232  -0.061624  0  4.040764  0
C  C60  1  0.89433807  0.81195270  0.86683779  1  0  -0.07662  0  3.846698  0  0  -0.066593  0  4.088439  0  0  -0.073133  0  4.111888  0  -0.037141  0  -0.015414  -0.06228  0  4.07263  0
C  C61  1  0.60566348  0.31195106  0.13316186  1  0  -0.076696  0  3.846726  0  0  -0.06665  0  4.088452  0  0  -0.072671  0  4.112255  0  -0.036862  0  -0.015465  -0.062238  0  4.072712  0
C  C62  1  0.10565835  0.18804913  0.13316058  1  0  -0.076725  0  3.846779  0  0  -0.066587  0  4.088563  0  0  -0.072718  0  4.112286  0  -0.037106  0  -0.015518  -0.062286  0  4.072747  0
C  C63  1  0.39433689  0.68804716  0.86683846  1  0  -0.076621  0  3.846771  0  0  -0.066595  0  4.08851  0  0  -0.073138  0  4.11196  0  -0.0372  0  -0.015445  -0.062285  0  4.072705  0
C  C64  1  0.81994970  0.76769064  0.79011663  1  0  -0.123319  0  3.71912  0  0  -0.151081  0  3.963796  0  0  -0.151215  0  3.981379  0  0.09487  0  -0.079662  -0.150903  0  3.951852  0
C  C65  1  0.68005086  0.26768901  0.20988352  1  0  -0.123296  0  3.719082  0  0  -0.151062  0  3.963754  0  0  -0.15117  0  3.981241  0  0.094851  0  -0.079643  -0.150883  0  3.951799  0
C  C66  1  0.18004672  0.23231118  0.20988239  1  0  -0.12325  0  3.719188  0  0  -0.15104  0  3.963825  0  0  -0.151152  0  3.981327  0  0.0949  0  -0.07964  -0.150862  0  3.951883  0
C  C67  1  0.31995149  0.73231065  0.79011778  1  0  -0.12326  0  3.719157  0  0  -0.151057  0  3.963819  0  0  -0.151189  0  3.9814  0  0.094892  0  -0.079656  -0.15088  0  3.951876  0
C  C68  1  0.06784494  0.89536895  0.96280152  1  0  0.533773  0  3.765097  0  0  0.482133  0  4.071665  0  0  0.511674  0  4.069097  0  1.37226  0  0.253101  0.461992  0  4.073048  0
C  C69  1  0.43215822  0.39536804  0.03719879  1  0  0.533965  0  3.76509  0  0  0.482329  0  4.071647  0  0  0.512374  0  4.069261  0  1.37217  0  0.253185  0.462192  0  4.073018  0
C  C70  1  0.93215543  0.10463216  0.03719814  1  0  0.53373  0  3.765088  0  0  0.482125  0  4.071654  0  0  0.51216  0  4.069279  0  1.372229  0  0.253099  0.461983  0  4.073039  0
C  C71  1  0.56784216  0.60463019  0.96280088  1  0  0.533776  0  3.765045  0  0  0.48214  0  4.071614  0  0  0.511681  0  4.069047  0  1.37214  0  0.253107  0.461998  0  4.072997  0
C  C72  1  0.87378487  0.80713561  0.95972093  1  0  0.52667  0  3.799707  0  0  0.484633  0  4.079861  0  0  0.514171  0  4.077843  0  1.330317  0  0.252385  0.464509  0  4.080811  0
C  C73  1  0.62621866  0.30713398  0.04028037  1  0  0.526708  0  3.799724  0  0  0.48465  0  4.0799  0  0  0.514218  0  4.077768  0  1.33  0  0.252403  0.464192  0  4.081345  0
C  C74  1  0.12621847  0.19286765  0.04027657  1  0  0.526581  0  3.799824  0  0  0.484254  0  4.080444  0  0  0.514174  0  4.077787  0  1.33042  0  0.25245  0.464164  0  4.08134  0
C  C75  1  0.37378666  0.69286281  0.95971877  1  0  0.5266  0  3.799513  0  0  0.484581  0  4.079645  0  0  0.514116  0  4.077636  0  1.330217  0  0.252407  0.464456  0  4.080595  0
C  C76  1  0.00461453  0.86005805  0.11045472  1  0  0.240039  0  3.764064  0  0  0.228917  0  4.015882  0  0  0.237808  0  4.036777  0  0.34901  0  0.104742  0.222921  0  4.001439  0
C  C77  1  0.49538863  0.36005786  0.88954625  1  0  0.240064  0  3.76414  0  0  0.228968  0  4.015931  0  0  0.237859  0  4.036827  0  0.349017  0  0.104716  0.222974  0  4.001477  0
C  C78  1  0.99538584  0.13994161  0.88954428  1  0  0.239433  0  3.764242  0  0  0.228897  0  4.015937  0  0  0.237786  0  4.036844  0  0.348795  0  0.104692  0.222899  0  4.001494  0
C  C79  1  0.50461372  0.63994037  0.11045373  1  0  0.239902  0  3.764312  0  0  0.228872  0  4.016023  0  0  0.23774  0  4.03696  0  0.349031  0  0.104713  0.222875  0  4.001578  0
C  C80  1  0.89547661  0.87575442  0.14818682  1  0  -0.140127  0  3.731996  0  0  -0.163669  0  3.990604  0  0  -0.168038  0  4.009776  0  0.017944  0  -0.086925  -0.1607  0  3.977666  0
C  C81  1  0.60452592  0.37575351  0.85181300  1  0  -0.1401  0  3.732012  0  0  -0.163657  0  3.990617  0  0  -0.168025  0  4.00979  0  0.017922  0  -0.086929  -0.160685  0  3.977678  0
C  C82  1  0.10452376  0.12424596  0.85181285  1  0  -0.139702  0  3.731832  0  0  -0.163617  0  3.990624  0  0  -0.167987  0  4.009795  0  0.017918  0  -0.086923  -0.160649  0  3.977687  0
C  C83  1  0.39547544  0.62424615  0.14818682  1  0  -0.139971  0  3.731984  0  0  -0.163549  0  3.990569  0  0  -0.16791  0  4.009692  0  0.017946  0  -0.086884  -0.16058  0  3.977631  0
C  C84  1  0.91387241  0.87667782  0.24185885  1  0  -0.070501  0  3.798229  0  0  -0.092418  0  4.047232  0  0  -0.093261  0  4.070566  0  -0.013355  0  -0.088124  -0.091757  0  4.031678  0
C  C85  1  0.58612914  0.37667691  0.75814146  1  0  -0.070493  0  3.798201  0  0  -0.092425  0  4.047197  0  0  -0.093269  0  4.070529  0  -0.013362  0  -0.088127  -0.091764  0  4.031645  0
C  C86  1  0.08612698  0.12332184  0.75814065  1  0  -0.070589  0  3.798141  0  0  -0.092478  0  4.047188  0  0  -0.093319  0  4.070514  0  -0.013238  0  -0.08813  -0.091818  0  4.031636  0
C  C87  1  0.41387123  0.62332275  0.24185886  1  0  -0.070558  0  3.798214  0  0  -0.09248  0  4.047226  0  0  -0.093039  0  4.070279  0  -0.013175  0  -0.08813  -0.091818  0  4.031672  0
C  C88  1  0.13135232  0.84551107  0.16604747  1  0  -0.144282  0  3.703318  0  0  -0.164727  0  3.955419  0  0  -0.169474  0  3.974292  0  -0.066083  0  -0.085135  -0.161531  0  3.942701  0
C  C89  1  0.36865084  0.34551088  0.83395284  1  0  -0.144188  0  3.703324  0  0  -0.164621  0  3.955414  0  0  -0.169364  0  3.974288  0  -0.066061  0  -0.085074  -0.161423  0  3.942696  0
C  C90  1  0.86864706  0.15448859  0.83395071  1  0  -0.143913  0  3.703123  0  0  -0.164746  0  3.955403  0  0  -0.169489  0  3.974272  0  -0.06607  0  -0.085105  -0.161548  0  3.942685  0
C  C91  1  0.63135250  0.65448806  0.16604862  1  0  -0.144234  0  3.703382  0  0  -0.164719  0  3.955464  0  0  -0.169471  0  3.974354  0  -0.066083  0  -0.085098  -0.161521  0  3.942745  0
C  C92  1  0.14822675  0.84756515  0.25999959  1  0  -0.053732  0  3.754098  0  0  -0.077645  0  4.001006  0  0  -0.076659  0  4.021805  0  0.021369  0  -0.083751  -0.078009  0  3.986915  0
C  C93  1  0.35177343  0.34756424  0.74000091  1  0  -0.053792  0  3.754175  0  0  -0.077728  0  4.001076  0  0  -0.076737  0  4.021866  0  0.021367  0  -0.083771  -0.07809  0  3.986986  0
C  C94  1  0.85177263  0.15243451  0.73999992  1  0  -0.053743  0  3.754096  0  0  -0.077619  0  4.001036  0  0  -0.07663  0  4.021827  0  0.021341  0  -0.083754  -0.077983  0  3.986945  0
C  C95  1  0.64822694  0.65243398  0.25999876  1  0  -0.053733  0  3.754142  0  0  -0.077661  0  4.001074  0  0  -0.07669  0  4.021906  0  0.021359  0  -0.083766  -0.078024  0  3.986983  0
C  C96  1  0.03991245  0.86359188  0.29864644  1  0  -0.091232  0  3.816952  0  0  -0.068214  0  4.049026  0  0  -0.078366  0  4.075126  0  -0.099013  0  -0.028992  -0.061663  0  4.03132  0
C  C97  1  0.46008773  0.36359096  0.70135339  1  0  -0.091328  0  3.816971  0  0  -0.068252  0  4.049  0  0  -0.078409  0  4.0751  0  -0.098991  0  -0.029008  -0.061704  0  4.031296  0
C  C98  1  0.96008693  0.13640851  0.70135306  1  0  -0.09134  0  3.817041  0  0  -0.068213  0  4.048988  0  0  -0.078368  0  4.075087  0  -0.099018  0  -0.028997  -0.061663  0  4.031283  0
C  C99  1  0.53991165  0.63640798  0.29864612  1  0  -0.091195  0  3.816868  0  0  -0.068159  0  4.048947  0  0  -0.078323  0  4.075029  0  -0.09919  0  -0.028955  -0.061614  0  4.031243  0
C  C100  1  0.05666423  0.86670682  0.39864757  1  0  0.651974  0  3.906152  0  0  0.603191  0  4.191977  0  0  0.638164  0  4.184221  0  1.550079  0  0.209567  0.579527  0  4.196248  0
C  C101  1  0.44333695  0.36670735  0.60135242  1  0  0.652001  0  3.906201  0  0  0.603191  0  4.192019  0  0  0.638165  0  4.184267  0  1.550083  0  0.209571  0.579527  0  4.19629  0
C  C102  1  0.94333614  0.13329212  0.60135209  1  0  0.652014  0  3.906112  0  0  0.603211  0  4.191924  0  0  0.638185  0  4.184168  0  1.550085  0  0.209571  0.579547  0  4.196194  0
C  C103  1  0.55666342  0.63329231  0.39864724  1  0  0.651984  0  3.906083  0  0  0.603195  0  4.191918  0  0  0.638156  0  4.1842  0  1.550088  0  0.209584  0.579532  0  4.196189  0
N  N104  1  0.01308191  0.81840067  0.62712334  1  0  -0.47267  0  3.253952  0  0  -0.393718  0  3.557934  0  0  -0.41714  0  3.566851  0  -1.237182  0  -0.370649  -0.377226  0  3.55127  0
N  N105  1  0.48691728  0.31839975  0.37287634  1  0  -0.472689  0  3.253998  0  0  -0.393726  0  3.557961  0  0  -0.417149  0  3.566889  0  -1.237165  0  -0.370656  -0.377235  0  3.551298  0
N  N106  1  0.98691648  0.18160044  0.37287601  1  0  -0.472676  0  3.253939  0  0  -0.393721  0  3.557917  0  0  -0.417144  0  3.566842  0  -1.23716  0  -0.370645  -0.377232  0  3.551256  0
N  N107  1  0.51308408  0.68160063  0.62712415  1  0  -0.472599  0  3.253965  0  0  -0.393642  0  3.557961  0  0  -0.417065  0  3.566884  0  -1.237177  0  -0.370605  -0.37715  0  3.551295  0
N  N108  1  0.82695112  0.73460368  0.62775765  1  0  -0.476546  0  3.262877  0  0  -0.39666  0  3.562065  0  0  -0.420257  0  3.572064  0  -1.246934  0  -0.372711  -0.380098  0  3.554691  0
N  N109  1  0.67305043  0.23460205  0.37224266  1  0  -0.476504  0  3.262955  0  0  -0.396617  0  3.562133  0  0  -0.420215  0  3.572141  0  -1.246975  0  -0.372683  -0.380057  0  3.55476  0
N  N110  1  0.17304826  0.26539814  0.37224053  1  0  -0.476527  0  3.26286  0  0  -0.396653  0  3.562051  0  0  -0.420253  0  3.57206  0  -1.246918  0  -0.372685  -0.380093  0  3.554677  0
N  N111  1  0.32695093  0.76539833  0.62775848  1  0  -0.476542  0  3.26288  0  0  -0.396673  0  3.562071  0  0  -0.420268  0  3.572071  0  -1.246929  0  -0.372696  -0.380113  0  3.554697  0
N  N112  1  0.98383221  0.85506536  0.01531250  1  0  -0.330193  0  3.387908  0  0  -0.25285  0  3.614659  0  0  -0.278502  0  3.631129  0  -1.209329  0  -0.237061  -0.235061  0  3.602678  0
N  N113  1  0.51617032  0.35506588  0.98468731  1  0  -0.330336  0  3.387986  0  0  -0.252999  0  3.614745  0  0  -0.278603  0  3.631029  0  -1.209244  0  -0.237068  -0.23511  0  3.602858  0
N  N114  1  0.01616618  0.14493503  0.98468684  1  0  -0.329937  0  3.387787  0  0  -0.25277  0  3.61472  0  0  -0.278485  0  3.630916  0  -1.209079  0  -0.23708  -0.234991  0  3.60273  0
N  N115  1  0.48383104  0.64493234  0.01531317  1  0  -0.330149  0  3.388046  0  0  -0.252842  0  3.614771  0  0  -0.278496  0  3.631246  0  -1.209282  0  -0.237067  -0.235054  0  3.60279  0
O  O116  1  0.16657902  0.83546163  0.44852384  1  0  -0.640038  0  2.018948  0  0  -0.569137  0  2.27851  0  0  -0.597152  0  2.26295  0  -1.171863  0  -0.329413  -0.549515  0  2.288609  0
O  O117  1  0.33342116  0.33546143  0.55147599  1  0  -0.640027  0  2.018876  0  0  -0.569124  0  2.278449  0  0  -0.597142  0  2.262893  0  -1.171834  0  -0.329423  -0.549502  0  2.288547  0
O  O118  1  0.83342036  0.16453804  0.55147566  1  0  -0.640054  0  2.018889  0  0  -0.56915  0  2.27846  0  0  -0.597166  0  2.262899  0  -1.171843  0  -0.329422  -0.549528  0  2.288557  0
O  O119  1  0.66657921  0.66453823  0.44852433  1  0  -0.640078  0  2.0189  0  0  -0.569177  0  2.278472  0  0  -0.597201  0  2.262921  0  -1.171829  0  -0.329449  -0.549555  0  2.28857  0
O  O120  1  0.96505657  0.89763535  0.43376443  1  0  -0.634521  0  2.018226  0  0  -0.574971  0  2.240283  0  0  -0.600975  0  2.228781  0  -1.19232  0  -0.313824  -0.556729  0  2.247524  0
O  O121  1  0.53494398  0.39763659  0.56623572  1  0  -0.634533  0  2.018272  0  0  -0.574947  0  2.240362  0  0  -0.60095  0  2.228857  0  -1.192378  0  -0.313786  -0.556705  0  2.247604  0
O  O122  1  0.03494281  0.10236360  0.56623441  1  0  -0.634518  0  2.018209  0  0  -0.574966  0  2.240272  0  0  -0.600968  0  2.228767  0  -1.192377  0  -0.313809  -0.556723  0  2.247514  0
O  O123  1  0.46505540  0.60236379  0.43376444  1  0  -0.634512  0  2.018249  0  0  -0.574961  0  2.240317  0  0  -0.600958  0  2.228777  0  -1.192361  0  -0.313797  -0.556717  0  2.247558  0
O  O124  1  0.16466001  0.94542115  0.99319535  1  0  -0.466497  0  1.897205  0  0  -0.433541  0  2.104144  0  0  -0.450837  0  2.098543  0  -1.110037  0  -0.263291  -0.42172  0  2.107955  0
O  O125  1  0.33534116  0.44542024  0.00680596  1  0  -0.466577  0  1.897198  0  0  -0.433631  0  2.104142  0  0  -0.450911  0  2.098379  0  -1.109973  0  -0.263336  -0.421809  0  2.107952  0
O  O126  1  0.83533838  0.05457780  0.00680334  1  0  -0.466502  0  1.897106  0  0  -0.433537  0  2.104035  0  0  -0.450817  0  2.098274  0  -1.110057  0  -0.263272  -0.421714  0  2.107846  0
O  O127  1  0.66466119  0.55457655  0.99319468  1  0  -0.466493  0  1.897107  0  0  -0.433544  0  2.104047  0  0  -0.450843  0  2.098446  0  -1.110017  0  -0.263286  -0.421722  0  2.107858  0
O  O128  1  0.78409091  0.76811456  0.98616847  1  0  -0.470274  0  1.91215  0  0  -0.4346  0  2.112611  0  0  -0.453288  0  2.107641  0  -1.109193  0  -0.262209  -0.421842  0  2.115986  0
O  O129  1  0.71591262  0.26811437  0.01383283  1  0  -0.470257  0  1.912125  0  0  -0.434573  0  2.11259  0  0  -0.453262  0  2.107617  0  -1.10925  0  -0.262216  -0.421698  0  2.116142  0
O  O130  1  0.21590551  0.23188295  0.01383188  1  0  -0.470173  0  1.912483  0  0  -0.434368  0  2.113097  0  0  -0.453179  0  2.107936  0  -1.109305  0  -0.262189  -0.421625  0  2.116453  0
O  O131  1  0.28408775  0.73188530  0.98616882  1  0  -0.470286  0  1.91182  0  0  -0.434612  0  2.112264  0  0  -0.453306  0  2.1073  0  -1.10909  0  -0.262244  -0.421853  0  2.115638  0
O  O132  1  0.22402470  0.98727070  0.60801158  1  0  -0.845097  0  1.892653  0  0  -0.778509  0  2.108553  0  0  -0.798549  0  2.071649  0  -1.254096  0  -0.570853  -0.764713  0  2.134724  0
O  O133  1  0.27597351  0.48727267  0.39199256  1  0  -0.845073  0  1.892704  0  0  -0.778475  0  2.108615  0  0  -0.798511  0  2.07168  0  -1.254117  0  -0.57083  -0.76468  0  2.134787  0
O  O134  1  0.77597369  0.01272681  0.39199239  1  0  -0.845032  0  1.892738  0  0  -0.778434  0  2.108638  0  0  -0.798476  0  2.071729  0  -1.254139  0  -0.570799  -0.764641  0  2.134814  0
O  O135  1  0.72402390  0.51272916  0.60801125  1  0  -0.845155  0  1.892519  0  0  -0.778524  0  2.108521  0  0  -0.798566  0  2.07162  0  -1.254104  0  -0.570884  -0.764729  0  2.134693  0
