# generated using pymatgen
data_Cd3H52C78N8O13
_symmetry_space_group_name_H-M   'P 1'
_cell_length_a   14.83548988
_cell_length_b   15.59189061
_cell_length_c   19.25649706
_cell_angle_alpha   112.84856621
_cell_angle_beta   111.58198617
_cell_angle_gamma   92.46265795
_symmetry_Int_Tables_number   1
_chemical_formula_structural   Cd3H52C78N8O13
_chemical_formula_sum   'Cd6 H104 C156 N16 O26'
_cell_volume   3726.20164915
_cell_formula_units_Z   2
loop_
 _symmetry_equiv_pos_site_id
 _symmetry_equiv_pos_as_xyz
  1  'x, y, z'
loop_
 _atom_site_type_symbol
 _atom_site_label
 _atom_site_symmetry_multiplicity
 _atom_site_fract_x
 _atom_site_fract_y
 _atom_site_fract_z
 _atom_site_occupancy
 _atom_site_pbe_bader_charge
 _atom_site_pbe_bader_spin_density
 _atom_site_pbe_cm5_charge
 _atom_site_pbe_ddec_charge
 _atom_site_pbe_ddec_spin_density
 _atom_site_pbe_ddec_sum_bond_order
 _atom_site_pbe_magmom
Cd  Cd0  1  0.75253186  0.26264077  0.06384491  1  1.295209  0  0.778899  0.987241  0  2.115  0
Cd  Cd1  1  0.18861651  0.19877187  0.93612129  1  1.294657  0  0.778773  0.986814  0  2.114425  0
Cd  Cd2  1  0.96506640  0.81397139  0.17987176  1  1.242603  0  0.774925  0.859433  0  2.198655  0
Cd  Cd3  1  0.28515694  0.63425287  0.82019700  1  1.242718  0  0.775156  0.859715  0  2.198955  0
Cd  Cd4  1  0.03651374  0.27478315  0.07601613  1  1.276079  0  0.783246  0.963205  0  2.064045  0
Cd  Cd5  1  0.46072322  0.19884160  0.92403616  1  1.275728  0  0.783081  0.96267  0  2.062626  0
H  H6  1  0.80996440  0.97066160  0.14213824  1  0.557557  0  0.304853  0.288285  0  1.021017  0
H  H7  1  0.16792791  0.82851555  0.85784250  1  0.567658  0  0.304761  0.288456  0  1.019606  0
H  H8  1  0.80367692  0.44697134  0.03020325  1  0.527242  0  0.316152  0.294063  0  0.967707  0
H  H9  1  0.27316250  0.41672693  0.96974494  1  0.546143  0  0.316222  0.294037  0  0.967683  0
H  H10  1  0.09504292  0.64380243  0.16182596  1  0.562064  0  0.304175  0.285562  0  1.026374  0
H  H11  1  0.43319925  0.48209993  0.83823003  1  0.546922  0  0.304566  0.285923  0  1.025142  0
H  H12  1  0.05058837  0.07030009  0.08823798  1  0.572173  0  0.309968  0.289642  0  1.000618  0
H  H13  1  0.46224182  0.98220685  0.91174136  1  0.558922  0  0.310009  0.289167  0  1.000702  0
H  H14  1  0.93316834  0.33535933  0.19985985  1  0.647306  0  0.278656  0.378564  0  0.972414  0
H  H15  1  0.23342083  0.13539639  0.80014720  1  0.650107  0  0.278634  0.378221  0  0.972984  0
H  H16  1  0.94052274  0.22343688  0.15661550  1  0.595001  0  0.312858  0.388636  0  0.896136  0
H  H17  1  0.28401169  0.06681238  0.84343718  1  0.58175  0  0.313144  0.388764  0  0.89557  0
H  H18  1  0.53425661  0.19637393  0.79106393  1  0.110686  0  0.097968  0.100196  0  1.085047  0
H  H19  1  0.24301320  0.40558461  0.20906552  1  0.125498  0  0.097676  0.100345  0  1.085359  0
H  H20  1  0.48129293  0.15290477  0.64286134  1  0.060524  0  0.103821  0.107488  0  0.997087  0
H  H21  1  0.33845761  0.51040336  0.35725053  1  0.059409  0  0.104005  0.107995  0  0.997887  0
H  H22  1  0.78667362  0.23204637  0.68683897  1  0.058039  0  0.096394  0.09799  0  1.046086  0
H  H23  1  0.59972340  0.54467420  0.31299364  1  0.09071  0  0.096363  0.098285  0  1.045491  0
H  H24  1  0.83825822  0.28093599  0.83731474  1  0.076635  0  0.101909  0.106252  0  1.008178  0
H  H25  1  0.50075925  0.44306714  0.16255126  1  0.078948  0  0.10185  0.105801  0  1.0084  0
H  H26  1  0.46217831  0.21360883  0.54944780  1  0.085774  0  0.103636  0.106483  0  1.014905  0
H  H27  1  0.41276824  0.66403083  0.45048381  1  0.099517  0  0.103414  0.106467  0  1.015083  0
H  H28  1  0.51117585  0.08407040  0.32841583  1  0.043441  0  0.099095  0.093942  0  1.046795  0
H  H29  1  0.68266702  0.75551237  0.67158251  1  0.056461  0  0.099045  0.094244  0  1.046513  0
H  H30  1  0.72641146  0.10477860  0.55974073  1  0.080047  0  0.102029  0.105368  0  1.023357  0
H  H31  1  0.66671822  0.54492152  0.44019476  1  0.082046  0  0.10208  0.105995  0  1.022504  0
H  H32  1  0.64508594  0.10999524  0.31170391  1  0.105271  0  0.096772  0.098084  0  1.040703  0
H  H33  1  0.83323775  0.79825532  0.68825971  1  0.072913  0  0.096803  0.098274  0  1.040752  0
H  H34  1  0.74844801  0.03568258  0.23943552  1  0.052476  0  0.096279  0.089061  0  1.045547  0
H  H35  1  0.00897291  0.79626317  0.76047628  1  0.035735  0  0.095901  0.088566  0  1.046164  0
H  H36  1  0.85092982  0.89571482  0.39790254  1  0.118622  0  0.106931  0.114534  0  0.999226  0
H  H37  1  0.95304460  0.49776133  0.60214210  1  0.105293  0  0.106745  0.114427  0  0.998923  0
H  H38  1  0.74821630  0.97104209  0.47218214  1  0.069671  0  0.094931  0.092242  0  1.069268  0
H  H39  1  0.77605639  0.49876892  0.52788232  1  0.074994  0  0.094608  0.091411  0  1.069266  0
H  H40  1  0.34243121  0.03408248  0.27690948  1  0.071592  0  0.100059  0.098997  0  1.037913  0
H  H41  1  0.56541796  0.75700207  0.72304015  1  0.059318  0  0.09972  0.098669  0  1.037575  0
H  H42  1  0.21072873  0.07831881  0.18232243  1  0.061621  0  0.100699  0.096137  0  1.043132  0
H  H43  1  0.52836285  0.89589699  0.81765095  1  0.053501  0  0.100714  0.096225  0  1.043552  0
H  H44  1  0.26696026  0.35479290  0.38133672  1  0.108566  0  0.107443  0.112872  0  0.994104  0
H  H45  1  0.38533528  0.97320016  0.61851743  1  0.089437  0  0.107283  0.112752  0  0.993385  0
H  H46  1  0.40264376  0.31208966  0.47647373  1  0.077058  0  0.098295  0.101083  0  1.035414  0
H  H47  1  0.42587341  0.83529087  0.52342921  1  0.056822  0  0.098149  0.101119  0  1.035522  0
H  H48  1  0.01472649  0.10018041  0.78953228  1  0.07765  0  0.094791  0.083154  0  1.07079  0
H  H49  1  0.72529655  0.31096033  0.21065596  1  0.068332  0  0.094798  0.083405  0  1.070523  0
H  H50  1  0.92461491  0.99007487  0.64091152  1  0.07066  0  0.103696  0.109128  0  0.999008  0
H  H51  1  0.78365878  0.34935591  0.35925852  1  0.07979  0  0.103689  0.108888  0  0.99978  0
H  H52  1  0.66732848  0.92982705  0.68244347  1  0.046678  0  0.099159  0.101098  0  1.041392  0
H  H53  1  0.48490718  0.24728276  0.31758062  1  0.066474  0  0.099019  0.100719  0  1.041435  0
H  H54  1  0.76128546  0.03701147  0.83290648  1  0.089749  0  0.104351  0.107031  0  1.012169  0
H  H55  1  0.42848926  0.20413125  0.16716746  1  0.094216  0  0.104008  0.106831  0  1.013117  0
H  H56  1  0.85597796  0.82129556  0.54982791  1  0.061835  0  0.102255  0.10389  0  1.017343  0
H  H57  1  0.80600672  0.27141800  0.45025613  1  0.045141  0  0.102036  0.103404  0  1.01834  0
H  H58  1  0.58361871  0.71878860  0.32847896  1  0.055906  0  0.100078  0.097402  0  1.039562  0
H  H59  1  0.75502466  0.39044977  0.67160530  1  0.097034  0  0.099887  0.097049  0  1.039502  0
H  H60  1  0.60034670  0.93836893  0.55597541  1  0.068272  0  0.102402  0.1047  0  1.028057  0
H  H61  1  0.54442255  0.38259017  0.44410269  1  0.079744  0  0.102134  0.104428  0  1.028183  0
H  H62  1  0.43173140  0.68076037  0.30921212  1  0.060417  0  0.095488  0.094766  0  1.051323  0
H  H63  1  0.62237246  0.37182013  0.69079508  1  0.06127  0  0.095312  0.094171  0  1.052256  0
H  H64  1  0.25502708  0.68074687  0.24281348  1  0.039262  0  0.097375  0.092902  0  1.036537  0
H  H65  1  0.51212676  0.43825138  0.75716499  1  0.073804  0  0.0976  0.093388  0  1.037366  0
H  H66  1  0.31174477  0.98007138  0.39975574  1  0.126897  0  0.106313  0.113869  0  0.998721  0
H  H67  1  0.41197699  0.58055827  0.60024509  1  0.12565  0  0.106043  0.11295  0  0.999992  0
H  H68  1  0.49052399  0.98095207  0.46856368  1  0.042484  0  0.094532  0.092382  0  1.066257  0
H  H69  1  0.52188950  0.51261620  0.53145129  1  0.072164  0  0.0944  0.091931  0  1.066652  0
H  H70  1  0.67973377  0.69165561  0.26983085  1  0.061061  0  0.099134  0.093745  0  1.051346  0
H  H71  1  0.90985760  0.42159489  0.73020734  1  0.043795  0  0.09904  0.093687  0  1.051919  0
H  H72  1  0.73361096  0.55548421  0.18559184  1  0.072973  0  0.09798  0.093046  0  1.055732  0
H  H73  1  0.04805845  0.36962336  0.81434813  1  0.096505  0  0.098013  0.093461  0  1.055248  0
H  H74  1  0.92392400  0.53524619  0.40547216  1  0.096393  0  0.107578  0.112288  0  0.991539  0
H  H75  1  0.01812220  0.12958538  0.59426941  1  0.119255  0  0.107241  0.112146  0  0.991736  0
H  H76  1  0.86699153  0.66706459  0.49018252  1  0.069654  0  0.098765  0.101156  0  1.028967  0
H  H77  1  0.87642845  0.17675595  0.50972988  1  0.057349  0  0.098674  0.100712  0  1.028705  0
H  H78  1  0.79726594  0.14342488  0.18849906  1  0.143169  0  0.134755  0.097291  0  0.996477  0
H  H79  1  0.10879388  0.95485706  0.81150874  1  0.143102  0  0.134642  0.097662  0  0.996362  0
H  H80  1  0.69559894  0.02659943  0.92894770  1  0.125213  0  0.121244  0.122595  0  1.007958  0
H  H81  1  0.26678976  0.09772239  0.07102839  1  0.135179  0  0.121279  0.122809  0  1.008076  0
H  H82  1  0.71634913  0.86755976  0.85302790  1  0.063262  0  0.099352  0.097629  0  1.024841  0
H  H83  1  0.36331107  0.01459373  0.14710370  1  0.089367  0  0.099184  0.097248  0  1.02554  0
H  H84  1  0.70884172  0.69607205  0.77343790  1  0.060803  0  0.09941  0.097636  0  1.011462  0
H  H85  1  0.43527389  0.92254038  0.22657890  1  0.06868  0  0.099306  0.097391  0  1.012047  0
H  H86  1  0.74370144  0.59003784  0.84307437  1  0.05663  0  0.099211  0.098231  0  1.013592  0
H  H87  1  0.40057978  0.74691059  0.15686768  1  0.045295  0  0.099179  0.098817  0  1.013712  0
H  H88  1  0.77383656  0.82046214  0.07053274  1  0.065897  0  0.099295  0.098997  0  1.058299  0
H  H89  1  0.20338955  0.75003293  0.92946128  1  0.076095  0  0.099281  0.099164  0  1.057898  0
H  H90  1  0.71555505  0.48591632  0.91049879  1  0.110701  0  0.124935  0.125689  0  0.996505  0
H  H91  1  0.30489213  0.57539088  0.08945642  1  0.114623  0  0.125089  0.125878  0  0.995993  0
H  H92  1  0.89954160  0.59960855  0.16687218  1  0.151675  0  0.140747  0.106305  0  0.978242  0
H  H93  1  0.23245356  0.43272191  0.83308534  1  0.157107  0  0.140674  0.10645  0  0.978027  0
H  H94  1  0.10334212  0.51048003  0.20686978  1  0.156662  0  0.147409  0.117189  0  0.960665  0
H  H95  1  0.39648191  0.30371811  0.79331827  1  0.146243  0  0.147601  0.117808  0  0.961033  0
H  H96  1  0.00981481  0.37697297  0.94780211  1  0.10626  0  0.120709  0.125197  0  1.008214  0
H  H97  1  0.56184936  0.42951997  0.05241339  1  0.141572  0  0.120307  0.124031  0  1.009469  0
H  H98  1  0.98793516  0.47021415  0.86875595  1  0.045438  0  0.098026  0.09537  0  1.054091  0
H  H99  1  0.61914644  0.60171926  0.13134144  1  0.061098  0  0.09816  0.095049  0  1.053596  0
H  H100  1  0.95243957  0.56881232  0.79061656  1  0.029596  0  0.097909  0.095049  0  1.029176  0
H  H101  1  0.66173475  0.77843788  0.20936602  1  0.062783  0  0.098187  0.09528  0  1.029012  0
H  H102  1  0.95817368  0.74027072  0.86193810  1  0.063051  0  0.096364  0.094857  0  1.025448  0
H  H103  1  0.59601104  0.87849776  0.13805658  1  0.089014  0  0.096512  0.095233  0  1.026627  0
H  H104  1  0.06668041  0.72368445  0.09536807  1  0.054342  0  0.098583  0.095621  0  1.081159  0
H  H105  1  0.47114051  0.62849280  0.90470201  1  0.055294  0  0.098631  0.095366  0  1.081063  0
H  H106  1  0.03406567  0.92187859  0.95744265  1  0.084799  0  0.120244  0.119092  0  1.021367  0
H  H107  1  0.57629233  0.96476426  0.04269626  1  0.137197  0  0.120047  0.118668  0  1.021253  0
H  H108  1  0.01819719  0.02300557  0.18959866  1  0.146076  0  0.140451  0.107413  0  0.972144  0
H  H109  1  0.32859580  0.83350644  0.81032698  1  0.12956  0  0.140408  0.107111  0  0.972699  0
C  C110  1  0.71815906  0.26091599  0.91223033  1  1.532007  0  0.196391  0.570794  0  4.207925  0
C  C111  1  0.30560745  0.34852134  0.08775517  1  1.517182  0  0.196279  0.571261  0  4.204381  0
C  C112  1  0.68937470  0.24257684  0.82416215  1  -0.102427  0  -0.023781  -0.03835  0  3.990437  0
C  C113  1  0.36495804  0.41830589  0.17577542  1  -0.06155  0  -0.024436  -0.039164  0  3.990833  0
C  C114  1  0.58911884  0.20717393  0.76872855  1  -0.030638  0  -0.090831  -0.093805  0  3.988316  0
C  C115  1  0.32023305  0.43851841  0.23129394  1  0.024234  0  -0.090387  -0.093118  0  3.987844  0
C  C116  1  0.55959650  0.18210805  0.68498151  1  0.064136  0  -0.090684  -0.129031  0  3.974881  0
C  C117  1  0.37452390  0.49721919  0.31501899  1  -0.15664  0  -0.090871  -0.130614  0  3.977241  0
C  C118  1  0.62995447  0.18963179  0.65374876  1  -0.054767  0  -0.005662  0.068201  0  4.003219  0
C  C119  1  0.47615595  0.53578667  0.34615398  1  0.026499  0  -0.005885  0.068071  0  4.003468  0
C  C120  1  0.73080056  0.22530908  0.70968462  1  -0.043565  0  -0.093701  -0.136653  0  3.96576  0
C  C121  1  0.52098519  0.51523313  0.29016658  1  -0.063232  0  -0.093653  -0.13792  0  3.966286  0
C  C122  1  0.76014906  0.25320456  0.79423908  1  -0.036312  0  -0.086852  -0.092089  0  3.980494  0
C  C123  1  0.46569637  0.45859067  0.20561321  1  -0.024201  0  -0.086403  -0.090267  0  3.978457  0
C  C124  1  0.59710626  0.16050688  0.56412254  1  0.004899  0  -0.008151  0.069084  0  4.025345  0
C  C125  1  0.53300815  0.59626955  0.43578207  1  -0.027141  0  -0.007892  0.070535  0  4.024558  0
C  C126  1  0.50697249  0.17723532  0.51813821  1  -0.049576  0  -0.084326  -0.173289  0  3.91347  0
C  C127  1  0.48882388  0.65889019  0.48181051  1  -0.123049  0  -0.084406  -0.17422  0  3.916209  0
C  C128  1  0.47513469  0.14973351  0.43300879  1  -0.015584  0  -0.006224  0.076524  0  4.022563  0
C  C129  1  0.54208781  0.71651584  0.56693732  1  0.073006  0  -0.006287  0.075965  0  4.023066  0
C  C130  1  0.53488825  0.10469848  0.39441719  1  -0.031793  0  -0.086108  -0.178208  0  3.939296  0
C  C131  1  0.64045266  0.71009635  0.60554846  1  -0.063185  0  -0.085285  -0.177092  0  3.937334  0
C  C132  1  0.62551921  0.08837851  0.43889413  1  0.008654  0  -0.007443  0.078168  0  4.023129  0
C  C133  1  0.68663117  0.64934708  0.56104155  1  -0.076432  0  -0.007754  0.077739  0  4.023245  0
C  C134  1  0.65573105  0.11632043  0.52393019  1  -0.091486  0  -0.084951  -0.171516  0  3.923845  0
C  C135  1  0.63182915  0.59226403  0.47598493  1  -0.00612  0  -0.084705  -0.172095  0  3.923931  0
C  C136  1  0.68822280  0.04485600  0.39665369  1  -0.056314  0  -0.003613  0.075403  0  3.987034  0
C  C137  1  0.79159206  0.64812091  0.60329439  1  -0.03099  0  -0.003254  0.075782  0  3.988627  0
C  C138  1  0.68919361  0.06235813  0.33053028  1  -0.068505  0  -0.094772  -0.138474  0  3.98321  0
C  C139  1  0.85858240  0.73180356  0.66944127  1  -0.052752  0  -0.095244  -0.140078  0  3.985228  0
C  C140  1  0.74783062  0.02125482  0.29021272  1  -0.086178  0  -0.091594  -0.097134  0  4.008795  0
C  C141  1  0.95755150  0.73103144  0.70974613  1  -0.059067  0  -0.090908  -0.095308  0  4.007497  0
C  C142  1  0.80586711  0.96048321  0.31389428  1  -0.016146  0  -0.021143  -0.039089  0  3.995802  0
C  C143  1  0.99196918  0.64660554  0.68607039  1  -0.002612  0  -0.021023  -0.040046  0  3.996175  0
C  C144  1  0.80598088  0.94348633  0.38026740  1  -0.054418  0  -0.080978  -0.083022  0  3.961844  0
C  C145  1  0.92574673  0.56318136  0.61976286  1  -0.08159  0  -0.08113  -0.082784  0  3.961888  0
C  C146  1  0.74857506  0.98584238  0.42148739  1  -0.019673  0  -0.090284  -0.130534  0  3.974231  0
C  C147  1  0.82711821  0.56426202  0.57854919  1  -0.018525  0  -0.090147  -0.130013  0  3.973589  0
C  C148  1  0.86451159  0.91166155  0.26808465  1  1.530316  0  0.196159  0.566751  0  4.206363  0
C  C149  1  0.09641805  0.64360498  0.73187143  1  1.550314  0  0.196379  0.567815  0  4.203383  0
C  C150  1  0.38473734  0.17107378  0.38254935  1  0.01061  0  -0.002749  0.073106  0  3.987007  0
C  C151  1  0.50209622  0.78832886  0.61737929  1  -0.056727  0  -0.002959  0.072919  0  3.987666  0
C  C152  1  0.32740135  0.10513643  0.29979673  1  -0.098571  0  -0.09064  -0.131512  0  3.976788  0
C  C153  1  0.52754576  0.80519451  0.70015272  1  0.022784  0  -0.090076  -0.13043  0  3.974698  0
C  C154  1  0.25228737  0.12950082  0.24678726  1  0.02215  0  -0.088469  -0.092042  0  3.98924  0
C  C155  1  0.50545814  0.88258294  0.75316447  1  -0.046387  0  -0.088183  -0.092654  0  3.989607  0
C  C156  1  0.23112117  0.22035221  0.27530118  1  -0.028021  0  -0.022924  -0.042823  0  3.983883  0
C  C157  1  0.45576055  0.94491312  0.72463919  1  -0.019221  0  -0.023312  -0.041878  0  3.982968  0
C  C158  1  0.28407177  0.28451243  0.35920252  1  -0.04682  0  -0.079718  -0.080674  0  3.965144  0
C  C159  1  0.42468465  0.92511802  0.64071598  1  -0.035146  0  -0.079736  -0.080987  0  3.964254  0
C  C160  1  0.35952950  0.26007695  0.41229752  1  -0.097633  0  -0.089983  -0.132388  0  3.961405  0
C  C161  1  0.44703251  0.84753675  0.58763334  1  -0.040329  0  -0.089852  -0.132407  0  3.962209  0
C  C162  1  0.15819738  0.25113735  0.21688643  1  1.519114  0  0.196642  0.559432  0  4.208398  0
C  C163  1  0.44137356  0.03419318  0.78304922  1  1.518355  0  0.196084  0.557217  0  4.210504  0
C  C164  1  0.94773739  0.14186130  0.91089904  1  1.536195  0  0.196788  0.570243  0  4.203514  0
C  C165  1  0.53689960  0.23111685  0.08916965  1  1.549384  0  0.196805  0.570748  0  4.204521  0
C  C166  1  0.89470887  0.07372899  0.82144563  1  -0.058595  0  -0.02283  -0.043344  0  3.991304  0
C  C167  1  0.57335910  0.25239154  0.17861817  1  -0.053751  0  -0.023188  -0.044899  0  3.991852  0
C  C168  1  0.93982044  0.06025041  0.76663045  1  -0.094269  0  -0.089162  -0.091692  0  4.002637  0
C  C169  1  0.67325159  0.29384715  0.23349005  1  -0.054473  0  -0.08953  -0.092036  0  4.00131  0
C  C170  1  0.88877557  0.99878350  0.68284185  1  0.031268  0  -0.092498  -0.13808  0  3.974366  0
C  C171  1  0.70592529  0.31608510  0.31727488  1  -0.065459  0  -0.091595  -0.136699  0  3.974065  0
C  C172  1  0.78981499  0.95106987  0.65109449  1  -0.088521  0  -0.002198  0.076773  0  3.994724  0
C  C173  1  0.63868910  0.30008908  0.34898060  1  -0.010909  0  -0.002973  0.075588  0  3.995099  0
C  C174  1  0.74416868  0.96598391  0.70604624  1  -0.028174  0  -0.08959  -0.131059  0  3.955344  0
C  C175  1  0.53812081  0.25992025  0.29397969  1  -0.046166  0  -0.089135  -0.130162  0  3.955582  0
C  C176  1  0.79636028  0.02537760  0.79021351  1  0.009512  0  -0.080836  -0.078621  0  3.967208  0
C  C177  1  0.50625168  0.23516677  0.20983752  1  -0.018348  0  -0.08058  -0.078395  0  3.969451  0
C  C178  1  0.73430236  0.88739934  0.56186970  1  -0.032136  0  -0.010067  0.065575  0  4.030232  0
C  C179  1  0.67236120  0.32560120  0.43819183  1  -0.042891  0  -0.010314  0.065087  0  4.030704  0
C  C180  1  0.77912276  0.82376470  0.51757345  1  -0.073669  0  -0.084945  -0.173681  0  3.919631  0
C  C181  1  0.76142145  0.30619018  0.48250621  1  -0.066725  0  -0.084733  -0.173115  0  3.919058  0
C  C182  1  0.72538579  0.76172917  0.43326669  1  0.013875  0  -0.005738  0.075308  0  4.009047  0
C  C183  1  0.79203624  0.32848490  0.56681227  1  -0.020806  0  -0.005856  0.075  0  4.008702  0
C  C184  1  0.62652715  0.76684466  0.39375070  1  -0.015399  0  -0.08408  -0.170595  0  3.918129  0
C  C185  1  0.73271530  0.37318096  0.60632608  1  -0.031624  0  -0.083789  -0.169776  0  3.918953  0
C  C186  1  0.58009127  0.82990611  0.43636094  1  -0.061104  0  -0.006044  0.079283  0  4.009302  0
C  C187  1  0.64369626  0.39365084  0.56369432  1  -0.066525  0  -0.006049  0.079449  0  4.011486  0
C  C188  1  0.63499107  0.88957721  0.52095792  1  0.025992  0  -0.083984  -0.171801  0  3.923824  0
C  C189  1  0.61403007  0.36875977  0.47911423  1  0.017953  0  -0.083385  -0.170074  0  3.923984  0
C  C190  1  0.47473285  0.83097872  0.39410803  1  0.012723  0  -0.004897  0.072034  0  3.982073  0
C  C191  1  0.58057025  0.43707907  0.60588603  1  -0.003307  0  -0.005199  0.069545  0  3.984416  0
C  C192  1  0.40671055  0.74721214  0.32907955  1  -0.027934  0  -0.09507  -0.138321  0  3.984827  0
C  C193  1  0.57751328  0.41840206  0.67090649  1  -0.019866  0  -0.09524  -0.136994  0  3.985181  0
C  C194  1  0.30657339  0.74692273  0.29186696  1  -0.083072  0  -0.090337  -0.093971  0  3.997527  0
C  C195  1  0.51461588  0.45535691  0.70811756  1  -0.079918  0  -0.090138  -0.094689  0  3.996927  0
C  C196  1  0.27150693  0.83068985  0.31731646  1  0.02182  0  -0.020494  -0.035738  0  3.980497  0
C  C197  1  0.45406718  0.51363770  0.68266664  1  -0.017615  0  -0.01981  -0.034372  0  3.979597  0
C  C198  1  0.33919826  0.91486597  0.38109407  1  -0.102692  0  -0.081353  -0.083862  0  3.96341  0
C  C199  1  0.45805085  0.53401332  0.61891163  1  -0.093746  0  -0.081169  -0.083171  0  3.96367  0
C  C200  1  0.43902537  0.91479228  0.41933422  1  -0.016447  0  -0.092255  -0.134694  0  3.976621  0
C  C201  1  0.51967373  0.49571607  0.58069816  1  -0.071127  0  -0.092541  -0.133843  0  3.974833  0
C  C202  1  0.16452714  0.83242918  0.27737743  1  1.538874  0  0.197343  0.571139  0  4.189843  0
C  C203  1  0.38701344  0.55529548  0.72261906  1  1.552188  0  0.19696  0.570795  0  4.190156  0
C  C204  1  0.76778501  0.68882844  0.38613571  1  -0.0809  0  -0.002656  0.07269  0  3.977326  0
C  C205  1  0.88151201  0.30258939  0.61386176  1  -0.076015  0  -0.002125  0.071906  0  3.979954  0
C  C206  1  0.73248627  0.65710683  0.29988950  1  -0.050588  0  -0.090753  -0.130157  0  3.980086  0
C  C207  1  0.93247917  0.35697763  0.70010960  1  0.007618  0  -0.09065  -0.128982  0  3.982602  0
C  C208  1  0.76245222  0.58172833  0.25258037  1  -0.039375  0  -0.087884  -0.089653  0  3.994255  0
C  C209  1  0.00978393  0.32890155  0.74735795  1  -0.066439  0  -0.088228  -0.091473  0  3.99721  0
C  C210  1  0.83047111  0.53608453  0.28958979  1  0.01661  0  -0.023332  -0.044138  0  3.9816  0
C  C211  1  0.04071440  0.24624546  0.71026038  1  -0.074202  0  -0.023011  -0.043316  0  3.982246  0
C  C212  1  0.87014136  0.56980515  0.37606676  1  -0.074211  0  -0.079888  -0.08305  0  3.963911  0
C  C213  1  0.99382764  0.19355359  0.62377009  1  -0.046545  0  -0.07976  -0.083976  0  3.963678  0
C  C214  1  0.83869570  0.64477552  0.42352695  1  -0.009269  0  -0.08915  -0.130122  0  3.95117  0
C  C215  1  0.91494377  0.22114380  0.57637520  1  0.026432  0  -0.089084  -0.128193  0  3.950105  0
C  C216  1  0.85323042  0.44975570  0.23438024  1  1.536549  0  0.204555  0.567142  0  4.20587  0
C  C217  1  0.11871626  0.21512494  0.76544360  1  1.537116  0  0.203748  0.565595  0  4.209541  0
C  C218  1  0.77631609  0.09315544  0.12444905  1  0.954143  0  0.127404  0.117971  0  4.002435  0
C  C219  1  0.15199395  0.96867202  0.87556008  1  0.946044  0  0.12767  0.11723  0  4.004693  0
C  C220  1  0.72497356  0.02927732  0.99042027  1  0.404565  0  0.004085  -0.066454  0  3.922928  0
C  C221  1  0.23468123  0.03885853  0.00959485  1  0.36913  0  0.00426  -0.066842  0  3.923394  0
C  C222  1  0.74933635  0.95727365  0.01485681  1  0.35209  0  0.087685  0.111946  0  3.991082  0
C  C223  1  0.23455071  0.94241088  0.98517230  1  0.394719  0  0.087008  0.111096  0  3.992363  0
C  C224  1  0.74592520  0.85677771  0.96791914  1  0.054938  0  -0.010357  0.053661  0  4.049338  0
C  C225  1  0.27807974  0.88888696  0.03212554  1  -0.063867  0  -0.009864  0.054108  0  4.049375  0
C  C226  1  0.72716258  0.82035376  0.88348393  1  -0.111573  0  -0.092267  -0.131325  0  3.965108  0
C  C227  1  0.34375510  0.93690745  0.11655560  1  -0.047119  0  -0.092281  -0.131376  0  3.966877  0
C  C228  1  0.72353667  0.72427896  0.83892790  1  -0.04013  0  -0.092548  -0.075622  0  4.034814  0
C  C229  1  0.38458395  0.88530724  0.16106435  1  -0.15495  0  -0.092596  -0.074897  0  4.035031  0
C  C230  1  0.74223529  0.66387556  0.87782173  1  -0.063415  0  -0.087797  -0.119755  0  3.963897  0
C  C231  1  0.36432424  0.78601717  0.12216665  1  0.026629  0  -0.087275  -0.120712  0  3.964404  0
C  C232  1  0.76351647  0.69918048  0.96255759  1  0.03638  0  -0.006079  0.063201  0  4.030245  0
C  C233  1  0.30093985  0.73661024  0.03741693  1  0.02266  0  -0.006818  0.063393  0  4.032019  0
C  C234  1  0.76222759  0.79474417  0.00596454  1  -0.011754  0  -0.091559  -0.166364  0  3.912566  0
C  C235  1  0.25633833  0.78880714  0.99403386  1  0.039846  0  -0.091189  -0.166074  0  3.913018  0
C  C236  1  0.78901459  0.63789125  0.00512205  1  0.394721  0  0.079538  0.118409  0  4.042158  0
C  C237  1  0.28386755  0.63275339  0.99486278  1  0.402184  0  0.07963  0.117145  0  4.045228  0
C  C238  1  0.76210482  0.53970501  0.97254132  1  0.383908  0  0.008328  -0.091043  0  3.895079  0
C  C239  1  0.28947213  0.56713673  0.02742497  1  0.395642  0  0.008404  -0.089773  0  3.89566  0
C  C240  1  0.85715785  0.59730991  0.10653341  1  0.982696  0  0.144151  0.157645  0  3.94782  0
C  C241  1  0.25046090  0.49077262  0.89341905  1  0.98106  0  0.144692  0.159316  0  3.946271  0
C  C242  1  0.08193552  0.50025552  0.14341567  1  0.965774  0  0.145904  0.147343  0  3.952052  0
C  C243  1  0.43851264  0.35701946  0.85673957  1  0.997354  0  0.145514  0.146419  0  3.951359  0
C  C244  1  0.03367169  0.43470368  0.00925729  1  0.429641  0  0.003027  -0.071315  0  3.920296  0
C  C245  1  0.52432281  0.42570708  0.99091312  1  0.395401  0  0.003967  -0.068931  0  3.920025  0
C  C246  1  0.04792450  0.53244511  0.03471974  1  0.316271  0  0.084734  0.109681  0  3.991741  0
C  C247  1  0.51305539  0.49793241  0.96538525  1  0.337599  0  0.084353  0.108373  0  3.992779  0
C  C248  1  0.02866358  0.58942041  0.98797580  1  -0.039451  0  -0.00939  0.058293  0  4.060088  0
C  C249  1  0.54048550  0.60164490  0.01209101  1  -0.010939  0  -0.009691  0.058467  0  4.06018  0
C  C250  1  0.99650195  0.54672831  0.90140703  1  0.068336  0  -0.094462  -0.134155  0  3.964436  0
C  C251  1  0.59498116  0.64553922  0.09864335  1  -0.012616  0  -0.09441  -0.133168  0  3.96309  0
C  C252  1  0.97516985  0.60188738  0.85752589  1  0.013175  0  -0.093454  -0.073065  0  4.024786  0
C  C253  1  0.61756674  0.74457675  0.14247335  1  -0.03951  0  -0.094506  -0.074924  0  4.026179  0
C  C254  1  0.98038075  0.69924974  0.89781961  1  0.01376  0  -0.091148  -0.125823  0  3.964216  0
C  C255  1  0.58236896  0.80161438  0.10219066  1  -0.075615  0  -0.090672  -0.124998  0  3.966506  0
C  C256  1  0.01025848  0.74296421  0.98400353  1  -0.050013  0  -0.00581  0.068357  0  4.040678  0
C  C257  1  0.52607156  0.75914618  0.01602577  1  0.011579  0  -0.006852  0.066328  0  4.041891  0
C  C258  1  0.03770824  0.68799579  0.02809990  1  -0.040609  0  -0.095307  -0.173574  0  3.91856  0
C  C259  1  0.50940548  0.66007996  0.97196129  1  -0.027066  0  -0.095026  -0.172792  0  3.918766  0
C  C260  1  0.01279494  0.84361609  0.02891509  1  0.447501  0  0.079434  0.115981  0  4.035793  0
C  C261  1  0.48373680  0.81491445  0.97112940  1  0.448016  0  0.080185  0.117499  0  4.037203  0
C  C262  1  0.02494543  0.91892041  0.00973302  1  0.356127  0  0.007057  -0.081913  0  3.891377  0
C  C263  1  0.51504890  0.90940559  0.99029724  1  0.310077  0  0.00726  -0.082503  0  3.891259  0
C  C264  1  0.01731757  0.97350581  0.13116045  1  0.991893  0  0.143102  0.157273  0  3.954738  0
C  C265  1  0.38605641  0.84248003  0.86881286  1  1.023823  0  0.143162  0.157191  0  3.953772  0
N  N266  1  0.74222013  0.11300429  0.05901908  1  -1.237047  0  -0.361551  -0.313724  0  3.546824  0
N  N267  1  0.18333881  0.05395680  0.94098066  1  -1.22089  0  -0.362181  -0.313503  0  3.546623  0
N  N268  1  0.78104154  0.00037339  0.10024761  1  -1.273079  0  -0.378623  -0.263568  0  3.670372  0
N  N269  1  0.18091838  0.90010691  0.89977174  1  -1.315292  0  -0.377918  -0.262897  0  3.671249  0
N  N270  1  0.84932155  0.67262928  0.08953787  1  -1.195129  0  -0.353789  -0.355959  0  3.460734  0
N  N271  1  0.25973729  0.58310030  0.91045169  1  -1.205584  0  -0.354076  -0.356586  0  3.461492  0
N  N272  1  0.80538961  0.51609346  0.03717261  1  -1.269872  0  -0.372507  -0.190485  0  3.700479  0
N  N273  1  0.26800055  0.47888931  0.96276738  1  -1.286848  0  -0.372755  -0.192122  0  3.700454  0
N  N274  1  0.05459671  0.41616787  0.07729477  1  -1.214545  0  -0.366623  -0.298898  0  3.589679  0
N  N275  1  0.47724145  0.33909690  0.92289322  1  -1.212933  0  -0.366404  -0.299288  0  3.586865  0
N  N276  1  0.07934824  0.57153770  0.12016248  1  -1.292686  0  -0.376413  -0.262185  0  3.663559  0
N  N277  1  0.45911911  0.45154089  0.87993207  1  -1.285382  0  -0.376255  -0.261289  0  3.661981  0
N  N278  1  0.00707771  0.87973868  0.10521565  1  -1.202862  0  -0.355271  -0.34505  0  3.478426  0
N  N279  1  0.40177130  0.77469447  0.89479491  1  -1.213634  0  -0.355486  -0.345689  0  3.480366  0
N  N280  1  0.02760392  0.99951052  0.07474937  1  -1.322388  0  -0.381084  -0.209194  0  3.702518  0
N  N281  1  0.45269339  0.92492806  0.92523944  1  -1.317936  0  -0.381379  -0.207633  0  3.698503  0
O  O282  1  0.79849974  0.31877947  0.96992628  1  -1.187435  0  -0.330937  -0.580696  0  2.186189  0
O  O283  1  0.32804197  0.34871617  0.02996220  1  -1.182366  0  -0.330198  -0.580462  0  2.185177  0
O  O284  1  0.65923093  0.21391800  0.92652412  1  -1.165631  0  -0.332734  -0.568874  0  2.257668  0
O  O285  1  0.23260694  0.28711949  0.07360397  1  -1.150304  0  -0.332923  -0.568927  0  2.254587  0
O  O286  1  0.90518073  0.84758574  0.28350459  1  -1.133468  0  -0.323301  -0.520297  0  2.140638  0
O  O287  1  0.12163971  0.56410308  0.71662319  1  -1.140018  0  -0.32304  -0.520369  0  2.139262  0
O  O288  1  0.87147651  0.93504783  0.21241830  1  -1.193633  0  -0.340332  -0.591538  0  2.277341  0
O  O289  1  0.15907718  0.72269854  0.78740446  1  -1.194573  0  -0.341069  -0.592543  0  2.275415  0
O  O290  1  0.14836406  0.33583596  0.24021607  1  -1.159627  0  -0.318896  -0.53477  0  2.14764  0
O  O291  1  0.40820693  0.09552027  0.75966593  1  -1.165859  0  -0.318332  -0.533938  0  2.150223  0
O  O292  1  0.10836110  0.18704177  0.14009112  1  -1.169458  0  -0.343779  -0.588136  0  2.299653  0
O  O293  1  0.46848549  0.04701606  0.85988722  1  -1.161212  0  -0.343735  -0.587332  0  2.300331  0
O  O294  1  0.91145703  0.14276422  0.96144188  1  -1.146303  0  -0.326298  -0.539049  0  2.15913  0
O  O295  1  0.45004597  0.18154194  0.03860925  1  -1.153532  0  -0.325862  -0.538645  0  2.159216  0
O  O296  1  0.02846896  0.20118959  0.93518620  1  -1.179809  0  -0.341635  -0.600266  0  2.338642  0
O  O297  1  0.59339291  0.26617292  0.06492557  1  -1.183179  0  -0.341688  -0.599965  0  2.338947  0
O  O298  1  0.13699296  0.91003378  0.29184329  1  -1.147415  0  -0.322052  -0.525328  0  2.102609  0
O  O299  1  0.34485015  0.61832782  0.70808834  1  -1.148351  0  -0.322137  -0.525561  0  2.102028  0
O  O300  1  0.10165070  0.75078772  0.22650030  1  -1.196509  0  -0.346067  -0.58705  0  2.282631  0
O  O301  1  0.37522886  0.52463704  0.77362830  1  -1.183566  0  -0.346127  -0.587296  0  2.28324  0
O  O302  1  0.92188403  0.41274705  0.26665267  1  -1.167361  0  -0.326273  -0.532933  0  2.14144  0
O  O303  1  0.15511279  0.14588844  0.73315844  1  -1.172608  0  -0.32613  -0.532722  0  2.140787  0
O  O304  1  0.79842236  0.41740899  0.15621599  1  -1.166979  0  -0.344653  -0.583232  0  2.277879  0
O  O305  1  0.14211833  0.26095276  0.84363374  1  -1.15723  0  -0.3443  -0.582248  0  2.278625  0
O  O306  1  0.92548259  0.27716787  0.14377757  1  -1.216665  0  -0.566196  -0.772566  0  2.222883  0
O  O307  1  0.28180510  0.13336874  0.85620920  1  -1.208745  0  -0.566447  -0.771889  0  2.221616  0
