# generated using pymatgen
data_CdH13C21NO4
_symmetry_space_group_name_H-M   'P 1'
_cell_length_a   7.91774844
_cell_length_b   10.51870955
_cell_length_c   11.59765373
_cell_angle_alpha   111.63122427
_cell_angle_beta   95.85666856
_cell_angle_gamma   105.66847025
_symmetry_Int_Tables_number   1
_chemical_formula_structural   CdH13C21NO4
_chemical_formula_sum   'Cd2 H26 C42 N2 O8'
_cell_volume   842.30170094
_cell_formula_units_Z   2
loop_
 _symmetry_equiv_pos_site_id
 _symmetry_equiv_pos_as_xyz
  1  'x, y, z'
loop_
 _atom_site_type_symbol
 _atom_site_label
 _atom_site_symmetry_multiplicity
 _atom_site_fract_x
 _atom_site_fract_y
 _atom_site_fract_z
 _atom_site_occupancy
 _atom_site_hle17_bader_spin_density
 _atom_site_hle17_ddec_charge
 _atom_site_hle17_ddec_spin_density
 _atom_site_hle17_ddec_sum_bond_order
 _atom_site_hle17_magmom
 _atom_site_hse06_10hf_bader_spin_density
 _atom_site_hse06_10hf_ddec_charge
 _atom_site_hse06_10hf_ddec_spin_density
 _atom_site_hse06_10hf_ddec_sum_bond_order
 _atom_site_hse06_10hf_magmom
 _atom_site_hse06_bader_spin_density
 _atom_site_hse06_ddec_charge
 _atom_site_hse06_ddec_spin_density
 _atom_site_hse06_ddec_sum_bond_order
 _atom_site_hse06_magmom
 _atom_site_pbe_bader_spin_density
 _atom_site_pbe_cm5_charge
 _atom_site_pbe_ddec_charge
 _atom_site_pbe_ddec_spin_density
 _atom_site_pbe_ddec_sum_bond_order
 _atom_site_pbe_magmom
Cd  Cd0  1  0.74158094  0.98157275  0.45985695  1  0  1.193837  0  1.566178  0  0  1.009883  0  2.002469  0  0  1.072268  0  1.946569  0  0  0.784166  0.965539  0  2.040019  0
Cd  Cd1  1  0.25842022  0.01842888  0.54014475  1  0  1.193869  0  1.566118  0  0  1.009909  0  2.002411  0  0  1.072294  0  1.946509  0  0  0.784186  0.965566  0  2.039962  0
H  H2  1  0.69979034  0.24791881  0.58850404  1  0  0.104839  0  0.98092  0  0  0.115778  0  1.045837  0  0  0.118467  0  1.044319  0  0  0.102956  0.11386  0  1.047085  0
H  H3  1  0.30021209  0.75208281  0.41149774  1  0  0.104802  0  0.980941  0  0  0.115755  0  1.045841  0  0  0.118444  0  1.044323  0  0  0.102959  0.113837  0  1.047091  0
H  H4  1  0.63057600  0.47575580  0.67205602  1  0  0.089108  0  0.93432  0  0  0.104361  0  0.986003  0  0  0.106504  0  0.985676  0  0  0.103829  0.102743  0  0.986302  0
H  H5  1  0.36942090  0.52424474  0.32794244  1  0  0.089073  0  0.934379  0  0  0.104362  0  0.986029  0  0  0.106504  0  0.985704  0  0  0.103832  0.102743  0  0.986328  0
H  H6  1  0.68751068  0.64512637  0.56309936  1  0  0.105765  0  0.98261  0  0  0.11321  0  1.046773  0  0  0.116641  0  1.04519  0  0  0.100608  0.110751  0  1.048006  0
H  H7  1  0.31248960  0.35487311  0.43689724  1  0  0.105753  0  0.982679  0  0  0.113203  0  1.046823  0  0  0.116633  0  1.045242  0  0  0.100617  0.110743  0  1.048056  0
H  H8  1  0.80381935  0.58016174  0.36799563  1  0  0.095963  0  0.965285  0  0  0.107558  0  1.025859  0  0  0.109159  0  1.02613  0  0  0.10115  0.106336  0  1.025698  0
H  H9  1  0.19618004  0.41983557  0.63200189  1  0  0.095961  0  0.965269  0  0  0.107557  0  1.025843  0  0  0.109156  0  1.026115  0  0  0.101153  0.106334  0  1.025682  0
H  H10  1  0.90547588  0.40446672  0.20142977  1  0  0.092674  0  0.961244  0  0  0.103081  0  1.025258  0  0  0.104247  0  1.025986  0  0  0.104979  0.102271  0  1.024762  0
H  H11  1  0.09451969  0.59553057  0.79856749  1  0  0.092639  0  0.961256  0  0  0.103069  0  1.025252  0  0  0.104238  0  1.025975  0  0  0.104981  0.102258  0  1.024756  0
H  H12  1  0.97815182  0.17265358  0.12554297  1  0  0.102571  0  0.937127  0  0  0.117722  0  0.986855  0  0  0.120443  0  0.98724  0  0  0.108788  0.115755  0  0.986806  0
H  H13  1  0.02184801  0.82734480  0.87445667  1  0  0.102573  0  0.937155  0  0  0.117724  0  0.986879  0  0  0.120445  0  0.987265  0  0  0.108782  0.115756  0  0.986832  0
H  H14  1  0.93112367  0.02265674  0.25057916  1  0  0.077277  0  0.942557  0  0  0.088393  0  1.00283  0  0  0.089872  0  1.001256  0  0  0.117025  0.08706  0  1.004317  0
H  H15  1  0.06887788  0.97734272  0.74942183  1  0  0.077236  0  0.942574  0  0  0.088357  0  1.002844  0  0  0.089833  0  1.001277  0  0  0.11703  0.087025  0  1.00433  0
H  H16  1  0.59037992  0.54694376  0.08616953  1  0  0.09439  0  0.989273  0  0  0.103688  0  1.055336  0  0  0.106701  0  1.053574  0  0  0.101075  0.101513  0  1.056525  0
H  H17  1  0.40961913  0.45305895  0.91383067  1  0  0.094377  0  0.989324  0  0  0.103688  0  1.055365  0  0  0.1067  0  1.053604  0  0  0.101069  0.101522  0  1.056542  0
H  H18  1  0.63247707  0.36137218  0.89185930  1  0  0.108285  0  0.960414  0  0  0.118053  0  1.023047  0  0  0.12179  0  1.020355  0  0  0.104096  0.115296  0  1.025199  0
H  H19  1  0.36752072  0.63863053  0.10813909  1  0  0.108239  0  0.960406  0  0  0.118032  0  1.02302  0  0  0.121769  0  1.020327  0  0  0.104087  0.115276  0  1.025172  0
H  H20  1  0.16168210  0.74765028  0.22702275  1  0  0.112198  0  0.970456  0  0  0.119596  0  1.037529  0  0  0.123142  0  1.035285  0  0  0.103733  0.11712  0  1.039029  0
H  H21  1  0.83831778  0.25235136  0.77297628  1  0  0.112155  0  0.970459  0  0  0.11959  0  1.037497  0  0  0.123137  0  1.035251  0  0  0.103718  0.117109  0  1.039008  0
H  H22  1  0.69452989  0.77456698  0.77541154  1  0  0.096517  0  0.964425  0  0  0.105992  0  1.029079  0  0  0.109241  0  1.027143  0  0  0.103145  0.103624  0  1.030578  0
H  H23  1  0.30546740  0.22543139  0.22458707  1  0  0.096514  0  0.964432  0  0  0.105996  0  1.029071  0  0  0.109245  0  1.027135  0  0  0.10315  0.103629  0  1.030569  0
H  H24  1  0.62436036  0.77003144  0.97935799  1  0  0.096604  0  0.949058  0  0  0.108851  0  1.00702  0  0  0.111153  0  1.007148  0  0  0.100671  0.107254  0  1.006907  0
H  H25  1  0.37564074  0.22996693  0.02064346  1  0  0.096628  0  0.949078  0  0  0.108883  0  1.00703  0  0  0.11118  0  1.007169  0  0  0.100694  0.107287  0  1.006916  0
H  H26  1  0.48996065  0.12638047  0.82762846  1  0  0.106912  0  0.980201  0  0  0.112325  0  1.053191  0  0  0.115808  0  1.050354  0  0  0.102283  0.109828  0  1.055174  0
H  H27  1  0.51004178  0.87362115  0.17237419  1  0  0.106923  0  0.980205  0  0  0.112314  0  1.053241  0  0  0.115794  0  1.050408  0  0  0.10229  0.109818  0  1.055223  0
C  C28  1  0.79227933  0.28254675  0.42943825  1  0  0.201212  0  3.778738  0  0  0.19826  0  4.012546  0  0  0.20494  0  4.037219  0  0  0.108829  0.193822  0  3.995905  0
C  C29  1  0.20772139  0.71745379  0.57056219  1  0  0.201117  0  3.778751  0  0  0.198194  0  4.01252  0  0  0.204868  0  4.037198  0  0  0.108872  0.193758  0  3.995879  0
C  C30  1  0.72358657  0.32086317  0.54071924  1  0  -0.155003  0  3.711316  0  0  -0.175965  0  3.964057  0  0  -0.182182  0  3.986534  0  0  -0.09145  -0.172108  0  3.94905  0
C  C31  1  0.27641371  0.67913629  0.45928080  1  0  -0.154883  0  3.711355  0  0  -0.175858  0  3.964096  0  0  -0.182072  0  3.986573  0  0  -0.091436  -0.172003  0  3.94909  0
C  C32  1  0.68555944  0.44852079  0.58706103  1  0  -0.033345  0  3.749946  0  0  -0.047939  0  4.000756  0  0  -0.04777  0  4.022468  0  0  -0.079759  -0.047611  0  3.985851  0
C  C33  1  0.31444000  0.55147975  0.41293846  1  0  -0.033321  0  3.749995  0  0  -0.047961  0  4.000839  0  0  -0.047792  0  4.02255  0  0  -0.07976  -0.047633  0  3.985936  0
C  C34  1  0.71505844  0.54328372  0.52515466  1  0  -0.070828  0  3.755081  0  0  -0.086289  0  4.009125  0  0  -0.090065  0  4.031377  0  0  -0.088288  -0.084065  0  3.994268  0
C  C35  1  0.28494012  0.45671466  0.47484404  1  0  -0.070842  0  3.755097  0  0  -0.086302  0  4.009163  0  0  -0.090077  0  4.031416  0  0  -0.088312  -0.084078  0  3.994307  0
C  C36  1  0.78031985  0.50754590  0.41602417  1  0  -0.091323  0  3.709484  0  0  -0.110774  0  3.953946  0  0  -0.1121  0  3.976236  0  0  -0.083905  -0.109729  0  3.938794  0
C  C37  1  0.21967998  0.49245248  0.58397376  1  0  -0.091344  0  3.709384  0  0  -0.110796  0  3.953856  0  0  -0.112121  0  3.976145  0  0  -0.083935  -0.109749  0  3.938702  0
C  C38  1  0.81972048  0.37682056  0.36493042  1  0  0.010735  0  3.790561  0  0  0.030878  0  4.014447  0  0  0.026387  0  4.039694  0  0  -0.003555  0.033735  0  3.997362  0
C  C39  1  0.18027808  0.62317781  0.63506913  1  0  0.010791  0  3.790578  0  0  0.030918  0  4.014467  0  0  0.02643  0  4.039714  0  0  -0.003551  0.033773  0  3.997381  0
C  C40  1  0.88589474  0.33502099  0.25273021  1  0  -0.030286  0  3.692973  0  0  -0.054596  0  3.939068  0  0  -0.049823  0  3.957384  0  0  -0.057938  -0.057421  0  3.926307  0
C  C41  1  0.11410254  0.66497738  0.74726840  1  0  -0.030271  0  3.693103  0  0  -0.054597  0  3.939196  0  0  -0.049826  0  3.957515  0  0  -0.057973  -0.057421  0  3.926433  0
C  C42  1  0.92612366  0.20835591  0.21105790  1  0  -0.129438  0  3.745668  0  0  -0.141543  0  4.00083  0  0  -0.150163  0  4.02094  0  0  -0.086004  -0.135956  0  3.987115  0
C  C43  1  0.07387446  0.79164137  0.78894212  1  0  -0.129506  0  3.745631  0  0  -0.141611  0  4.000805  0  0  -0.150232  0  4.020916  0  0  -0.086002  -0.136025  0  3.98709  0
C  C44  1  0.89782388  0.12219704  0.28044348  1  0  0.168981  0  3.704691  0  0  0.131778  0  3.96562  0  0  0.143803  0  3.981266  0  0  0.059466  0.124108  0  3.954488  0
C  C45  1  0.10217811  0.87780351  0.71955705  1  0  0.169049  0  3.704537  0  0  0.131837  0  3.965481  0  0  0.143864  0  3.98112  0  0  0.059454  0.124167  0  3.954349  0
C  C46  1  0.83887052  0.77219099  0.27637268  1  0  0.625208  0  3.937231  0  0  0.577426  0  4.226172  0  0  0.612557  0  4.219155  0  0  0.193142  0.553632  0  4.230187  0
C  C47  1  0.16112936  0.22781063  0.72362807  1  0  0.625265  0  3.937252  0  0  0.577466  0  4.226217  0  0  0.612599  0  4.2192  0  0  0.193194  0.553671  0  4.230229  0
C  C48  1  0.87321468  0.65863041  0.16662795  1  0  -0.062679  0  3.781335  0  0  -0.040532  0  4.018864  0  0  -0.047946  0  4.040416  0  0  -0.021904  -0.036003  0  4.004973  0
C  C49  1  0.12678565  0.34137231  0.83337148  1  0  -0.062664  0  3.781168  0  0  -0.040526  0  4.018727  0  0  -0.047941  0  4.04028  0  0  -0.021875  -0.035995  0  4.004835  0
C  C50  1  0.72394010  0.54755041  0.07160048  1  0  -0.091451  0  3.775591  0  0  -0.117424  0  4.02797  0  0  -0.117825  0  4.048499  0  0  -0.094475  -0.116777  0  4.013931  0
C  C51  1  0.27606023  0.45245231  0.92839981  1  0  -0.091448  0  3.77557  0  0  -0.117425  0  4.027956  0  0  -0.117825  0  4.048487  0  0  -0.094478  -0.116783  0  4.01391  0
C  C52  1  0.74788217  0.44440818  0.96595688  1  0  -0.116038  0  3.735115  0  0  -0.133554  0  3.982175  0  0  -0.136668  0  4.002551  0  0  -0.088416  -0.131482  0  3.968298  0
C  C53  1  0.25211644  0.55559345  0.03404120  1  0  -0.115998  0  3.735126  0  0  -0.133536  0  3.982182  0  0  -0.136648  0  4.002554  0  0  -0.088452  -0.131466  0  3.968307  0
C  C54  1  0.92408271  0.44466563  0.95147470  1  0  0.055754  0  3.781741  0  0  0.073566  0  4.006042  0  0  0.073346  0  4.029417  0  0  -0.006204  0.073701  0  3.9902  0
C  C55  1  0.07591635  0.55533708  0.04852549  1  0  0.055673  0  3.781843  0  0  0.073496  0  4.006137  0  0  0.073276  0  4.029512  0  0  -0.006158  0.073632  0  3.990295  0
C  C56  1  0.04648245  0.66193672  0.15479374  1  0  -0.10567  0  3.672354  0  0  -0.136086  0  3.917596  0  0  -0.135317  0  3.935581  0  0  -0.07815  -0.136532  0  3.905767  0
C  C57  1  0.95351661  0.33806599  0.84520560  1  0  -0.105684  0  3.672241  0  0  -0.136121  0  3.917492  0  0  -0.135353  0  3.935478  0  0  -0.078178  -0.136565  0  3.905661  0
C  C58  1  0.63756308  0.95508208  0.66946346  1  0  0.62897  0  3.918063  0  0  0.576996  0  4.20746  0  0  0.611772  0  4.202617  0  0  0.193709  0.553575  0  4.209774  0
C  C59  1  0.36243720  0.04491736  0.33053830  1  0  0.628943  0  3.91812  0  0  0.576995  0  4.20748  0  0  0.61177  0  4.20264  0  0  0.193735  0.553572  0  4.209795  0
C  C60  1  0.59728219  0.95264453  0.79130185  1  0  -0.05845  0  3.769265  0  0  -0.035691  0  4.005806  0  0  -0.043844  0  4.028931  0  0  -0.021431  -0.030509  0  3.990362  0
C  C61  1  0.40271726  0.04735601  0.20869851  1  0  -0.0584  0  3.769248  0  0  -0.035645  0  4.00578  0  0  -0.043798  0  4.028907  0  0  -0.021402  -0.030463  0  3.990339  0
C  C62  1  0.63554458  0.85075898  0.83386523  1  0  -0.07645  0  3.750852  0  0  -0.101811  0  4.002839  0  0  -0.101523  0  4.022793  0  0  -0.088953  -0.101892  0  3.989357  0
C  C63  1  0.36445569  0.14924048  0.16613482  1  0  -0.076499  0  3.750938  0  0  -0.101869  0  4.00293  0  0  -0.101581  0  4.022883  0  0  -0.088981  -0.101951  0  3.98945  0
C  C64  1  0.59669458  0.84856664  0.94623390  1  0  -0.11518  0  3.744508  0  0  -0.133312  0  3.992792  0  0  -0.136914  0  4.014467  0  0  -0.090242  -0.130803  0  3.97788  0
C  C65  1  0.40330696  0.15143282  0.05376709  1  0  -0.115167  0  3.744592  0  0  -0.133309  0  3.992896  0  0  -0.136908  0  4.014569  0  0  -0.090256  -0.130799  0  3.977982  0
C  C66  1  0.52163805  0.05077993  0.86277915  1  0  -0.106108  0  3.693744  0  0  -0.13941  0  3.944109  0  0  -0.139209  0  3.963689  0  0  -0.079763  -0.139244  0  3.930657  0
C  C67  1  0.47836394  0.94922062  0.13722224  1  0  -0.10612  0  3.693676  0  0  -0.139431  0  3.944055  0  0  -0.139229  0  3.963636  0  0  -0.079782  -0.139265  0  3.930604  0
C  C68  1  0.48127525  0.05181141  0.97884471  1  0  0.055474  0  3.802975  0  0  0.072782  0  4.027607  0  0  0.072215  0  4.052276  0  0  -0.006519  0.073248  0  4.010635  0
C  C69  1  0.51872331  0.94818695  0.02115571  1  0  0.055506  0  3.802888  0  0  0.072834  0  4.0275  0  0  0.072268  0  4.05217  0  0  -0.006517  0.0733  0  4.01053  0
N  N70  1  0.83088079  0.15573682  0.38394735  1  0  -0.390405  0  3.252871  0  0  -0.311827  0  3.518374  0  0  -0.336647  0  3.539047  0  0  -0.328336  -0.294856  0  3.503461  0
N  N71  1  0.16911993  0.84426371  0.61605482  1  0  -0.390335  0  3.252831  0  0  -0.311761  0  3.51833  0  0  -0.336579  0  3.539005  0  0  -0.328318  -0.294791  0  3.503417  0
O  O72  1  0.67646186  0.77221615  0.27282868  1  0  -0.634475  0  1.948716  0  0  -0.571017  0  2.190525  0  0  -0.599649  0  2.179175  0  0  -0.328051  -0.550706  0  2.197313  0
O  O73  1  0.32353758  0.22778438  0.72717339  1  0  -0.6345  0  1.948688  0  0  -0.571041  0  2.190504  0  0  -0.599674  0  2.179154  0  0  -0.328064  -0.550731  0  2.197293  0
O  O74  1  0.96858117  0.86649271  0.36829551  1  0  -0.664516  0  2.025821  0  0  -0.600835  0  2.287217  0  0  -0.630641  0  2.276329  0  0  -0.328929  -0.580006  0  2.293664  0
O  O75  1  0.03141744  0.13350891  0.63170601  1  0  -0.664546  0  2.02584  0  0  -0.600841  0  2.287198  0  0  -0.630645  0  2.276309  0  0  -0.328971  -0.58002  0  2.293661  0
O  O76  1  0.58868219  0.04168554  0.62906581  1  0  -0.687553  0  2.041367  0  0  -0.611602  0  2.297815  0  0  -0.64346  0  2.286394  0  0  -0.333728  -0.589402  0  2.304723  0
O  O77  1  0.41131936  0.95831392  0.37093518  1  0  -0.687592  0  2.041439  0  0  -0.611649  0  2.297869  0  0  -0.643506  0  2.286444  0  0  -0.333761  -0.589451  0  2.304782  0
O  O78  1  0.72167043  0.87499480  0.60866910  1  0  -0.604029  0  1.973048  0  0  -0.539951  0  2.209981  0  0  -0.568701  0  2.202679  0  0  -0.307643  -0.519648  0  2.213977  0
O  O79  1  0.27832985  0.12500464  0.39133352  1  0  -0.604017  0  1.973087  0  0  -0.539915  0  2.209973  0  0  -0.568653  0  2.202649  0  0  -0.307648  -0.51961  0  2.213969  0
