# generated using pymatgen
data_CuH4C5(NO2)2
_symmetry_space_group_name_H-M   'P 1'
_cell_length_a   8.32095443
_cell_length_b   8.56406519
_cell_length_c   9.34169670
_cell_angle_alpha   89.99959779
_cell_angle_beta   89.99924809
_cell_angle_gamma   92.49516029
_symmetry_Int_Tables_number   1
_chemical_formula_structural   CuH4C5(NO2)2
_chemical_formula_sum   'Cu4 H16 C20 N8 O16'
_cell_volume   665.06933204
_cell_formula_units_Z   4
loop_
 _symmetry_equiv_pos_site_id
 _symmetry_equiv_pos_as_xyz
  1  'x, y, z'
loop_
 _atom_site_type_symbol
 _atom_site_label
 _atom_site_symmetry_multiplicity
 _atom_site_fract_x
 _atom_site_fract_y
 _atom_site_fract_z
 _atom_site_occupancy
 _atom_site_pbe_cm5_charge
 _atom_site_pbe_ddec_charge
 _atom_site_pbe_ddec_spin_density
 _atom_site_pbe_ddec_sum_bond_order
 _atom_site_pbe_magmom
Cu  Cu0  1  0.87138374  0.10124533  0.76023332  1  0.726011  0.85264  0.683086  2.185605  0.546
Cu  Cu1  1  0.12862176  0.39876042  0.26023765  1  0.72601  0.852757  0.683069  2.185491  0.546
Cu  Cu2  1  0.12861608  0.89876205  0.23975907  1  0.726016  0.852783  -0.68305  2.185376  -0.546
Cu  Cu3  1  0.87138021  0.60124111  0.73976652  1  0.726051  0.852713  -0.683113  2.185704  -0.546
H  H4  1  0.27146933  0.09286763  0.73623803  1  0.313642  0.286673  0.000501  0.981931  0.001
H  H5  1  0.72853467  0.40712314  0.23622347  1  0.313733  0.28678  0.000501  0.981875  0.001
H  H6  1  0.72851932  0.90713156  0.26377149  1  0.313684  0.286695  -0.000501  0.981834  -0.001
H  H7  1  0.27147291  0.59286906  0.76377749  1  0.313717  0.286727  -0.000501  0.98183  -0.001
H  H8  1  0.68044550  0.23699883  0.48956477  1  0.11542  0.114234  0.000268  1.028398  0.001
H  H9  1  0.31955786  0.26300732  0.98956057  1  0.115422  0.114226  0.000268  1.028379  0.001
H  H10  1  0.31953323  0.76299332  0.51042441  1  0.115438  0.114165  -0.000268  1.028502  -0.001
H  H11  1  0.68044902  0.73699656  0.01043718  1  0.115452  0.11426  -0.000268  1.028435  -0.001
H  H12  1  0.34434755  0.21832739  0.49123888  1  0.120071  0.125311  0.000324  1.045481  0.001
H  H13  1  0.65565528  0.28166706  0.99122525  1  0.120012  0.125198  0.000324  1.045556  0.001
H  H14  1  0.65563113  0.78166360  0.50876207  1  0.120019  0.125258  -0.000324  1.045521  -0.001
H  H15  1  0.34435135  0.71833098  0.00877356  1  0.119999  0.125211  -0.000324  1.045549  -0.001
H  H16  1  0.52049271  0.02131538  0.87288006  1  0.133569  0.097033  7.3e-05  1.032588  0.0
H  H17  1  0.47951801  0.47868243  0.37287226  1  0.133569  0.097056  7.3e-05  1.032478  0.0
H  H18  1  0.47950576  0.97868850  0.12712304  1  0.133564  0.097052  -7.3e-05  1.03254  0.0
H  H19  1  0.52049328  0.52131212  0.62713084  1  0.13354  0.097041  -7.3e-05  1.032498  0.0
C  C20  1  0.91613305  0.98859283  0.03217730  1  0.212678  0.480878  -0.00032  4.21021  -0.001
C  C21  1  0.08387968  0.51141445  0.53218923  1  0.212775  0.480942  -0.000322  4.209919  -0.001
C  C22  1  0.08388400  0.01142393  0.96780974  1  0.212851  0.480979  0.000322  4.210075  0.001
C  C23  1  0.91611353  0.48857890  0.46781601  1  0.212787  0.480878  0.000319  4.209889  0.001
C  C24  1  0.01955942  0.08913532  0.48651187  1  0.19918  0.474831  -0.00071  4.184609  -0.003
C  C25  1  0.98044524  0.41087203  0.98650966  1  0.199253  0.474889  -0.000713  4.184495  -0.003
C  C26  1  0.98043910  0.91086972  0.51349337  1  0.199318  0.474924  0.000712  4.184477  0.003
C  C27  1  0.01955438  0.58913067  0.01349130  1  0.199152  0.474749  0.000709  4.184852  0.003
C  C28  1  0.59726077  0.19025212  0.56928005  1  -0.008504  -0.040352  0.001004  3.993069  0.001
C  C29  1  0.40274734  0.30974941  0.06927208  1  -0.008406  -0.040266  0.001004  3.993096  0.001
C  C30  1  0.40272883  0.80974122  0.43071555  1  -0.008322  -0.040092  -0.001003  3.992948  -0.001
C  C31  1  0.59726189  0.69025331  0.93072781  1  -0.008454  -0.040294  -0.001004  3.993027  -0.001
C  C32  1  0.43186498  0.18261605  0.56912904  1  -0.000771  -0.049354  0.002159  3.921052  0.002
C  C33  1  0.56814048  0.31737963  0.06911693  1  -0.000633  -0.049098  0.002159  3.920814  0.002
C  C34  1  0.56812332  0.81737495  0.43086977  1  -0.000725  -0.049259  -0.002159  3.92105  -0.002
C  C35  1  0.43186380  0.68261957  0.93088295  1  -0.000644  -0.049116  -0.00216  3.920827  -0.002
C  C36  1  0.52034487  0.07887422  0.76983757  1  0.141437  0.151234  -0.000139  3.922388  0.0
C  C37  1  0.47966619  0.42112445  0.26982799  1  0.141501  0.151197  -0.00014  3.922285  0.0
C  C38  1  0.47965464  0.92112615  0.23016339  1  0.141416  0.15123  0.000139  3.922296  0.0
C  C39  1  0.52034285  0.57887359  0.73017297  1  0.141495  0.151234  0.000139  3.92216  0.0
N  N40  1  0.65071277  0.12592326  0.69558569  1  -0.382661  -0.310005  0.048023  3.645659  0.062
N  N41  1  0.34929830  0.37407837  0.19557687  1  -0.382723  -0.309995  0.048026  3.645637  0.062
N  N42  1  0.34928424  0.87407476  0.30440885  1  -0.382731  -0.310156  -0.048021  3.645659  -0.062
N  N43  1  0.65071083  0.62592201  0.80442195  1  -0.38267  -0.30996  -0.048023  3.645704  -0.062
N  N44  1  0.38648037  0.11219359  0.69636873  1  -0.377064  -0.193136  0.001772  3.670036  0.002
N  N45  1  0.61352913  0.38779986  0.19635457  1  -0.377274  -0.193394  0.001771  3.670115  0.002
N  N46  1  0.61351413  0.88780209  0.30363544  1  -0.377146  -0.193208  -0.001771  3.669994  -0.002
N  N47  1  0.38647865  0.61219702  0.80364531  1  -0.377264  -0.193412  -0.001772  3.670041  -0.002
O  O48  1  0.79717237  0.02229121  0.95601536  1  -0.287947  -0.478909  0.039494  2.371958  0.056
O  O49  1  0.20283750  0.47771524  0.45600868  1  -0.288005  -0.478994  0.039499  2.371958  0.056
O  O50  1  0.20284312  0.97771737  0.04397490  1  -0.288138  -0.479141  -0.039497  2.371944  -0.056
O  O51  1  0.79715721  0.52228512  0.54399548  1  -0.288044  -0.478949  -0.039493  2.371803  -0.056
O  O52  1  0.90806933  0.93587673  0.15934285  1  -0.292355  -0.47361  -0.03224  2.384799  -0.046
O  O53  1  0.09192476  0.56413178  0.65935649  1  -0.292444  -0.473638  -0.032234  2.384883  -0.046
O  O54  1  0.09193705  0.06414352  0.84064740  1  -0.292374  -0.473545  0.032235  2.384789  0.046
O  O55  1  0.90806949  0.43585806  0.34065089  1  -0.292391  -0.473628  0.032242  2.384852  0.046
O  O56  1  0.97455991  0.18477023  0.58253240  1  -0.308339  -0.482746  0.055985  2.353549  0.08
O  O57  1  0.02544665  0.31522768  0.08252348  1  -0.308403  -0.482875  0.055998  2.353286  0.08
O  O58  1  0.02543945  0.81522663  0.41747498  1  -0.308438  -0.482906  -0.055995  2.353242  -0.08
O  O59  1  0.97455042  0.68477151  0.91747640  1  -0.30835  -0.482765  -0.055989  2.353445  -0.08
O  O60  1  0.09288557  0.12839748  0.37400284  1  -0.304398  -0.554777  0.009026  2.374406  0.013
O  O61  1  0.90712043  0.37160264  0.87400709  1  -0.304405  -0.554718  0.009031  2.374387  0.013
O  O62  1  0.90711290  0.87160639  0.62599704  1  -0.304407  -0.554749  -0.009027  2.374529  -0.013
O  O63  1  0.09287659  0.62839539  0.12599814  1  -0.304355  -0.554732  -0.009028  2.374553  -0.013
