# generated using pymatgen
data_MnH22C16I4(NO4)2
_symmetry_space_group_name_H-M   'P 1'
_cell_length_a   8.44184061
_cell_length_b   11.48607976
_cell_length_c   13.80100000
_cell_angle_alpha   90.00000000
_cell_angle_beta   90.00000000
_cell_angle_gamma   101.60920174
_symmetry_Int_Tables_number   1
_chemical_formula_structural   MnH22C16I4(NO4)2
_chemical_formula_sum   'Mn2 H44 C32 I8 N4 O16'
_cell_volume   1310.81985784
_cell_formula_units_Z   2
loop_
 _symmetry_equiv_pos_site_id
 _symmetry_equiv_pos_as_xyz
  1  'x, y, z'
loop_
 _atom_site_type_symbol
 _atom_site_label
 _atom_site_symmetry_multiplicity
 _atom_site_fract_x
 _atom_site_fract_y
 _atom_site_fract_z
 _atom_site_occupancy
 _atom_site_hle17_ddec_charge
 _atom_site_hle17_ddec_spin_density
 _atom_site_hle17_ddec_sum_bond_order
 _atom_site_hle17_magmom
 _atom_site_hse06_10hf_ddec_charge
 _atom_site_hse06_10hf_ddec_spin_density
 _atom_site_hse06_10hf_ddec_sum_bond_order
 _atom_site_hse06_10hf_magmom
 _atom_site_hse06_ddec_charge
 _atom_site_hse06_ddec_spin_density
 _atom_site_hse06_ddec_sum_bond_order
 _atom_site_hse06_magmom
 _atom_site_pbe_bader_charge
 _atom_site_pbe_bader_spin_density
 _atom_site_pbe_cm5_charge
 _atom_site_pbe_ddec_charge
 _atom_site_pbe_ddec_spin_density
 _atom_site_pbe_ddec_sum_bond_order
 _atom_site_pbe_magmom
Mn  Mn0  1  0.50000853  0.00000533  0.00000217  1  1.194901  4.799742  1.731533  4.687  1.055008  4.722172  2.202037  4.55  1.111207  4.766006  2.133943  4.61  1.527966  4.548445  0.586511  1.016797  4.672271  2.250438  4.484
Mn  Mn1  1  0.99999271  0.49999874  0.50000362  1  1.194886  -4.799751  1.731542  -4.687  1.055014  -4.722153  2.202105  -4.55  1.111212  -4.765992  2.134009  -4.61  1.527859  -4.548389  0.586415  1.016742  -4.67222  2.250494  -4.484
H  H2  1  0.46193890  0.86708968  0.80149265  1  0.036438  4.9e-05  0.944811  0.0  0.042146  0.0003  1.023051  0.0  0.044493  0.000119  1.016956  0.0  0.117583  0.001141  0.116195  0.040334  0.000503  1.027528  0.0
H  H3  1  0.03805534  0.63291276  0.30149409  1  0.03637  -4.6e-05  0.944982  0.0  0.042104  -0.0003  1.023172  0.0  0.04445  -0.000119  1.017078  0.0  0.117535  -0.001141  0.1162  0.0403  -0.000503  1.02765  0.0
H  H4  1  0.53806433  0.13290335  0.19850228  1  0.036428  5.1e-05  0.944994  0.0  0.042139  0.0003  1.023247  0.0  0.044483  0.00012  1.01715  0.0  0.117677  0.00114  0.116186  0.040332  0.000503  1.027725  0.0
H  H5  1  0.96193751  0.36708561  0.69850518  1  0.036379  -4e-05  0.944938  0.0  0.042106  -0.000301  1.023167  0.0  0.044453  -0.000119  1.017073  0.0  0.117489  -0.001142  0.116197  0.040299  -0.000504  1.027645  0.0
H  H6  1  0.62619782  0.13559820  0.62529889  1  0.084397  8.4e-05  0.94974  0.0  0.103932  0.000185  1.019261  0.0  0.104231  0.000137  1.018966  0.0  0.049723  0.000304  0.09267  0.103575  0.000225  1.019553  0.0
H  H7  1  0.87381666  0.36440232  0.12530324  1  0.084465  -9e-05  0.949675  0.0  0.103967  -0.000185  1.019233  0.0  0.10426  -0.000137  1.018946  0.0  0.049531  -0.000304  0.092654  0.103624  -0.000225  1.019516  0.0
H  H8  1  0.37381544  0.86440550  0.37470401  1  0.084469  8e-05  0.949756  0.0  0.10403  0.000185  1.019244  0.0  0.104322  0.000137  1.018957  0.0  0.049647  0.000304  0.092713  0.103682  0.000225  1.019529  0.0
H  H9  1  0.12618709  0.63559694  0.87470183  1  0.084436  -8.6e-05  0.949731  0.0  0.103963  -0.000185  1.019248  0.0  0.104266  -0.000136  1.018952  0.0  0.050105  -0.000304  0.092696  0.103607  -0.000225  1.019542  0.0
H  H10  1  0.77948094  0.05151581  0.60571915  1  0.099981  6.1e-05  0.968319  0.0  0.117604  0.000116  1.034658  0.0  0.116059  9.3e-05  1.038398  0.0  0.085402  0.000142  0.097717  0.11884  0.000102  1.031974  0.0
H  H11  1  0.72052589  0.44847404  0.10571988  1  0.100028  -6e-05  0.968396  0.0  0.117617  -0.000116  1.034746  0.0  0.116073  -9.3e-05  1.038488  0.0  0.085457  -0.000142  0.097758  0.11885  -0.000102  1.032071  0.0
H  H12  1  0.22052351  0.94848166  0.39428375  1  0.100068  5.2e-05  0.968284  0.0  0.117674  0.000116  1.034638  0.0  0.116124  9.3e-05  1.03839  0.0  0.085387  0.000142  0.097723  0.118911  0.000103  1.031953  0.0
H  H13  1  0.27947449  0.55151722  0.89428230  1  0.100048  -6.5e-05  0.968305  0.0  0.117637  -0.000116  1.034664  0.0  0.116089  -9.4e-05  1.038412  0.0  0.085391  -0.000142  0.097719  0.118872  -0.000102  1.031981  0.0
H  H14  1  0.76238576  0.11894028  0.72138541  1  0.109464  -0.000129  0.941849  0.0  0.126326  -0.0001  1.008468  0.0  0.128341  -0.000136  1.006269  0.0  0.085022  0.000304  0.104557  0.124847  -7.4e-05  1.009955  0.0
H  H15  1  0.73762274  0.38105135  0.22138975  1  0.109503  0.000126  0.941785  0.0  0.126339  9.9e-05  1.008411  0.0  0.128354  0.000135  1.006214  0.0  0.085006  -0.000305  0.104605  0.124867  7.4e-05  1.009903  0.0
H  H16  1  0.23762340  0.88105275  0.27861822  1  0.109449  -0.00013  0.941763  0.0  0.126306  -0.0001  1.008413  0.0  0.128326  -0.000135  1.006208  0.0  0.08512  0.000304  0.104555  0.124826  -7.4e-05  1.009902  0.0
H  H17  1  0.26237670  0.61894080  0.77861749  1  0.109489  0.000127  0.941793  0.0  0.126346  0.0001  1.008419  0.0  0.128363  0.000136  1.006219  0.0  0.085145  -0.000305  0.104576  0.124868  7.4e-05  1.009908  0.0
H  H18  1  0.43422131  0.80688495  0.65391566  1  0.092891  1.1e-05  0.966504  0.0  0.109704  6.5e-05  1.038021  0.0  0.110638  4.6e-05  1.037734  0.0  0.067887  0.000124  0.100119  0.108916  8.7e-05  1.038299  0.0
H  H19  1  0.06576867  0.69311927  0.15391638  1  0.092842  -1.6e-05  0.966496  0.0  0.109652  -6.5e-05  1.038025  0.0  0.110584  -4.6e-05  1.037741  0.0  0.067902  -0.000124  0.100095  0.108866  -8.7e-05  1.038305  0.0
H  H20  1  0.56578460  0.19311786  0.34607710  1  0.092859  1.4e-05  0.966395  0.0  0.109679  6.5e-05  1.037909  0.0  0.110608  4.6e-05  1.037623  0.0  0.067757  0.000124  0.100097  0.108892  8.7e-05  1.038186  0.0
H  H21  1  0.93422086  0.30687999  0.84608217  1  0.092878  -2e-05  0.966475  0.0  0.109691  -6.5e-05  1.037996  0.0  0.110623  -4.6e-05  1.03771  0.0  0.067812  -0.000124  0.100103  0.108904  -8.7e-05  1.038276  0.0
H  H22  1  0.61321779  0.84427771  0.58276936  1  0.115064  5e-05  0.961391  0.0  0.128736  0.000131  1.030775  0.0  0.130283  9.8e-05  1.030323  0.0  0.109075  0.000209  0.097004  0.127704  0.000147  1.031007  0.0
H  H23  1  0.88677111  0.65571851  0.08277226  1  0.115011  -5.2e-05  0.961323  0.0  0.128709  -0.000131  1.030705  0.0  0.130256  -9.8e-05  1.030252  0.0  0.109017  -0.000209  0.097001  0.127677  -0.000147  1.030938  0.0
H  H24  1  0.38678526  0.15572332  0.41722411  1  0.115103  5.2e-05  0.961371  0.0  0.128765  0.000131  1.030771  0.0  0.130312  9.8e-05  1.030315  0.0  0.109239  0.000209  0.097042  0.127732  0.000147  1.031004  0.0
H  H25  1  0.11321888  0.34427808  0.91723064  1  0.115058  -5.4e-05  0.961372  0.0  0.12873  -0.000131  1.030767  0.0  0.130277  -9.8e-05  1.030313  0.0  0.109043  -0.000209  0.096993  0.127696  -0.000146  1.031002  0.0
H  H26  1  0.44971745  0.92168786  0.56571118  1  0.089429  7.7e-05  0.93969  0.0  0.108449  0.00019  1.006743  0.0  0.108841  0.000141  1.007189  0.0  0.044241  0.000396  0.094161  0.108238  0.000238  1.006313  0.0
H  H27  1  0.05027539  0.57831813  0.06571263  1  0.089325  -9e-05  0.939543  0.0  0.108333  -0.000191  1.00665  0.0  0.108732  -0.000141  1.00708  0.0  0.044386  -0.000395  0.094144  0.108117  -0.000238  1.006236  0.0
H  H28  1  0.55028254  0.07831495  0.43428520  1  0.089393  8.3e-05  0.939576  0.0  0.108413  0.000191  1.00666  0.0  0.108809  0.000141  1.007092  0.0  0.044536  0.000396  0.094168  0.1082  0.000238  1.006233  0.0
H  H29  1  0.94971557  0.42168201  0.93428665  1  0.089433  -8.5e-05  0.93964  0.0  0.108467  -0.00019  1.006679  0.0  0.108862  -0.000141  1.007119  0.0  0.04443  -0.000395  0.094172  0.108254  -0.000238  1.006257  0.0
H  H30  1  0.16127532  0.80455451  0.99448518  1  0.080667  -0.000241  0.941364  0.0  0.101854  -0.000152  1.002101  0.0  0.101956  -0.000188  1.002431  0.0  0.039566  0.000291  0.097153  0.102059  -0.000127  1.001528  0.0
H  H31  1  0.33873505  0.69545059  0.49448301  1  0.080731  0.000242  0.941326  0.0  0.101934  0.000152  1.002036  0.0  0.102037  0.000188  1.002366  0.0  0.039557  -0.000291  0.097215  0.102138  0.000127  1.001468  0.0
H  H32  1  0.83874004  0.19544386  0.00551337  1  0.080691  -0.000241  0.94136  0.0  0.101918  -0.000152  1.002034  0.0  0.102017  -0.000188  1.002372  0.0  0.039661  0.000291  0.097186  0.102123  -0.000127  1.001462  0.0
H  H33  1  0.66126901  0.30455844  0.50551844  1  0.080631  0.000243  0.941361  0.0  0.101852  0.000152  1.002056  0.0  0.101951  0.000188  1.002393  0.0  0.039669  -0.000291  0.097167  0.102057  0.000127  1.001485  0.0
H  H34  1  0.01240686  0.87948135  0.94576480  1  0.059582  0.000689  0.976468  0.001  0.069091  0.000967  1.058385  0.001  0.06981  0.000728  1.057905  0.001  0.052697  0.002239  0.077689  0.068835  0.001193  1.05861  0.001
H  H35  1  0.48759518  0.62051931  0.44576190  1  0.059589  -0.000689  0.976426  -0.001  0.069089  -0.000967  1.058378  -0.001  0.069807  -0.000728  1.0579  -0.001  0.052649  -0.00224  0.07767  0.06884  -0.001194  1.058598  -0.001
H  H36  1  0.98760278  0.12051346  0.05423520  1  0.059621  0.000689  0.976446  0.001  0.069145  0.000967  1.05835  0.001  0.069866  0.000728  1.057868  0.001  0.052724  0.00224  0.077691  0.068891  0.001193  1.058569  0.001
H  H37  1  0.51239912  0.37948439  0.55423520  1  0.059597  -0.00069  0.976427  -0.001  0.069118  -0.000967  1.058341  -0.001  0.069837  -0.000728  1.057863  -0.001  0.052739  -0.00224  0.077694  0.068863  -0.001194  1.058563  -0.001
H  H38  1  0.10491957  0.92308150  0.06081588  1  0.077491  -0.000255  0.933085  0.0  0.096677  -0.000171  0.993484  0.0  0.098048  -0.000246  0.99222  0.0  0.054825  0.000494  0.093435  0.095797  -6.8e-05  0.994355  0.0
H  H39  1  0.39508794  0.57692183  0.56081661  1  0.077493  0.000254  0.93302  0.0  0.096721  0.000171  0.993392  0.0  0.098094  0.000245  0.992123  0.0  0.054815  -0.000494  0.093423  0.095841  6.8e-05  0.994267  0.0
H  H40  1  0.89509293  0.07691509  0.93918267  1  0.077519  -0.000255  0.933038  0.0  0.09672  -0.000171  0.993424  0.0  0.098091  -0.000245  0.992159  0.0  0.054803  0.000494  0.093474  0.095841  -6.8e-05  0.994293  0.0
H  H41  1  0.60490658  0.42307832  0.43918194  1  0.077439  0.000257  0.933076  0.0  0.09666  0.000171  0.993456  0.0  0.098031  0.000245  0.99219  0.0  0.054752  -0.000494  0.093406  0.095782  6.8e-05  0.994329  0.0
H  H42  1  0.23632817  0.05339385  0.93700674  1  0.368391  0.000226  0.919836  0.0  0.344815  0.000964  0.987691  0.001  0.356119  0.000722  0.975853  0.001  0.640146  0.000881  0.292767  0.336715  0.00131  0.996096  0.001
H  H43  1  0.26366865  0.44661111  0.43700819  1  0.368461  -0.000226  0.919752  0.0  0.344851  -0.000964  0.987658  -0.001  0.356154  -0.000722  0.975818  -0.001  0.640194  -0.000881  0.292749  0.336748  -0.00131  0.99607  -0.001
H  H44  1  0.76367534  0.94660452  0.06298819  1  0.368374  0.000226  0.919786  0.0  0.344814  0.000964  0.987627  0.001  0.356117  0.000723  0.975788  0.001  0.640149  0.000881  0.29274  0.336703  0.00131  0.996048  0.001
H  H45  1  0.73630817  0.55339792  0.56298674  1  0.368381  -0.000225  0.919749  0.0  0.344697  -0.000964  0.987782  -0.001  0.355995  -0.000722  0.975964  -0.001  0.639991  -0.000881  0.292753  0.336615  -0.00131  0.99615  -0.001
C  C46  1  0.39968830  0.24168641  0.97945801  1  0.645739  0.003281  3.975121  0.003  0.590824  0.006459  4.285214  0.006  0.624716  0.004908  4.278089  0.005  1.626893  0.008593  0.196553  0.568248  0.008513  4.289088  0.007
C  C47  1  0.10031110  0.25831499  0.47945511  1  0.645888  -0.003283  3.974991  -0.003  0.590957  -0.006458  4.285033  -0.006  0.624836  -0.004908  4.277924  -0.005  1.626867  -0.008596  0.19656  0.568378  -0.008515  4.288914  -0.007
C  C48  1  0.60031287  0.75831640  0.02053692  1  0.645818  0.003279  3.974962  0.003  0.590932  0.006455  4.285021  0.006  0.62481  0.004905  4.277915  0.005  1.62733  0.008589  0.196513  0.568357  0.008508  4.288895  0.007
C  C49  1  0.89966401  0.74168782  0.52054561  1  0.64569  -0.003286  3.975194  -0.003  0.590854  -0.006459  4.285115  -0.006  0.624757  -0.004908  4.27797  -0.005  1.627356  -0.008598  0.196546  0.568274  -0.008516  4.288998  -0.007
C  C50  1  0.44743496  0.37603317  0.98918702  1  -0.079774  0.000482  3.74676  0.001  -0.073784  0.000589  3.997642  0.001  -0.075531  0.000368  4.014034  0.0  0.067933  0.007696  -0.027698  -0.075423  0.005617  3.989249  0.004
C  C51  1  0.05256636  0.12397090  0.48918557  1  -0.079841  -0.000477  3.746682  -0.001  -0.07375  -0.000588  3.997442  -0.001  -0.075489  -0.000368  4.013834  0.0  0.067931  -0.007704  -0.027725  -0.075394  -0.005623  3.989058  -0.004
C  C52  1  0.55256716  0.62396875  0.01081226  1  -0.079822  0.000477  3.746685  0.001  -0.073857  0.000589  3.997643  0.001  -0.075598  0.000367  4.014035  0.0  0.067972  0.007697  -0.027756  -0.075498  0.005618  3.989254  0.004
C  C53  1  0.94743032  0.87603280  0.51081516  1  -0.079783  -0.00048  3.746675  -0.001  -0.07367  -0.000588  3.997392  -0.001  -0.075417  -0.000365  4.01378  0.0  0.067903  -0.007705  -0.027685  -0.075316  -0.005623  3.98901  -0.004
C  C54  1  0.53925753  0.44365940  0.91640678  1  -0.031091  0.000567  3.667057  0.0  -0.019116  0.001189  3.932035  0.001  -0.015983  0.00061  3.951327  0.0  -0.207215  0.003817  -0.058711  -0.021728  0.002927  3.920722  0.002
C  C55  1  0.96074180  0.05634200  0.41640606  1  -0.031112  -0.000568  3.666986  0.0  -0.019157  -0.001189  3.931926  -0.001  -0.016028  -0.00061  3.951221  0.0  -0.210637  -0.003824  -0.058681  -0.021768  -0.00293  3.920613  -0.002
C  C56  1  0.46074389  0.55634430  0.08359322  1  -0.031075  0.000574  3.667046  0.0  -0.01911  0.001188  3.932034  0.001  -0.015978  0.00061  3.951326  0.0  -0.207325  0.003816  -0.058688  -0.021723  0.002926  3.920722  0.002
C  C57  1  0.03925655  0.94366347  0.58359612  1  -0.031118  -0.000564  3.667053  0.0  -0.019181  -0.001189  3.931997  -0.001  -0.016049  -0.000611  3.95129  0.0  -0.210172  -0.003823  -0.058698  -0.021793  -0.00293  3.920685  -0.002
C  C58  1  0.59303107  0.56676105  0.92710166  1  -0.03942  0.000517  3.674876  0.0  -0.027254  0.001076  3.941386  0.001  -0.024759  0.000565  3.961284  0.0  -0.223706  0.003226  -0.06339  -0.029298  0.002483  3.929669  0.002
C  C59  1  0.90697989  0.93323783  0.42709876  1  -0.039321  -0.000512  3.674965  0.0  -0.027201  -0.001078  3.941413  -0.001  -0.024707  -0.000566  3.961318  0.0  -0.220261  -0.003229  -0.063414  -0.029246  -0.002486  3.929697  -0.002
C  C60  1  0.40697697  0.43324087  0.07289907  1  -0.039348  0.000508  3.674892  0.0  -0.027132  0.001077  3.941284  0.001  -0.024636  0.000563  3.961186  0.0  -0.223542  0.003227  -0.063355  -0.029176  0.002483  3.929566  0.002
C  C61  1  0.09302034  0.06676587  0.57290196  1  -0.039339  -0.000518  3.675028  0.0  -0.027195  -0.001076  3.941447  -0.001  -0.024701  -0.000564  3.961346  0.0  -0.220632  -0.003227  -0.063414  -0.02924  -0.002485  3.929732  -0.002
C  C62  1  0.54601343  0.95155514  0.78571553  1  0.389858  0.001935  3.839232  0.002  0.308058  0.004657  4.140207  0.004  0.33751  0.00334  4.139886  0.003  1.350518  0.00546  0.170008  0.287982  0.005806  4.140123  0.005
C  C63  1  0.95399212  0.54844997  0.28571770  1  0.390082  -0.001956  3.838904  -0.002  0.308271  -0.004659  4.139885  -0.004  0.337724  -0.003343  4.139564  -0.003  1.350578  -0.005466  0.170077  0.288184  -0.005812  4.139813  -0.005
C  C64  1  0.45399652  0.04844945  0.21428737  1  0.389979  0.001939  3.838888  0.002  0.308134  0.004659  4.139879  0.004  0.337599  0.003342  4.13955  0.003  1.350092  0.005466  0.170035  0.288048  0.005809  4.139804  0.005
C  C65  1  0.04600713  0.45155018  0.71428592  1  0.389909  -0.001966  3.838996  -0.002  0.308094  -0.004658  4.139968  -0.004  0.337542  -0.003344  4.139653  -0.003  1.350752  -0.005466  0.170001  0.288011  -0.005811  4.139892  -0.005
C  C66  1  0.69514869  0.07463620  0.65928556  1  -0.161719  -9e-06  3.644794  0.0  -0.261406  0.000216  3.888799  0.0  -0.256979  0.000105  3.898865  0.0  0.241873  0.000332  -0.139697  -0.264101  0.000264  3.881518  0.0
C  C67  1  0.80486103  0.42535987  0.15928701  1  -0.161829  2e-05  3.644935  0.0  -0.261454  -0.000216  3.888975  0.0  -0.257014  -0.000107  3.899036  0.0  0.242077  -0.000333  -0.139738  -0.264162  -0.000264  3.881687  0.0
C  C68  1  0.30486099  0.92536305  0.34071879  1  -0.161743  1.4e-05  3.644762  0.0  -0.261484  0.000216  3.888785  0.0  -0.257041  0.000106  3.898846  0.0  0.241668  0.000333  -0.139672  -0.264181  0.000264  3.881492  0.0
C  C69  1  0.19514032  0.57463494  0.84071734  1  -0.161784  1.6e-05  3.644812  0.0  -0.261453  -0.000215  3.888831  0.0  -0.257025  -0.000108  3.898885  0.0  0.241187  -0.000333  -0.139684  -0.264138  -0.000264  3.881544  0.0
C  C70  1  0.51787374  0.88037726  0.61927252  1  -0.185978  0.000421  3.684719  0.0  -0.288585  0.000633  3.939884  0.0  -0.285956  0.000467  3.950845  0.0  0.244569  0.000777  -0.1418  -0.289971  0.000788  3.931823  0.0
C  C71  1  0.98211733  0.61962251  0.11927759  1  -0.185622  -0.000388  3.684504  0.0  -0.288232  -0.000634  3.939649  0.0  -0.285599  -0.000466  3.950609  0.0  0.244223  -0.000778  -0.141682  -0.289621  -0.000788  3.931597  0.0
C  C72  1  0.48212956  0.11962466  0.38072024  1  -0.185883  0.0004  3.684576  0.0  -0.288469  0.000633  3.939668  0.0  -0.285822  0.000467  3.950626  0.0  0.243998  0.000778  -0.141789  -0.289862  0.000788  3.931623  0.0
C  C73  1  0.01787124  0.38037319  0.88072531  1  -0.185981  -0.000389  3.684667  0.0  -0.288577  -0.000633  3.939786  0.0  -0.285945  -0.000467  3.950746  0.0  0.24418  -0.000778  -0.141795  -0.289967  -0.000788  3.931744  0.0
C  C74  1  0.12519855  0.89075135  0.98774364  1  -0.017209  0.001207  3.651766  0.001  -0.107939  0.002795  3.91618  0.002  -0.101367  0.002093  3.921  0.002  0.386372  0.003924  -0.154719  -0.112627  0.003465  3.911975  0.003
C  C75  1  0.37480634  0.60925109  0.48774292  1  -0.017316  -0.001207  3.651835  -0.001  -0.10811  -0.002796  3.916297  -0.002  -0.101537  -0.00209  3.921117  -0.002  0.38639  -0.003925  -0.154755  -0.112808  -0.003467  3.912096  -0.003
C  C76  1  0.87481300  0.10924613  0.01225563  1  -0.01744  0.001209  3.651813  0.001  -0.108222  0.002796  3.916282  0.002  -0.101648  0.002094  3.921097  0.002  0.386217  0.003924  -0.154817  -0.112911  0.003467  3.912071  0.003
C  C77  1  0.62518821  0.39075350  0.51225563  1  -0.017196  -0.001216  3.65167  -0.001  -0.107988  -0.002795  3.916088  -0.002  -0.101414  -0.002093  3.92091  -0.002  0.386268  -0.003926  -0.154715  -0.112678  -0.003468  3.911894  -0.003
I  I78  1  0.58429429  0.35750967  0.78748424  1  0.083722  0.001033  1.516748  0.001  0.076731  0.002122  1.850023  0.001  0.076588  0.000944  1.8359  0.001  0.167447  0.002213  0.149696  0.075619  0.002421  1.861041  0.001
I  I79  1  0.91572187  0.14249263  0.28748134  1  0.083741  -0.001036  1.516784  -0.001  0.076731  -0.002124  1.850073  -0.001  0.076592  -0.000944  1.835951  -0.001  0.167367  -0.002219  0.149698  0.07561  -0.002427  1.861095  -0.001
I  I80  1  0.41569765  0.64249403  0.21251431  1  0.083731  0.001031  1.516752  0.001  0.076737  0.002122  1.850023  0.001  0.076597  0.000944  1.835901  0.001  0.167454  0.002214  0.149689  0.075625  0.002421  1.861042  0.001
I  I81  1  0.08429258  0.85751107  0.71251576  1  0.083754  -0.001036  1.516776  -0.001  0.076756  -0.002123  1.85004  -0.001  0.076616  -0.000945  1.83592  -0.001  0.167333  -0.002219  0.149711  0.075634  -0.002426  1.86106  -0.001
I  I82  1  0.73627651  0.66988245  0.81997536  1  0.034106  0.001191  1.482316  0.001  0.020632  0.002612  1.803205  0.002  0.022177  0.001272  1.790776  0.001  0.163001  0.002701  0.111399  0.018523  0.00278  1.813071  0.002
I  I83  1  0.76371316  0.83012088  0.31998189  1  0.034049  -0.001193  1.48239  -0.001  0.020582  -0.002613  1.80327  -0.002  0.022135  -0.001274  1.790826  -0.001  0.163049  -0.002705  0.111377  0.018466  -0.002784  1.813139  -0.002
I  I84  1  0.26373863  0.33011948  0.18002609  1  0.03407  0.001192  1.482351  0.001  0.020573  0.002612  1.80325  0.002  0.022114  0.001273  1.790828  0.001  0.163069  0.002702  0.111356  0.018466  0.00278  1.813116  0.002
I  I85  1  0.23627690  0.16988460  0.68002101  1  0.034084  -0.001193  1.482368  -0.001  0.020603  -0.002612  1.803264  -0.002  0.022151  -0.001274  1.790832  -0.001  0.163027  -0.002704  0.111386  0.018487  -0.002783  1.813131  -0.002
N  N86  1  0.58663280  0.96728248  0.69227447  1  -0.098733  0.002106  3.527105  0.002  0.008089  0.003824  3.757996  0.004  -0.013296  0.002986  3.784445  0.003  -1.209539  0.006512  -0.28433  0.022898  0.004676  3.739137  0.005
N  N87  1  0.91336464  0.53271463  0.19228172  1  -0.098937  -0.002109  3.527427  -0.002  0.007899  -0.003826  3.758311  -0.004  -0.013488  -0.002983  3.784756  -0.003  -1.20949  -0.006514  -0.284426  0.02271  -0.004678  3.739467  -0.005
N  N88  1  0.41337566  0.03271233  0.30772118  1  -0.098772  0.002115  3.527376  0.002  0.008091  0.003825  3.758225  0.004  -0.013309  0.002988  3.784669  0.003  -1.209207  0.006514  -0.284315  0.0229  0.004678  3.739371  0.005
N  N89  1  0.08662748  0.46728107  0.80772553  1  -0.098746  -0.002096  3.527077  -0.002  0.00809  -0.003825  3.757948  -0.004  -0.013296  -0.002981  3.7844  -0.003  -1.209246  -0.006513  -0.284349  0.0229  -0.004677  3.739097  -0.005
O  O90  1  0.50558376  0.18612388  0.01070720  1  -0.637881  0.030824  2.034607  0.019  -0.574314  0.035604  2.295534  0.019  -0.60641  0.032985  2.284979  0.017  -1.186291  0.051107  -0.310028  -0.551174  0.035476  2.302013  0.017
O  O91  1  0.99441676  0.31387752  0.51070140  1  -0.638031  -0.030829  2.034741  -0.019  -0.574483  -0.035606  2.295737  -0.019  -0.606578  -0.03299  2.285186  -0.017  -1.186199  -0.051088  -0.31003  -0.551331  -0.03547  2.302211  -0.017
O  O92  1  0.49441574  0.81387715  0.98929353  1  -0.638013  0.030829  2.034757  0.019  -0.574477  0.035611  2.295717  0.019  -0.606568  0.032993  2.285167  0.017  -1.186277  0.051086  -0.310045  -0.551336  0.035482  2.302196  0.017
O  O93  1  0.00556111  0.68611374  0.48930585  1  -0.637982  -0.030824  2.034512  -0.019  -0.574624  -0.035614  2.295593  -0.019  -0.60673  -0.032995  2.285023  -0.017  -1.186221  -0.051091  -0.310114  -0.55147  -0.035479  2.302073  -0.017
O  O94  1  0.26427109  0.19833157  0.94215564  1  -0.60827  0.000888  1.996593  0.001  -0.554755  0.002547  2.219373  0.003  -0.580808  0.001865  2.212677  0.002  -1.172697  0.006231  -0.304285  -0.536256  0.004084  2.223468  0.004
O  O95  1  0.23573591  0.30167161  0.44216071  1  -0.608337  -0.000882  1.99649  -0.001  -0.554784  -0.002547  2.219218  -0.003  -0.580834  -0.001862  2.212527  -0.002  -1.17272  -0.006232  -0.304294  -0.536291  -0.004085  2.223321  -0.004
O  O96  1  0.73573646  0.80166857  0.05783421  1  -0.608293  0.000886  1.996466  0.001  -0.554758  0.002545  2.219182  0.003  -0.580807  0.001863  2.212493  0.002  -1.173126  0.006228  -0.304264  -0.536257  0.004082  2.223281  0.004
O  O97  1  0.76423948  0.69833653  0.55783059  1  -0.608187  -0.000888  1.996845  -0.001  -0.554576  -0.002547  2.219489  -0.003  -0.580631  -0.001865  2.212794  -0.002  -1.173174  -0.006234  -0.304238  -0.536094  -0.004086  2.223581  -0.004
O  O98  1  0.25477266  0.96894365  0.93902109  1  -0.560556  0.030498  2.217478  0.02  -0.486316  0.038894  2.471831  0.025  -0.509863  0.035119  2.459552  0.022  -1.175898  0.058006  -0.405553  -0.468046  0.04192  2.479376  0.028
O  O99  1  0.24523178  0.53106146  0.43902253  1  -0.560584  -0.030499  2.217652  -0.02  -0.486296  -0.038893  2.472017  -0.025  -0.509845  -0.035121  2.459742  -0.022  -1.175941  -0.058004  -0.405512  -0.468019  -0.041915  2.479566  -0.028
O  O100  1  0.74523962  0.03105650  0.06097819  1  -0.560367  0.030498  2.217475  0.02  -0.48616  0.038895  2.471861  0.025  -0.509711  0.035118  2.45959  0.022  -1.175694  0.05798  -0.405478  -0.467882  0.041919  2.479427  0.028
O  O101  1  0.75475880  0.46895024  0.56097674  1  -0.560428  -0.030499  2.21735  -0.02  -0.486169  -0.038897  2.471945  -0.025  -0.509697  -0.035121  2.459626  -0.022  -1.175531  -0.057977  -0.405506  -0.467904  -0.041919  2.479466  -0.028
O  O102  1  0.59818622  0.02462691  0.85152598  1  -0.544034  0.027633  2.098384  0.017  -0.487703  0.034843  2.369807  0.021  -0.514471  0.031696  2.360486  0.019  -1.183545  0.05317  -0.294146  -0.468887  0.037875  2.376053  0.024
O  O103  1  0.90181851  0.47536828  0.35153540  1  -0.544157  -0.02763  2.097906  -0.017  -0.487828  -0.034852  2.369336  -0.021  -0.514603  -0.031705  2.360014  -0.019  -1.183433  -0.053183  -0.294188  -0.469  -0.037883  2.375581  -0.024
O  O104  1  0.40181816  0.97536168  0.14846678  1  -0.544267  0.027637  2.097771  0.017  -0.487907  0.034856  2.369191  0.021  -0.514687  0.031704  2.359868  0.019  -1.183066  0.05319  -0.29424  -0.469084  0.03789  2.375438  0.024
O  O105  1  0.09817928  0.52462653  0.64847330  1  -0.54404  -0.027629  2.098105  -0.017  -0.4877  -0.034847  2.369508  -0.021  -0.514471  -0.0317  2.360191  -0.019  -1.183417  -0.053172  -0.294144  -0.468874  -0.037876  2.37575  -0.024
