# generated using pymatgen
data_CoH12C4N2(ClO2)2
_symmetry_space_group_name_H-M   'P 1'
_cell_length_a   7.73976018
_cell_length_b   8.04740732
_cell_length_c   8.21950816
_cell_angle_alpha   89.99991704
_cell_angle_beta   106.20628573
_cell_angle_gamma   90.00023413
_symmetry_Int_Tables_number   1
_chemical_formula_structural   CoH12C4N2(ClO2)2
_chemical_formula_sum   'Co2 H24 C8 N4 Cl4 O8'
_cell_volume   491.60868542
_cell_formula_units_Z   2
loop_
 _symmetry_equiv_pos_site_id
 _symmetry_equiv_pos_as_xyz
  1  'x, y, z'
loop_
 _atom_site_type_symbol
 _atom_site_label
 _atom_site_symmetry_multiplicity
 _atom_site_fract_x
 _atom_site_fract_y
 _atom_site_fract_z
 _atom_site_occupancy
 _atom_site_hle17_ddec_charge
 _atom_site_hle17_ddec_spin_density
 _atom_site_hle17_ddec_sum_bond_order
 _atom_site_hle17_magmom
 _atom_site_hse06_10hf_ddec_charge
 _atom_site_hse06_10hf_ddec_spin_density
 _atom_site_hse06_10hf_ddec_sum_bond_order
 _atom_site_hse06_10hf_magmom
 _atom_site_hse06_ddec_charge
 _atom_site_hse06_ddec_spin_density
 _atom_site_hse06_ddec_sum_bond_order
 _atom_site_hse06_magmom
 _atom_site_pbe_cm5_charge
 _atom_site_pbe_ddec_charge
 _atom_site_pbe_ddec_spin_density
 _atom_site_pbe_ddec_sum_bond_order
 _atom_site_pbe_magmom
Co  Co0  1  0.00000068  0.99999785  0.00000069  1  1.021012  2.790386  1.963138  2.537  1.013016  2.805136  2.353518  2.599  1.08805  2.864773  2.285418  2.701  0.551163  0.947508  2.737686  2.414961  2.483
Co  Co1  1  0.99999698  0.49999868  0.50000152  1  1.021016  2.790384  1.963106  2.537  1.013049  2.805146  2.353473  2.599  1.088075  2.864775  2.285373  2.701  0.551177  0.947544  2.737698  2.414897  2.483
H  H2  1  0.11266945  0.06005658  0.33264027  1  0.406431  -0.00058  0.879339  -0.001  0.380714  -2.2e-05  0.952028  0.0  0.391353  -0.000169  0.936719  0.0  0.271194  0.372758  0.000123  0.963397  0.0
H  H3  1  0.88732779  0.56005407  0.16736002  1  0.406487  -0.000581  0.879272  -0.001  0.380766  -2.1e-05  0.951966  0.0  0.391408  -0.000169  0.936646  0.0  0.271233  0.372812  0.000123  0.963328  0.0
H  H4  1  0.88732899  0.93994251  0.66735939  1  0.406445  -0.00058  0.879303  -0.001  0.380728  -2.2e-05  0.952014  0.0  0.391368  -0.000169  0.936697  0.0  0.271212  0.372772  0.000123  0.963379  0.0
H  H5  1  0.11267333  0.43994253  0.83264158  1  0.406445  -0.00058  0.879313  -0.001  0.380724  -2.2e-05  0.952022  0.0  0.391366  -0.000169  0.936703  0.0  0.271205  0.37277  0.000124  0.963384  0.0
H  H6  1  0.02270595  0.88390934  0.31132675  1  0.411376  -0.00012  0.870316  0.0  0.383019  0.000311  0.950047  0.001  0.394  0.000119  0.934129  0.0  0.276498  0.37492  0.000503  0.961624  0.001
H  H7  1  0.97729257  0.38390807  0.18867829  1  0.411417  -0.000121  0.8703  0.0  0.383062  0.00031  0.95  0.001  0.394042  0.000118  0.934081  0.0  0.27652  0.37496  0.000503  0.961613  0.001
H  H8  1  0.97729651  0.11608851  0.68867522  1  0.411385  -0.00012  0.870297  0.0  0.38303  0.000311  0.950032  0.001  0.394011  0.000119  0.934114  0.0  0.276503  0.37493  0.000503  0.961606  0.001
H  H9  1  0.02270718  0.61608854  0.81132537  1  0.411412  -0.00012  0.870289  0.0  0.383057  0.00031  0.95  0.001  0.394037  0.000118  0.934082  0.0  0.276519  0.374954  0.000503  0.961602  0.001
H  H10  1  0.63111034  0.88555221  0.13621103  1  0.121644  -0.001209  0.970568  -0.001  0.120823  -0.000205  1.044661  0.0  0.125134  -0.000305  1.039945  0.0  0.121777  0.117566  -7.6e-05  1.0483  0.0
H  H11  1  0.36888828  0.38555197  0.36378430  1  0.121604  -0.001206  0.970475  -0.001  0.120782  -0.000204  1.044596  0.0  0.125089  -0.000305  1.039884  0.0  0.121792  0.117526  -7.6e-05  1.048234  0.0
H  H12  1  0.36888948  0.11445310  0.86378535  1  0.121601  -0.001207  0.970496  -0.001  0.120871  -0.000205  1.044496  0.0  0.125182  -0.000305  1.039779  0.0  0.121814  0.117615  -7.6e-05  1.048127  0.0
H  H13  1  0.63110611  0.61444712  0.63621548  1  0.121639  -0.00121  0.970617  -0.001  0.120811  -0.000204  1.044713  0.0  0.125114  -0.000305  1.040007  0.0  0.121782  0.117558  -7.6e-05  1.04834  0.0
H  H14  1  0.50650402  0.67532890  0.22670257  1  0.11492  0.000225  0.969529  0.0  0.131018  0.000373  1.035678  0.0  0.131697  0.000263  1.036601  0.0  0.101176  0.130431  0.000508  1.035142  0.0
H  H15  1  0.49349914  0.17532930  0.27329185  1  0.114966  0.000225  0.969527  0.0  0.131072  0.000372  1.035656  0.0  0.131754  0.000264  1.036582  0.0  0.1012  0.130483  0.000508  1.035125  0.0
H  H16  1  0.49350119  0.32467391  0.77329405  1  0.114928  0.000226  0.969538  0.0  0.13103  0.000373  1.03569  0.0  0.13171  0.000264  1.036616  0.0  0.101188  0.13044  0.000508  1.035155  0.0
H  H17  1  0.50649931  0.82467104  0.72670660  1  0.114916  0.000225  0.969503  0.0  0.131029  0.000373  1.035654  0.0  0.13171  0.000264  1.036582  0.0  0.101184  0.130439  0.000508  1.035122  0.0
H  H18  1  0.34309851  0.58260444  0.04861100  1  0.134036  0.000573  0.931661  0.0  0.15375  0.000989  0.989322  0.001  0.157046  0.00062  0.986933  0.0  0.108312  0.150383  0.001404  0.991989  0.001
H  H19  1  0.65690425  0.08260770  0.45138588  1  0.134052  0.000576  0.931646  0.0  0.153767  0.000989  0.989309  0.001  0.15706  0.00062  0.986923  0.0  0.108315  0.150401  0.001404  0.991972  0.001
H  H20  1  0.65690668  0.41739590  0.95138805  1  0.13404  0.000575  0.931649  0.0  0.153779  0.000989  0.989301  0.001  0.157062  0.00062  0.986927  0.0  0.108316  0.150411  0.001404  0.991966  0.001
H  H21  1  0.34309420  0.91739263  0.54861257  1  0.134036  0.000571  0.931609  0.0  0.153766  0.000989  0.989279  0.001  0.157061  0.000619  0.986893  0.0  0.108325  0.150398  0.001404  0.991945  0.001
H  H22  1  0.26760360  0.68752864  0.20730459  1  0.146083  -0.000164  0.950794  0.0  0.159556  4.9e-05  1.01443  0.0  0.163349  -0.000109  1.012136  0.0  0.1143  0.156152  0.000245  1.016769  0.001
H  H23  1  0.73240092  0.18753493  0.29269383  1  0.146088  -0.000161  0.950778  0.0  0.159553  4.9e-05  1.014441  0.0  0.163345  -0.000109  1.012143  0.0  0.114278  0.156148  0.000245  1.01678  0.001
H  H24  1  0.73240293  0.31247169  0.79269482  1  0.146096  -0.000162  0.950743  0.0  0.159566  4.9e-05  1.014398  0.0  0.163361  -0.000109  1.012099  0.0  0.114313  0.15616  0.000246  1.016735  0.001
H  H25  1  0.26759752  0.81246664  0.70730583  1  0.146084  -0.000166  0.950783  0.0  0.159558  4.9e-05  1.014449  0.0  0.163352  -0.000109  1.01215  0.0  0.114293  0.156153  0.000245  1.016787  0.001
C  C26  1  0.50497879  0.92885789  0.05111205  1  -0.012896  0.016781  3.598886  0.02  -0.059392  0.016395  3.871914  0.018  -0.047694  0.012788  3.869424  0.015  0.047975  -0.068887  0.020657  3.877308  0.022
C  C27  1  0.49501863  0.42885306  0.44888533  1  -0.012772  0.016739  3.598618  0.02  -0.05933  0.016394  3.871669  0.018  -0.04763  0.012788  3.869174  0.015  0.047982  -0.068827  0.020657  3.877063  0.022
C  C28  1  0.49502233  0.07114617  0.94888955  1  -0.012836  0.016747  3.598741  0.02  -0.059378  0.016394  3.871721  0.018  -0.047679  0.012789  3.869233  0.015  0.048008  -0.068874  0.020656  3.877112  0.022
C  C29  1  0.50497844  0.57114479  0.55111639  1  -0.01294  0.016797  3.598802  0.02  -0.059341  0.016396  3.871684  0.018  -0.047633  0.012791  3.869183  0.015  0.048004  -0.06884  0.020659  3.877079  0.022
C  C30  1  0.37109570  0.68579915  0.13952259  1  -0.250423  0.001339  3.565744  0.002  -0.345725  0.001779  3.808149  0.002  -0.346323  0.001148  3.81338  0.001  -0.13991  -0.344743  0.002628  3.806253  0.002
C  C31  1  0.62890613  0.18580244  0.36047390  1  -0.250526  0.001337  3.56564  0.002  -0.345852  0.001779  3.808069  0.002  -0.34644  0.001148  3.813283  0.001  -0.139963  -0.344869  0.002628  3.806173  0.002
C  C32  1  0.62890815  0.31420118  0.86047489  1  -0.250383  0.001336  3.565683  0.002  -0.345751  0.001778  3.808164  0.002  -0.346325  0.001148  3.813378  0.001  -0.139912  -0.344765  0.002628  3.806262  0.002
C  C33  1  0.37109096  0.81419914  0.63952540  1  -0.250371  0.001341  3.565545  0.002  -0.345755  0.001778  3.808056  0.002  -0.346341  0.001148  3.81326  0.001  -0.139928  -0.344769  0.002627  3.806157  0.002
N  N34  1  0.35971177  0.84043161  0.04460185  1  0.335669  -0.003467  3.601413  -0.003  0.387891  0.006293  3.875777  0.01  0.393988  0.001405  3.898236  0.003  -0.118136  0.380839  0.011494  3.860401  0.017
N  N35  1  0.64028661  0.34043605  0.45539835  1  0.335698  -0.003393  3.60144  -0.003  0.38795  0.006292  3.875795  0.01  0.394046  0.001403  3.898254  0.003  -0.118131  0.3809  0.011492  3.860417  0.017
N  N36  1  0.64029072  0.15956996  0.95539648  1  0.335657  -0.003409  3.601498  -0.003  0.387868  0.006294  3.875891  0.01  0.393964  0.001404  3.89835  0.003  -0.118232  0.380815  0.011495  3.860516  0.017
N  N37  1  0.35970776  0.65956553  0.54460265  1  0.335616  -0.003489  3.601512  -0.003  0.387835  0.006291  3.875871  0.01  0.393929  0.001399  3.898329  0.003  -0.118196  0.380783  0.011492  3.860495  0.017
Cl  Cl38  1  0.16513009  0.26569207  0.05250554  1  -0.600651  0.036427  0.887039  0.061  -0.563683  0.028211  1.131688  0.042  -0.589889  0.020236  1.109701  0.031  -0.275406  -0.540468  0.036668  1.147625  0.052
Cl  Cl39  1  0.83486928  0.76569390  0.44750111  1  -0.600651  0.036428  0.887037  0.061  -0.563694  0.028211  1.131709  0.042  -0.589897  0.020237  1.109719  0.031  -0.275405  -0.540482  0.036668  1.147642  0.052
Cl  Cl40  1  0.83487100  0.73430453  0.94749970  1  -0.600658  0.036427  0.88701  0.061  -0.563698  0.028211  1.131685  0.042  -0.589904  0.020236  1.109697  0.031  -0.275412  -0.540482  0.036668  1.147623  0.052
Cl  Cl41  1  0.16512642  0.23430395  0.55250268  1  -0.600639  0.036426  0.887022  0.061  -0.563693  0.02821  1.131696  0.042  -0.589898  0.020237  1.10971  0.031  -0.275406  -0.540481  0.036668  1.147629  0.052
O  O42  1  0.09927939  0.95728595  0.26387890  1  -0.807429  0.022819  2.011532  0.044  -0.773706  0.020675  2.227101  0.034  -0.799811  0.016815  2.19317  0.029  -0.57011  -0.75171  0.024185  2.251315  0.039
O  O43  1  0.90071543  0.45728430  0.23612017  1  -0.807508  0.022819  2.01145  0.044  -0.773792  0.020675  2.226945  0.034  -0.799891  0.016815  2.193015  0.029  -0.570174  -0.751804  0.024185  2.251211  0.039
O  O44  1  0.90072039  0.04271314  0.73612113  1  -0.807435  0.022819  2.011464  0.044  -0.773713  0.020675  2.226985  0.034  -0.799813  0.016814  2.193065  0.029  -0.570147  -0.751722  0.024185  2.251217  0.039
O  O45  1  0.09928434  0.54271479  0.76388106  1  -0.807455  0.022818  2.011453  0.044  -0.773741  0.020675  2.226969  0.034  -0.79984  0.016815  2.193044  0.029  -0.570148  -0.75175  0.024185  2.251222  0.039
O  O46  1  0.20163684  0.87793090  0.94248060  1  -0.509282  0.032161  1.98471  0.056  -0.480782  0.022583  2.254796  0.035  -0.516897  0.014804  2.25634  0.024  -0.213251  -0.450995  0.032814  2.252458  0.05
O  O47  1  0.79836118  0.37793408  0.55751930  1  -0.509317  0.032185  1.984847  0.056  -0.480806  0.022586  2.254891  0.035  -0.516921  0.014808  2.256434  0.024  -0.213229  -0.451018  0.032817  2.252548  0.05
O  O48  1  0.79836298  0.12206695  0.05751457  1  -0.509373  0.032177  1.984852  0.056  -0.480845  0.022584  2.254939  0.035  -0.516959  0.014803  2.256478  0.024  -0.213247  -0.451059  0.032815  2.252601  0.05
O  O49  1  0.20163589  0.62206626  0.44248242  1  -0.509251  0.032151  1.984818  0.056  -0.480766  0.022581  2.254928  0.035  -0.516879  0.014801  2.256467  0.024  -0.213217  -0.450983  0.032811  2.25259  0.05
