# generated using pymatgen
data_CsH11C12N2O7
_symmetry_space_group_name_H-M   'P 1'
_cell_length_a   4.94334892
_cell_length_b   11.42732276
_cell_length_c   13.91209568
_cell_angle_alpha   91.05831337
_cell_angle_beta   103.07024001
_cell_angle_gamma   85.48820583
_symmetry_Int_Tables_number   1
_chemical_formula_structural   CsH11C12N2O7
_chemical_formula_sum   'Cs2 H22 C24 N4 O14'
_cell_volume   763.15188959
_cell_formula_units_Z   2
loop_
 _symmetry_equiv_pos_site_id
 _symmetry_equiv_pos_as_xyz
  1  'x, y, z'
loop_
 _atom_site_type_symbol
 _atom_site_label
 _atom_site_symmetry_multiplicity
 _atom_site_fract_x
 _atom_site_fract_y
 _atom_site_fract_z
 _atom_site_occupancy
 _atom_site_hle17_bader_spin_density
 _atom_site_hle17_ddec_charge
 _atom_site_hle17_ddec_spin_density
 _atom_site_hle17_ddec_sum_bond_order
 _atom_site_hle17_magmom
 _atom_site_hse06_10hf_bader_spin_density
 _atom_site_hse06_10hf_ddec_charge
 _atom_site_hse06_10hf_ddec_spin_density
 _atom_site_hse06_10hf_ddec_sum_bond_order
 _atom_site_hse06_10hf_magmom
 _atom_site_hse06_bader_spin_density
 _atom_site_hse06_ddec_charge
 _atom_site_hse06_ddec_spin_density
 _atom_site_hse06_ddec_sum_bond_order
 _atom_site_hse06_magmom
 _atom_site_pbe_bader_spin_density
 _atom_site_pbe_cm5_charge
 _atom_site_pbe_ddec_charge
 _atom_site_pbe_ddec_spin_density
 _atom_site_pbe_ddec_sum_bond_order
 _atom_site_pbe_magmom
Cs  Cs0  1  0.78336338  0.95590695  0.86328083  1  0  0.927946  0  0.567285  0  0  0.868771  0  0.805114  0  0  0.887033  0  0.776068  0  0  0.849795  0.854982  0  0.826123  0
Cs  Cs1  1  0.21663571  0.04409137  0.13672146  1  0  0.927925  0  0.567273  0  0  0.868735  0  0.805128  0  0  0.887  0  0.776087  0  0  0.849782  0.854946  0  0.826139  0
H  H2  1  0.32209667  0.59024046  0.28217735  1  0  0.114944  0  0.963583  0  0  0.125231  0  1.024268  0  0  0.129029  0  1.023263  0  0  0.105348  0.122483  0  1.02526  0
H  H3  1  0.67791884  0.40976292  0.71782566  1  0  0.114932  0  0.963613  0  0  0.125228  0  1.024293  0  0  0.129024  0  1.023286  0  0  0.105351  0.122479  0  1.025287  0
H  H4  1  0.44946122  0.76594940  0.20661394  1  0  0.102229  0  0.958157  0  0  0.108013  0  1.026518  0  0  0.111072  0  1.023342  0  0  0.107891  0.105849  0  1.028692  0
H  H5  1  0.55056464  0.23405416  0.79339218  1  0  0.102219  0  0.958151  0  0  0.107988  0  1.026517  0  0  0.111056  0  1.023332  0  0  0.107875  0.105825  0  1.02869  0
H  H6  1  0.96920213  0.54654861  0.05491407  1  0  0.104316  0  0.970908  0  0  0.113164  0  1.032253  0  0  0.115888  0  1.029639  0  0  0.108913  0.111119  0  1.034189  0
H  H7  1  0.03080115  0.45345032  0.94508503  1  0  0.104232  0  0.970934  0  0  0.113093  0  1.032263  0  0  0.115816  0  1.029652  0  0  0.108918  0.111048  0  1.034198  0
H  H8  1  0.84120509  0.36845427  0.12925612  1  0  0.126238  0  0.936038  0  0  0.136881  0  0.992305  0  0  0.140877  0  0.990726  0  0  0.113542  0.134117  0  0.993518  0
H  H9  1  0.15879190  0.63154553  0.87074330  1  0  0.126269  0  0.935989  0  0  0.136959  0  0.992194  0  0  0.140961  0  0.990605  0  0  0.113565  0.134171  0  0.993436  0
H  H10  1  0.68397804  0.60451348  0.68565529  1  0  0.376523  0  0.930133  0  0  0.342728  0  1.01372  0  0  0.35619  0  1.000703  0  0  0.291081  0.333335  0  1.02258  0
H  H11  1  0.31601887  0.39548805  0.31434439  1  0  0.376526  0  0.930077  0  0  0.342725  0  1.013678  0  0  0.356187  0  1.000663  0  0  0.291083  0.333332  0  1.022537  0
H  H12  1  0.19455150  0.55377085  0.53549937  1  0  0.122685  0  0.940731  0  0  0.133265  0  0.997427  0  0  0.13731  0  0.996072  0  0  0.110422  0.130488  0  0.998363  0
H  H13  1  0.80543326  0.44622450  0.46449615  1  0  0.12269  0  0.940709  0  0  0.133267  0  0.997404  0  0  0.137313  0  0.996048  0  0  0.110405  0.130491  0  0.998337  0
H  H14  1  0.24668603  0.69456049  0.40718279  1  0  0.110312  0  0.955813  0  0  0.118157  0  1.017438  0  0  0.121327  0  1.014563  0  0  0.11144  0.11577  0  1.019657  0
H  H15  1  0.75330281  0.30543649  0.59281332  1  0  0.110346  0  0.955799  0  0  0.118218  0  1.017393  0  0  0.121388  0  1.014519  0  0  0.111454  0.115854  0  1.019585  0
H  H16  1  0.60847188  0.93092354  0.48461920  1  0  0.104334  0  0.969557  0  0  0.110348  0  1.037103  0  0  0.113225  0  1.034042  0  0  0.108838  0.10822  0  1.039382  0
H  H17  1  0.39152510  0.06907626  0.51538023  1  0  0.104329  0  0.969561  0  0  0.110342  0  1.037107  0  0  0.113219  0  1.034045  0  0  0.108848  0.108217  0  1.039381  0
H  H18  1  0.54774590  0.79000186  0.61097318  1  0  0.122996  0  0.946926  0  0  0.132834  0  1.003984  0  0  0.13656  0  1.003274  0  0  0.113492  0.130167  0  1.004711  0
H  H19  1  0.45225108  0.20999794  0.38902624  1  0  0.122982  0  0.946912  0  0  0.132812  0  1.003993  0  0  0.136535  0  1.003281  0  0  0.113495  0.130145  0  1.004718  0
H  H20  1  0.67092717  0.24481209  0.23132205  1  0  0.416852  0  0.894262  0  0  0.384708  0  0.960545  0  0  0.396631  0  0.943296  0  0  0.278291  0.376203  0  0.972827  0
H  H21  1  0.32906766  0.75518949  0.76867746  1  0  0.416866  0  0.894237  0  0  0.384722  0  0.960521  0  0  0.396643  0  0.943277  0  0  0.278321  0.376219  0  0.972801  0
H  H22  1  0.79929182  0.11857729  0.27420163  1  0  0.392368  0  0.923049  0  0  0.362761  0  0.987589  0  0  0.372715  0  0.972763  0  0  0.276709  0.355648  0  0.998192  0
H  H23  1  0.20070290  0.88142560  0.72580025  1  0  0.392355  0  0.923071  0  0  0.36275  0  0.987608  0  0  0.372705  0  0.972782  0  0  0.276717  0.355639  0  0.998208  0
C  C24  1  0.57185008  0.46584740  0.21177916  1  0  0.414937  0  3.813482  0  0  0.399705  0  4.074201  0  0  0.422944  0  4.082835  0  0  0.110324  0.384095  0  4.067831  0
C  C25  1  0.42815099  0.53415417  0.78822015  1  0  0.415046  0  3.813416  0  0  0.399823  0  4.074138  0  0  0.423062  0  4.082773  0  0  0.110364  0.384215  0  4.067764  0
C  C26  1  0.46425204  0.58123524  0.23259251  1  0  -0.206706  0  3.701395  0  0  -0.225226  0  3.956452  0  0  -0.23832  0  3.977517  0  0  -0.105928  -0.216698  0  3.942245  0
C  C27  1  0.53575944  0.41876579  0.76740907  1  0  -0.206722  0  3.701491  0  0  -0.225267  0  3.956554  0  0  -0.238356  0  3.977612  0  0  -0.105911  -0.21674  0  3.942351  0
C  C28  1  0.53358583  0.67903595  0.19007800  1  0  -0.058164  0  3.756115  0  0  -0.0863  0  4.018969  0  0  -0.079797  0  4.038075  0  0  -0.079855  -0.09007  0  4.00568  0
C  C29  1  0.46643188  0.32096479  0.80992480  1  0  -0.058116  0  3.756141  0  0  -0.086217  0  4.01898  0  0  -0.079723  0  4.038082  0  0  -0.079811  -0.089989  0  4.00569  0
C  C30  1  0.71438624  0.66611291  0.12469794  1  0  0.038225  0  3.727914  0  0  0.028168  0  3.982541  0  0  0.01744  0  4.008001  0  0  0.068675  0.034784  0  3.96549  0
C  C31  1  0.28562523  0.33388798  0.87530434  1  0  0.038222  0  3.727944  0  0  0.028146  0  3.98258  0  0  0.017417  0  4.00804  0  0  0.068687  0.034764  0  3.965528  0
C  C32  1  0.82519681  0.55338363  0.10359826  1  0  -0.064424  0  3.761401  0  0  -0.089215  0  4.020513  0  0  -0.082773  0  4.03962  0  0  -0.077646  -0.092813  0  4.007214  0
C  C33  1  0.17480643  0.44661617  0.89640097  1  0  -0.064254  0  3.761378  0  0  -0.08904  0  4.020509  0  0  -0.082596  0  4.039614  0  0  -0.077623  -0.092636  0  4.007199  0
C  C34  1  0.75478423  0.45541671  0.14535608  1  0  -0.18609  0  3.681986  0  0  -0.208728  0  3.939689  0  0  -0.220404  0  3.958486  0  0  -0.097691  -0.201211  0  3.926882  0
C  C35  1  0.24521479  0.54458391  0.85464365  1  0  -0.186227  0  3.681925  0  0  -0.208914  0  3.939629  0  0  -0.220596  0  3.958426  0  0  -0.097753  -0.201378  0  3.92683  0
C  C36  1  0.86406456  0.66058045  0.57997563  1  0  0.393  0  3.788301  0  0  0.380107  0  4.049618  0  0  0.400544  0  4.059668  0  0  0.111012  0.366201  0  4.042629  0
C  C37  1  0.13592418  0.33941797  0.42002214  1  0  0.393032  0  3.788479  0  0  0.380178  0  4.049723  0  0  0.400609  0  4.059782  0  0  0.111059  0.366271  0  4.042734  0
C  C38  1  0.06524231  0.63591376  0.52257301  1  0  -0.183326  0  3.699005  0  0  -0.206342  0  3.958202  0  0  -0.216302  0  3.975868  0  0  -0.097507  -0.199986  0  3.946202  0
C  C39  1  0.93474653  0.36408308  0.47742381  1  0  -0.18329  0  3.699042  0  0  -0.206315  0  3.958239  0  0  -0.216273  0  3.975908  0  0  -0.097487  -0.19996  0  3.946246  0
C  C40  1  0.09487495  0.71383484  0.45194765  1  0  -0.059906  0  3.753991  0  0  -0.084198  0  4.013264  0  0  -0.077927  0  4.031058  0  0  -0.073956  -0.087727  0  4.00095  0
C  C41  1  0.90510976  0.28616123  0.54804869  1  0  -0.059991  0  3.753975  0  0  -0.084339  0  4.013243  0  0  -0.078068  0  4.031034  0  0  -0.073976  -0.087885  0  4.000921  0
C  C42  1  0.92867371  0.82050528  0.43897305  1  0  0.038628  0  3.747719  0  0  0.018754  0  4.005856  0  0  0.008253  0  4.031928  0  0  0.064734  0.025188  0  3.988419  0
C  C43  1  0.07131504  0.17949314  0.56102472  1  0  0.038617  0  3.747771  0  0  0.018786  0  4.005828  0  0  0.008286  0  4.0319  0  0  0.064686  0.025217  0  3.988397  0
C  C44  1  0.73409188  0.84804149  0.49715211  1  0  -0.053219  0  3.762354  0  0  -0.08764  0  4.035719  0  0  -0.081536  0  4.054425  0  0  -0.078793  -0.091437  0  4.02298  0
C  C45  1  0.26590099  0.15195770  0.50284614  1  0  -0.05322  0  3.762393  0  0  -0.08765  0  4.035739  0  0  -0.081547  0  4.054444  0  0  -0.078782  -0.091447  0  4.022999  0
C  C46  1  0.70192993  0.76974919  0.56709111  1  0  -0.210352  0  3.723876  0  0  -0.226686  0  3.977956  0  0  -0.23855  0  3.998333  0  0  -0.100276  -0.218812  0  3.964234  0
C  C47  1  0.29806086  0.23025004  0.43290696  1  0  -0.210321  0  3.723964  0  0  -0.226671  0  3.978036  0  0  -0.238526  0  3.99841  0  0  -0.100299  -0.218797  0  3.964315  0
N  N48  1  0.78517963  0.76515464  0.07933860  1  0  0.496242  0  3.920327  0  0  0.534954  0  4.202624  0  0  0.556835  0  4.214233  0  0  0.00553  0.520423  0  4.19459  0
N  N49  1  0.21483600  0.23484600  0.92066474  1  0  0.49612  0  3.920328  0  0  0.534843  0  4.202629  0  0  0.556725  0  4.214236  0  0  0.005455  0.520312  0  4.194595  0
N  N50  1  0.96017147  0.90353232  0.36826386  1  0  0.477564  0  3.944779  0  0  0.534667  0  4.199601  0  0  0.557185  0  4.209366  0  0  0.036622  0.519772  0  4.192897  0
N  N51  1  0.03982135  0.09646759  0.63173522  1  0  0.477495  0  3.944639  0  0  0.534635  0  4.19937  0  0  0.557151  0  4.209136  0  0  0.036639  0.519741  0  4.192664  0
O  O52  1  0.50629616  0.37303396  0.25209474  1  0  -0.583875  0  2.041502  0  0  -0.520193  0  2.25333  0  0  -0.54831  0  2.247925  0  0  -0.306031  -0.500297  0  2.256389  0
O  O53  1  0.49370071  0.62696844  0.74790506  1  0  -0.583926  0  2.041485  0  0  -0.520249  0  2.25332  0  0  -0.548363  0  2.247915  0  0  -0.306071  -0.500357  0  2.256384  0
O  O54  1  0.68263286  0.86686074  0.09650616  1  0  -0.542258  0  1.796016  0  0  -0.523533  0  2.026646  0  0  -0.539114  0  2.022563  0  0  -0.29001  -0.51259  0  2.029357  0
O  O55  1  0.31738277  0.13313977  0.90349789  1  0  -0.542296  0  1.796019  0  0  -0.52357  0  2.026635  0  0  -0.539134  0  2.02251  0  0  -0.29002  -0.512629  0  2.029348  0
O  O56  1  0.95060491  0.75221288  0.02222400  1  0  -0.456568  0  1.737177  0  0  -0.431624  0  1.945196  0  0  -0.444199  0  1.94153  0  0  -0.217863  -0.423049  0  1.947603  0
O  O57  1  0.04940860  0.24778883  0.97777859  1  0  -0.456492  0  1.737163  0  0  -0.431562  0  1.945177  0  0  -0.444147  0  1.941525  0  0  -0.217825  -0.422987  0  1.947586  0
O  O58  1  0.83296366  0.57956011  0.64224343  1  0  -0.50594  0  2.141566  0  0  -0.45689  0  2.365595  0  0  -0.481595  0  2.359106  0  0  -0.323211  -0.439426  0  2.369394  0
O  O59  1  0.16703124  0.42043974  0.35775582  1  0  -0.505984  0  2.141514  0  0  -0.456941  0  2.365525  0  0  -0.481644  0  2.359041  0  0  -0.323227  -0.439477  0  2.369323  0
O  O60  1  0.13415256  0.88076621  0.31612654  1  0  -0.416067  0  1.754603  0  0  -0.405483  0  1.95887  0  0  -0.41737  0  1.955046  0  0  -0.190542  -0.397323  0  1.961478  0
O  O61  1  0.86584430  0.11923604  0.68387397  1  0  -0.415994  0  1.754629  0  0  -0.405424  0  1.958863  0  0  -0.417314  0  1.955042  0  0  -0.190504  -0.397265  0  1.96147  0
O  O62  1  0.81131903  0.99947829  0.36122488  1  0  -0.43174  0  1.806486  0  0  -0.408224  0  2.008534  0  0  -0.422176  0  2.003834  0  0  -0.15862  -0.398685  0  2.011761  0
O  O63  1  0.18867378  0.00052147  0.63877491  1  0  -0.431729  0  1.806346  0  0  -0.408248  0  2.008392  0  0  -0.4222  0  2.003694  0  0  -0.158647  -0.39871  0  2.01162  0
O  O64  1  0.75179723  0.16628691  0.21376359  1  0  -0.92167  0  1.811732  0  0  -0.872882  0  1.978279  0  0  -0.892644  0  1.947059  0  0  -0.774728  -0.858673  0  2.00041  0
O  O65  1  0.24820175  0.83371429  0.78623768  1  0  -0.921675  0  1.81173  0  0  -0.87289  0  1.978276  0  0  -0.892652  0  1.947059  0  0  -0.774771  -0.858679  0  2.000407  0
