# generated using pymatgen
data_ZnH6C9N3ClO2
_symmetry_space_group_name_H-M   'P 1'
_cell_length_a   7.29763038
_cell_length_b   9.01718217
_cell_length_c   17.61605569
_cell_angle_alpha   90.00002439
_cell_angle_beta   89.99965995
_cell_angle_gamma   90.41810116
_symmetry_Int_Tables_number   1
_chemical_formula_structural   ZnH6C9N3ClO2
_chemical_formula_sum   'Zn4 H24 C36 N12 Cl4 O8'
_cell_volume   1159.17716617
_cell_formula_units_Z   4
loop_
 _symmetry_equiv_pos_site_id
 _symmetry_equiv_pos_as_xyz
  1  'x, y, z'
loop_
 _atom_site_type_symbol
 _atom_site_label
 _atom_site_symmetry_multiplicity
 _atom_site_fract_x
 _atom_site_fract_y
 _atom_site_fract_z
 _atom_site_occupancy
 _atom_site_hle17_bader_spin_density
 _atom_site_hle17_ddec_charge
 _atom_site_hle17_ddec_spin_density
 _atom_site_hle17_ddec_sum_bond_order
 _atom_site_hle17_magmom
 _atom_site_hse06_10hf_bader_spin_density
 _atom_site_hse06_10hf_ddec_charge
 _atom_site_hse06_10hf_ddec_spin_density
 _atom_site_hse06_10hf_ddec_sum_bond_order
 _atom_site_hse06_10hf_magmom
 _atom_site_hse06_bader_spin_density
 _atom_site_hse06_ddec_charge
 _atom_site_hse06_ddec_spin_density
 _atom_site_hse06_ddec_sum_bond_order
 _atom_site_hse06_magmom
 _atom_site_pbe_bader_spin_density
 _atom_site_pbe_cm5_charge
 _atom_site_pbe_ddec_charge
 _atom_site_pbe_ddec_spin_density
 _atom_site_pbe_ddec_sum_bond_order
 _atom_site_pbe_magmom
Zn  Zn0  1  0.12345917  0.82444838  0.04612831  1  0  0.908617  0  2.016126  0  0  0.732142  0  2.493792  0  0  0.776907  0  2.443453  0  0  0.621033  0.701097  0  2.528202  0
Zn  Zn1  1  0.37654430  0.17555002  0.54612861  1  0  0.908571  0  2.01625  0  0  0.73213  0  2.49389  0  0  0.776893  0  2.443549  0  0  0.621038  0.701085  0  2.528301  0
Zn  Zn2  1  0.87654479  0.17554681  0.95387362  1  0  0.908598  0  2.016209  0  0  0.732099  0  2.493899  0  0  0.776864  0  2.443556  0  0  0.621037  0.701055  0  2.528313  0
Zn  Zn3  1  0.62345425  0.82444746  0.45387162  1  0  0.908636  0  2.016149  0  0  0.732164  0  2.493816  0  0  0.77693  0  2.443475  0  0  0.621042  0.701116  0  2.528235  0
H  H4  1  0.53308243  0.68915556  0.19711277  1  0  0.109104  0  0.923345  0  0  0.119805  0  0.978949  0  0  0.123178  0  0.976625  0  0  0.111321  0.117356  0  0.980666  0
H  H5  1  0.96690410  0.31085095  0.69711570  1  0  0.109198  0  0.923319  0  0  0.119895  0  0.978909  0  0  0.123268  0  0.976585  0  0  0.111364  0.117451  0  0.980629  0
H  H6  1  0.46690138  0.31085321  0.80288519  1  0  0.109142  0  0.923339  0  0  0.119863  0  0.978917  0  0  0.123236  0  0.976593  0  0  0.111344  0.117418  0  0.980634  0
H  H7  1  0.03308910  0.68915104  0.30288509  1  0  0.10911  0  0.923361  0  0  0.119791  0  0.978984  0  0  0.123162  0  0.976662  0  0  0.111322  0.117342  0  0.9807  0
H  H8  1  0.42723578  0.51159832  0.09738738  1  0  0.122179  0  0.946651  0  0  0.129224  0  1.011103  0  0  0.13247  0  1.009715  0  0  0.105442  0.126861  0  1.012269  0
H  H9  1  0.07276300  0.48840461  0.59739079  1  0  0.122124  0  0.946785  0  0  0.129208  0  1.011204  0  0  0.132454  0  1.009818  0  0  0.105423  0.126846  0  1.012363  0
H  H10  1  0.57276702  0.48840354  0.90261171  1  0  0.122091  0  0.946719  0  0  0.129191  0  1.011123  0  0  0.132436  0  1.009736  0  0  0.105432  0.126828  0  1.012285  0
H  H11  1  0.92723428  0.51159622  0.40261171  1  0  0.122142  0  0.946675  0  0  0.129211  0  1.011098  0  0  0.132458  0  1.009709  0  0  0.105438  0.126849  0  1.012255  0
H  H12  1  0.23808636  0.21240269  0.27326861  1  0  0.105512  0  0.940838  0  0  0.117265  0  0.997847  0  0  0.120348  0  0.996717  0  0  0.107232  0.115036  0  0.99878  0
H  H13  1  0.26191803  0.78759470  0.77327161  1  0  0.105548  0  0.940837  0  0  0.117332  0  0.997804  0  0  0.120428  0  0.996661  0  0  0.107254  0.115083  0  0.998757  0
H  H14  1  0.76190560  0.78760375  0.72673275  1  0  0.105525  0  0.940831  0  0  0.117296  0  0.997821  0  0  0.120386  0  0.996677  0  0  0.107233  0.115045  0  0.998775  0
H  H15  1  0.73809549  0.21239924  0.22673089  1  0  0.105529  0  0.940822  0  0  0.117287  0  0.997829  0  0  0.120377  0  0.996685  0  0  0.107248  0.115036  0  0.998785  0
H  H16  1  0.34354191  0.39058427  0.37141760  1  0  0.103674  0  0.967512  0  0  0.109016  0  1.037948  0  0  0.112137  0  1.035719  0  0  0.099508  0.106668  0  1.039656  0
H  H17  1  0.15646511  0.60940870  0.87141912  1  0  0.103664  0  0.967479  0  0  0.109006  0  1.037922  0  0  0.112153  0  1.035622  0  0  0.09952  0.106636  0  1.039656  0
H  H18  1  0.65645287  0.60942435  0.62858206  1  0  0.103648  0  0.967466  0  0  0.108972  0  1.037945  0  0  0.112099  0  1.035689  0  0  0.099498  0.106608  0  1.039665  0
H  H19  1  0.84354695  0.39058194  0.12858111  1  0  0.103644  0  0.967535  0  0  0.109018  0  1.037957  0  0  0.112145  0  1.035704  0  0  0.099512  0.106651  0  1.039689  0
H  H20  1  0.31702334  0.03374623  0.17166289  1  0  0.128045  0  0.890107  0  0  0.142222  0  0.940874  0  0  0.145001  0  0.937283  0  0  0.162246  0.140043  0  0.94369  0
H  H21  1  0.18297979  0.96625335  0.67166385  1  0  0.128047  0  0.890095  0  0  0.142207  0  0.940887  0  0  0.144983  0  0.937299  0  0  0.162234  0.14003  0  0.943704  0
H  H22  1  0.68297665  0.96625345  0.82833847  1  0  0.12808  0  0.890076  0  0  0.142255  0  0.940855  0  0  0.145031  0  0.937267  0  0  0.162264  0.140076  0  0.943672  0
H  H23  1  0.81702564  0.03374514  0.32833580  1  0  0.127997  0  0.890146  0  0  0.142178  0  0.94091  0  0  0.144957  0  0.93732  0  0  0.162239  0.140002  0  0.943725  0
H  H24  1  0.13269223  0.40301197  0.04401370  1  0  0.14583  0  0.937562  0  0  0.15032  0  1.001128  0  0  0.154337  0  0.996394  0  0  0.153648  0.147223  0  1.004792  0
H  H25  1  0.36731124  0.59698531  0.54401639  1  0  0.145818  0  0.937619  0  0  0.150318  0  1.001157  0  0  0.154334  0  0.996426  0  0  0.153627  0.14722  0  1.004818  0
H  H26  1  0.86731585  0.59698316  0.95598425  1  0  0.145812  0  0.937663  0  0  0.150289  0  1.001236  0  0  0.154306  0  0.996503  0  0  0.153631  0.147191  0  1.004898  0
H  H27  1  0.63269005  0.40301213  0.45598497  1  0  0.145782  0  0.937606  0  0  0.150294  0  1.00115  0  0  0.154302  0  0.996429  0  0  0.153621  0.14721  0  1.004794  0
C  C28  1  0.51404987  0.65189196  0.35087933  1  0  0.62413  0  3.91763  0  0  0.577765  0  4.202951  0  0  0.612053  0  4.197548  0  0  0.19182  0.554585  0  4.205779  0
C  C29  1  0.98594930  0.34810447  0.85088279  1  0  0.624174  0  3.917437  0  0  0.577732  0  4.202859  0  0  0.612016  0  4.197464  0  0  0.191833  0.554554  0  4.20569  0
C  C30  1  0.48593792  0.34811232  0.64911862  1  0  0.624099  0  3.917518  0  0  0.577746  0  4.202826  0  0  0.612032  0  4.197432  0  0  0.191782  0.554573  0  4.205651  0
C  C31  1  0.01405617  0.65189513  0.14912027  1  0  0.624149  0  3.917712  0  0  0.577763  0  4.203061  0  0  0.612048  0  4.197664  0  0  0.191773  0.554584  0  4.205891  0
C  C32  1  0.44947929  0.54907548  0.29013652  1  0  -0.065646  0  3.750117  0  0  -0.041906  0  3.979927  0  0  -0.051733  0  4.004652  0  0  -0.01401  -0.035679  0  3.963324  0
C  C33  1  0.05051946  0.45092421  0.79013941  1  0  -0.065703  0  3.749988  0  0  -0.041946  0  3.9798  0  0  -0.051775  0  4.004529  0  0  -0.0141  -0.035717  0  3.963199  0
C  C34  1  0.55051004  0.45093432  0.70986200  1  0  -0.065629  0  3.749835  0  0  -0.04188  0  3.979637  0  0  -0.051708  0  4.004366  0  0  -0.014019  -0.03566  0  3.963042  0
C  C35  1  0.94948314  0.54907099  0.20986252  1  0  -0.06568  0  3.749984  0  0  -0.041941  0  3.979826  0  0  -0.051769  0  4.004554  0  0  -0.013989  -0.035712  0  3.963221  0
C  C36  1  0.46981613  0.58395732  0.21312777  1  0  -0.025986  0  3.691146  0  0  -0.049769  0  3.938923  0  0  -0.047862  0  3.958625  0  0  -0.067351  -0.050768  0  3.925427  0
C  C37  1  0.03017681  0.41604131  0.71313013  1  0  -0.026048  0  3.691234  0  0  -0.049814  0  3.939  0  0  -0.047909  0  3.958704  0  0  -0.067279  -0.050823  0  3.925521  0
C  C38  1  0.53017033  0.41604809  0.78686962  1  0  -0.026008  0  3.691096  0  0  -0.049806  0  3.938878  0  0  -0.047907  0  3.958598  0  0  -0.067299  -0.050817  0  3.925405  0
C  C39  1  0.96982174  0.58395617  0.28687066  1  0  -0.025858  0  3.691255  0  0  -0.049636  0  3.939019  0  0  -0.047732  0  3.958729  0  0  -0.067288  -0.050641  0  3.925533  0
C  C40  1  0.41100895  0.48482599  0.15737812  1  0  -0.130364  0  3.693581  0  0  -0.151399  0  3.94907  0  0  -0.156782  0  3.970074  0  0  -0.080617  -0.147893  0  3.934972  0
C  C41  1  0.08898749  0.51517256  0.65738206  1  0  -0.130285  0  3.693801  0  0  -0.151372  0  3.949307  0  0  -0.156755  0  3.970312  0  0  -0.080637  -0.147864  0  3.935203  0
C  C42  1  0.58898696  0.51517485  0.84262040  1  0  -0.130281  0  3.693613  0  0  -0.151356  0  3.949102  0  0  -0.156741  0  3.97011  0  0  -0.080615  -0.147847  0  3.935  0
C  C43  1  0.91101109  0.48482602  0.34261930  1  0  -0.130386  0  3.693705  0  0  -0.151427  0  3.949134  0  0  -0.156809  0  3.970135  0  0  -0.080648  -0.147919  0  3.935025  0
C  C44  1  0.33085404  0.35096863  0.18012223  1  0  0.181246  0  3.774088  0  0  0.170943  0  4.028218  0  0  0.177111  0  4.05139  0  0  0.096915  0.166998  0  4.012392  0
C  C45  1  0.16914763  0.64903208  0.68012430  1  0  0.181202  0  3.774009  0  0  0.170888  0  4.02817  0  0  0.177055  0  4.051346  0  0  0.096917  0.166957  0  4.012323  0
C  C46  1  0.66914601  0.64903327  0.81987799  1  0  0.181321  0  3.774051  0  0  0.170985  0  4.028233  0  0  0.177154  0  4.051409  0  0  0.096938  0.167039  0  4.0124  0
C  C47  1  0.83085503  0.35096534  0.31987706  1  0  0.181178  0  3.774049  0  0  0.170917  0  4.028102  0  0  0.177082  0  4.051277  0  0  0.096942  0.166973  0  4.012266  0
C  C48  1  0.30888819  0.31417773  0.25669388  1  0  -0.158445  0  3.761883  0  0  -0.181551  0  4.022505  0  0  -0.1873  0  4.044495  0  0  -0.092744  -0.177711  0  4.00741  0
C  C49  1  0.19111235  0.68582081  0.75669703  1  0  -0.15853  0  3.76175  0  0  -0.18165  0  4.022368  0  0  -0.187415  0  4.044359  0  0  -0.092787  -0.177794  0  4.007266  0
C  C50  1  0.69110641  0.68582535  0.74330521  1  0  -0.158514  0  3.76187  0  0  -0.181619  0  4.022518  0  0  -0.187373  0  4.044499  0  0  -0.092715  -0.177753  0  4.007409  0
C  C51  1  0.80889308  0.31417768  0.24330433  1  0  -0.158399  0  3.761792  0  0  -0.181523  0  4.022415  0  0  -0.187275  0  4.044395  0  0  -0.092758  -0.177659  0  4.007315  0
C  C52  1  0.36762103  0.41412321  0.31154889  1  0  -0.052142  0  3.740588  0  0  -0.077071  0  3.992542  0  0  -0.075782  0  4.013576  0  0  -0.08182  -0.077533  0  3.978128  0
C  C53  1  0.13238143  0.58587312  0.81155217  1  0  -0.052124  0  3.74055  0  0  -0.077085  0  3.992551  0  0  -0.075792  0  4.013594  0  0  -0.081842  -0.077529  0  3.97815  0
C  C54  1  0.63237234  0.58588432  0.68845190  1  0  -0.05209  0  3.740494  0  0  -0.077037  0  3.992501  0  0  -0.075742  0  4.013541  0  0  -0.081883  -0.077483  0  3.978097  0
C  C55  1  0.86762524  0.41412092  0.18845033  1  0  -0.052157  0  3.740668  0  0  -0.07713  0  3.992641  0  0  -0.075838  0  4.013679  0  0  -0.081883  -0.077582  0  3.978241  0
C  C56  1  0.25094376  0.10053298  0.12863178  1  0  0.197618  0  3.582413  0  0  0.128011  0  3.850334  0  0  0.143177  0  3.859253  0  0  0.181528  0.118089  0  3.844289  0
C  C57  1  0.24905585  0.89946663  0.62863313  1  0  0.197582  0  3.582386  0  0  0.127984  0  3.850315  0  0  0.143149  0  3.859234  0  0  0.181543  0.118053  0  3.844279  0
C  C58  1  0.74906027  0.89946443  0.87137072  1  0  0.197579  0  3.58239  0  0  0.127931  0  3.850332  0  0  0.143093  0  3.859255  0  0  0.181483  0.118004  0  3.844298  0
C  C59  1  0.75094547  0.10053192  0.37136766  1  0  0.197684  0  3.582459  0  0  0.12806  0  3.850377  0  0  0.143225  0  3.859294  0  0  0.181554  0.118136  0  3.844333  0
C  C60  1  0.16099380  0.28966546  0.06140688  1  0  0.208205  0  3.544969  0  0  0.141253  0  3.814037  0  0  0.156578  0  3.822621  0  0  0.184397  0.131207  0  3.808409  0
C  C61  1  0.33900532  0.71033189  0.56140909  1  0  0.208231  0  3.545073  0  0  0.141291  0  3.814106  0  0  0.156615  0  3.822695  0  0  0.184468  0.131244  0  3.808468  0
C  C62  1  0.83901160  0.71033192  0.93859278  1  0  0.208253  0  3.545084  0  0  0.141331  0  3.814076  0  0  0.156653  0  3.822667  0  0  0.18444  0.131282  0  3.808446  0
C  C63  1  0.66099594  0.28966444  0.43859113  1  0  0.208243  0  3.545007  0  0  0.141295  0  3.814061  0  0  0.156627  0  3.82265  0  0  0.184441  0.131235  0  3.808425  0
N  N64  1  0.15375105  0.04880723  0.07134041  1  0  -0.223824  0  3.202619  0  0  -0.161673  0  3.497412  0  0  -0.176133  0  3.510139  0  0  -0.226228  -0.152066  0  3.488877  0
N  N65  1  0.34624659  0.95119126  0.57133926  1  0  -0.223758  0  3.202621  0  0  -0.161607  0  3.497402  0  0  -0.176059  0  3.510121  0  0  -0.226214  -0.152001  0  3.488872  0
N  N66  1  0.84625299  0.95119017  0.92866038  1  0  -0.223788  0  3.202654  0  0  -0.161579  0  3.497399  0  0  -0.176032  0  3.510118  0  0  -0.226191  -0.151976  0  3.488868  0
N  N67  1  0.65375059  0.04880624  0.42865870  1  0  -0.223806  0  3.202608  0  0  -0.161616  0  3.497379  0  0  -0.176073  0  3.510106  0  0  -0.226183  -0.15201  0  3.488847  0
N  N68  1  0.09655652  0.16778909  0.02907110  1  0  -0.229195  0  3.169334  0  0  -0.169176  0  3.463004  0  0  -0.184572  0  3.475527  0  0  -0.228299  -0.159023  0  3.454706  0
N  N69  1  0.40344167  0.83220826  0.52907034  1  0  -0.2293  0  3.169332  0  0  -0.169272  0  3.462984  0  0  -0.184671  0  3.475505  0  0  -0.228347  -0.159114  0  3.454681  0
N  N70  1  0.90344881  0.83220608  0.97092855  1  0  -0.229316  0  3.169408  0  0  -0.169297  0  3.463024  0  0  -0.184695  0  3.475546  0  0  -0.228386  -0.159139  0  3.454723  0
N  N71  1  0.59655548  0.16778813  0.47092931  1  0  -0.22926  0  3.1693  0  0  -0.169291  0  3.46301  0  0  -0.184688  0  3.475528  0  0  -0.228349  -0.159131  0  3.454707  0
N  N72  1  0.25729150  0.25163630  0.12477338  1  0  -0.108955  0  3.573966  0  0  -0.019453  0  3.793467  0  0  -0.036473  0  3.816109  0  0  -0.207072  -0.008337  0  3.778012  0
N  N73  1  0.24270954  0.74836328  0.62477414  1  0  -0.108863  0  3.573999  0  0  -0.019369  0  3.793509  0  0  -0.036387  0  3.816151  0  0  -0.207085  -0.008256  0  3.77805  0
N  N74  1  0.74270979  0.74836114  0.87522742  1  0  -0.108967  0  3.57387  0  0  -0.019457  0  3.793368  0  0  -0.036477  0  3.816011  0  0  -0.207063  -0.008338  0  3.777905  0
N  N75  1  0.75729319  0.25163636  0.37522608  1  0  -0.108928  0  3.574093  0  0  -0.019452  0  3.793597  0  0  -0.036469  0  3.816235  0  0  -0.207125  -0.008335  0  3.77814  0
Cl  Cl76  1  0.37964958  0.75603944  0.98747945  1  0  -0.590947  0  0.860408  0  0  -0.538997  0  1.108187  0  0  -0.554822  0  1.085936  0  0  -0.360913  -0.527575  0  1.123369  0
Cl  Cl77  1  0.12035876  0.24396023  0.48747847  1  0  -0.590959  0  0.860462  0  0  -0.539017  0  1.108235  0  0  -0.554835  0  1.085984  0  0  -0.360934  -0.527597  0  1.123424  0
Cl  Cl78  1  0.62035044  0.24396134  0.01251793  1  0  -0.590948  0  0.860452  0  0  -0.538999  0  1.108246  0  0  -0.554819  0  1.085993  0  0  -0.360917  -0.527575  0  1.123429  0
Cl  Cl79  1  0.87964400  0.75604052  0.51252062  1  0  -0.590958  0  0.860447  0  0  -0.539009  0  1.108225  0  0  -0.55483  0  1.085972  0  0  -0.360919  -0.527586  0  1.123407  0
O  O80  1  0.50912003  0.60672802  0.41960868  1  0  -0.622117  0  1.999707  0  0  -0.557768  0  2.23788  0  0  -0.585852  0  2.229274  0  0  -0.317846  -0.538075  0  2.243071  0
O  O81  1  0.99088781  0.39326944  0.91961271  1  0  -0.622135  0  1.999557  0  0  -0.557716  0  2.237724  0  0  -0.585805  0  2.229125  0  0  -0.317863  -0.538017  0  2.242909  0
O  O82  1  0.49087755  0.39328279  0.58038701  1  0  -0.622212  0  1.999522  0  0  -0.557864  0  2.237687  0  0  -0.585953  0  2.229085  0  0  -0.31791  -0.538165  0  2.242871  0
O  O83  1  0.00912173  0.60672900  0.08038922  1  0  -0.622195  0  1.999647  0  0  -0.557816  0  2.237824  0  0  -0.585904  0  2.229222  0  0  -0.317855  -0.538118  0  2.243015  0
O  O84  1  0.57436951  0.78180726  0.33474001  1  0  -0.626511  0  1.927753  0  0  -0.569193  0  2.161645  0  0  -0.595985  0  2.150392  0  0  -0.3382  -0.550494  0  2.168737  0
O  O85  1  0.92562591  0.21819365  0.83474530  1  0  -0.62649  0  1.927878  0  0  -0.569144  0  2.161803  0  0  -0.595932  0  2.150547  0  0  -0.338141  -0.550445  0  2.168899  0
O  O86  1  0.42562670  0.21820357  0.66525397  1  0  -0.626383  0  1.928097  0  0  -0.569065  0  2.161992  0  0  -0.59585  0  2.150734  0  0  -0.338076  -0.55037  0  2.169086  0
O  O87  1  0.07437401  0.78180380  0.16525889  1  0  -0.626472  0  1.928075  0  0  -0.569145  0  2.161971  0  0  -0.595934  0  2.150718  0  0  -0.338131  -0.550446  0  2.169063  0
