# generated using pymatgen
data_Zn2H20C23N2O9
_symmetry_space_group_name_H-M   'P 1'
_cell_length_a   8.97506173
_cell_length_b   9.73626738
_cell_length_c   11.08015364
_cell_angle_alpha   89.70046496
_cell_angle_beta   91.22413198
_cell_angle_gamma   98.90039728
_symmetry_Int_Tables_number   1
_chemical_formula_structural   Zn2H20C23N2O9
_chemical_formula_sum   'Zn2 H20 C23 N2 O9'
_cell_volume   956.34501472
_cell_formula_units_Z   1
loop_
 _symmetry_equiv_pos_site_id
 _symmetry_equiv_pos_as_xyz
  1  'x, y, z'
loop_
 _atom_site_type_symbol
 _atom_site_label
 _atom_site_symmetry_multiplicity
 _atom_site_fract_x
 _atom_site_fract_y
 _atom_site_fract_z
 _atom_site_occupancy
 _atom_site_pbe_bader_charge
 _atom_site_pbe_bader_spin_density
 _atom_site_pbe_cm5_charge
 _atom_site_pbe_ddec_charge
 _atom_site_pbe_ddec_spin_density
 _atom_site_pbe_ddec_sum_bond_order
 _atom_site_pbe_magmom
Zn  Zn0  1  0.49056536  0.63082649  0.50351532  1  1.279769  0  0.66578  0.811509  0  2.435917  0
Zn  Zn1  1  0.47246334  0.34459591  0.50409425  1  1.282671  0  0.663118  0.812217  0  2.445166  0
H  H2  1  0.95802046  0.32311586  0.48503785  1  0.067627  0  0.107628  0.125611  0  0.990629  0
H  H3  1  0.65880917  0.88862115  0.37738346  1  0.128402  0  0.136088  0.116849  0  0.970213  0
H  H4  1  0.17011262  0.80466079  0.62720934  1  0.085341  0  0.112253  0.135345  0  0.980335  0
H  H5  1  0.30784364  0.82540750  0.74680032  1  0.100111  0  0.1106  0.132475  0  0.998995  0
H  H6  1  0.16272915  0.06488425  0.62875293  1  0.110974  0  0.113925  0.139162  0  0.96497  0
H  H7  1  0.30221609  0.08565868  0.74752275  1  0.080031  0  0.111546  0.132582  0  0.979565  0
H  H8  1  0.00313648  0.64086820  0.51940618  1  0.100384  0  0.104212  0.117312  0  1.013132  0
H  H9  1  0.37329301  0.27897729  0.89557698  1  0.058171  0  0.099257  0.098851  0  1.019163  0
H  H10  1  0.38531703  0.28340013  0.12008636  1  0.106137  0  0.102596  0.108403  0  1.002051  0
H  H11  1  0.55705376  0.83879215  0.12272394  1  0.040045  0  0.090432  0.106673  0  1.000351  0
H  H12  1  0.73082405  0.77479671  0.10105594  1  0.05891  0  0.098604  0.118682  0  0.994418  0
H  H13  1  0.50592074  0.83454946  0.90081694  1  0.02922  0  0.10339  0.05544  0  0.970995  0
H  H14  1  0.65120360  0.14692410  0.37790936  1  0.133272  0  0.13775  0.120718  0  0.966993  0
H  H15  1  0.85607412  0.69777602  0.76977549  1  0.025714  0  0.095317  0.066963  0  0.976231  0
H  H16  1  0.79668955  0.63220604  0.91354379  1  0.035022  0  0.096092  0.056761  0  1.000212  0
H  H17  1  0.02376578  0.89465255  0.86200183  1  0.006196  0  0.085574  0.078589  0  0.985804  0
H  H18  1  0.94615810  0.85677721  0.00517301  1  0.009969  0  0.087972  0.076786  0  0.9954  0
H  H19  1  0.04926010  0.63045051  0.01303743  1  0.033964  0  0.087634  0.11442  0  0.99846  0
H  H20  1  0.19700319  0.77111866  0.99134157  1  0.032701  0  0.08433  0.112217  0  1.006666  0
H  H21  1  0.12672754  0.66247023  0.86816951  1  -0.005219  0  0.084519  0.109524  0  1.015414  0
C  C22  1  0.46407276  0.49081273  0.73904600  1  1.574761  0  0.215325  0.594462  0  4.180626  0
C  C23  1  0.42410144  0.37744581  0.06874313  1  -0.102325  0  -0.084782  -0.096961  0  3.986285  0
C  C24  1  0.48296927  0.49864812  0.13358982  1  -0.058234  0  -0.014953  -0.070221  0  3.960699  0
C  C25  1  0.53267565  0.61624998  0.06439003  1  0.048349  0  -0.004462  0.077564  0  3.915229  0
C  C26  1  0.61200070  0.76505364  0.07138349  1  -0.071998  0  -0.162611  -0.287477  0  3.873366  0
C  C27  1  0.59011708  0.76870454  0.92807491  1  0.572724  0  0.013948  0.142609  0  3.884616  0
C  C28  1  0.39163279  0.04366844  0.57047920  1  0.527443  0  0.148173  0.200425  0  3.856588  0
C  C29  1  0.57639466  0.07581217  0.43401043  1  0.490632  0  0.065347  0.041874  0  3.874098  0
C  C30  1  0.58098774  0.93321919  0.43412530  1  0.493637  0  0.068433  0.046037  0  3.873158  0
C  C31  1  0.39629734  0.90115229  0.57068818  1  0.562614  0  0.150815  0.206438  0  3.849012  0
C  C32  1  0.27270918  0.86981465  0.66167091  1  -0.042654  0  -0.137029  -0.232147  0  3.818384  0
C  C33  1  0.18593691  0.44591610  0.48991467  1  1.590183  0  0.206921  0.625144  0  4.177279  0
C  C34  1  0.26800906  0.03259736  0.66197280  1  -0.007705  0  -0.135302  -0.228452  0  3.8231  0
C  C35  1  0.49206565  0.49720818  0.26814842  1  1.541683  0  0.212234  0.596668  0  4.181821  0
C  C36  1  0.77586643  0.51723595  0.51553408  1  1.55575  0  0.208386  0.626826  0  4.182688  0
C  C37  1  0.01862944  0.42880480  0.49326846  1  -0.060263  0  -0.080484  -0.164447  0  3.887045  0
C  C38  1  0.94299440  0.53511795  0.51053604  1  -0.029781  0  -0.083428  -0.175954  0  3.905168  0
C  C39  1  0.52202386  0.61477481  0.93849425  1  -0.109684  0  -0.018137  -0.045117  0  3.904839  0
C  C40  1  0.46651310  0.49461851  0.87366674  1  0.013209  0  -0.009381  -0.045708  0  3.966407  0
C  C41  1  0.41718529  0.37512739  0.94286887  1  0.061139  0  -0.089215  -0.105675  0  3.995152  0
C  C42  1  0.83411452  0.72869408  0.86261736  1  0.44391  0  -0.071632  0.039566  0  3.892879  0
C  C43  1  0.97685352  0.80834860  0.92154100  1  -0.003717  0  -0.171929  -0.138665  0  3.999648  0
C  C44  1  0.09395580  0.71338253  0.94972467  1  -0.055162  0  -0.244989  -0.354593  0  3.986149  0
N  N45  1  0.47953427  0.13404568  0.50309855  1  -1.217852  0  -0.284846  -0.173355  0  3.461283  0
N  N46  1  0.48923087  0.84221108  0.50344649  1  -1.199757  0  -0.284721  -0.174313  0  3.458479  0
O  O47  1  0.46159331  0.60660106  0.68557199  1  -1.152121  0  -0.310521  -0.534253  0  2.329009  0
O  O48  1  0.46613905  0.37381914  0.68863547  1  -1.167223  0  -0.318871  -0.549492  0  2.30555  0
O  O49  1  0.25938070  0.56827767  0.48081927  1  -1.173192  0  -0.320915  -0.556638  0  2.29757  0
O  O50  1  0.24213921  0.33332959  0.49800033  1  -1.145641  0  -0.321678  -0.546158  0  2.270981  0
O  O51  1  0.51702582  0.61514358  0.32075095  1  -1.155129  0  -0.318672  -0.545189  0  2.304475  0
O  O52  1  0.47325441  0.37890099  0.31998661  1  -1.161574  0  -0.318982  -0.552471  0  2.321811  0
O  O53  1  0.71882249  0.62850734  0.52751518  1  -1.149906  0  -0.320077  -0.549708  0  2.274707  0
O  O54  1  0.70294783  0.39444538  0.50656943  1  -1.165998  0  -0.321591  -0.55661  0  2.320047  0
O  O55  1  0.71481001  0.81165979  0.85412889  1  -1.04553  0  -0.238992  -0.261099  0  2.447262  0
