# generated using pymatgen
data_AgH13C11SN2O5
_symmetry_space_group_name_H-M   'P 1'
_cell_length_a   6.94736683
_cell_length_b   11.52894472
_cell_length_c   17.10070000
_cell_angle_alpha   104.96001920
_cell_angle_beta   90.00000000
_cell_angle_gamma   90.00000000
_symmetry_Int_Tables_number   1
_chemical_formula_structural   AgH13C11SN2O5
_chemical_formula_sum   'Ag4 H52 C44 S4 N8 O20'
_cell_volume   1323.27022930
_cell_formula_units_Z   4
loop_
 _symmetry_equiv_pos_site_id
 _symmetry_equiv_pos_as_xyz
  1  'x, y, z'
loop_
 _atom_site_type_symbol
 _atom_site_label
 _atom_site_symmetry_multiplicity
 _atom_site_fract_x
 _atom_site_fract_y
 _atom_site_fract_z
 _atom_site_occupancy
 _atom_site_hle17_bader_spin_density
 _atom_site_hle17_ddec_charge
 _atom_site_hle17_ddec_spin_density
 _atom_site_hle17_ddec_sum_bond_order
 _atom_site_hle17_magmom
 _atom_site_hse06_10hf_bader_spin_density
 _atom_site_hse06_10hf_ddec_charge
 _atom_site_hse06_10hf_ddec_spin_density
 _atom_site_hse06_10hf_ddec_sum_bond_order
 _atom_site_hse06_10hf_magmom
 _atom_site_hse06_bader_spin_density
 _atom_site_hse06_ddec_charge
 _atom_site_hse06_ddec_spin_density
 _atom_site_hse06_ddec_sum_bond_order
 _atom_site_hse06_magmom
 _atom_site_pbe_bader_charge
 _atom_site_pbe_bader_spin_density
 _atom_site_pbe_cm5_charge
 _atom_site_pbe_ddec_charge
 _atom_site_pbe_ddec_spin_density
 _atom_site_pbe_ddec_sum_bond_order
 _atom_site_pbe_magmom
Ag  Ag0  1  0.33878591  0.05563743  0.77095644  1  0  0.64829  0  1.259276  0  0  0.536278  0  1.684593  0  0  0.566577  0  1.63284  0  0.693994  0  0.431959  0.514986  0  1.720517  0
Ag  Ag1  1  0.83878974  0.94436303  0.72904417  1  0  0.648315  0  1.259235  0  0  0.536306  0  1.684544  0  0  0.566605  0  1.632793  0  0.693973  0  0.431962  0.515012  0  1.720468  0
Ag  Ag2  1  0.66120879  0.94436213  0.22904752  1  0  0.648277  0  1.259267  0  0  0.536262  0  1.684582  0  0  0.566564  0  1.632829  0  0.693965  0  0.431943  0.514969  0  1.720505  0
Ag  Ag3  1  0.16121216  0.05563653  0.27095570  1  0  0.648315  0  1.259248  0  0  0.536309  0  1.684558  0  0  0.56661  0  1.632806  0  0.693966  0  0.431971  0.515017  0  1.720482  0
H  H4  1  0.19592891  0.74419217  0.04097080  1  0  0.107358  0  0.953827  0  0  0.117771  0  1.012989  0  0  0.120791  0  1.010261  0  0.111625  0  0.108971  0.115503  0  1.015039  0
H  H5  1  0.69591834  0.25580829  0.45902630  1  0  0.107314  0  0.953873  0  0  0.117722  0  1.013046  0  0  0.120743  0  1.010316  0  0.111598  0  0.108955  0.115454  0  1.015096  0
H  H6  1  0.80408162  0.25580110  0.95902680  1  0  0.107283  0  0.953977  0  0  0.117724  0  1.01311  0  0  0.120747  0  1.010377  0  0.111656  0  0.108952  0.115458  0  1.015155  0
H  H7  1  0.30407780  0.74419486  0.54097302  1  0  0.107284  0  0.953951  0  0  0.117708  0  1.013114  0  0  0.12073  0  1.010383  0  0.111614  0  0.108925  0.11544  0  1.015163  0
H  H8  1  0.33312189  0.95166134  0.05986927  1  0  0.12531  0  0.957717  0  0  0.132214  0  1.020077  0  0  0.136689  0  1.017397  0  0.147042  0  0.11079  0.128972  0  1.02219  0
H  H9  1  0.83311277  0.04833911  0.44013017  1  0  0.125266  0  0.957713  0  0  0.132195  0  1.020056  0  0  0.136681  0  1.017364  0  0.14711  0  0.110775  0.128955  0  1.022167  0
H  H10  1  0.66688576  0.04833283  0.94013024  1  0  0.125293  0  0.957718  0  0  0.132232  0  1.020042  0  0  0.136714  0  1.017356  0  0.147017  0  0.110779  0.128991  0  1.022154  0
H  H11  1  0.16688049  0.95166404  0.55987091  1  0  0.125359  0  0.957757  0  0  0.132265  0  1.020111  0  0  0.136769  0  1.017396  0  0.147051  0  0.110811  0.129024  0  1.022222  0
H  H12  1  0.20228096  0.49235850  0.90177755  1  0  0.142463  0  0.961686  0  0  0.159215  0  1.025727  0  0  0.161312  0  1.025974  0  0.071996  0  0.098412  0.157733  0  1.025595  0
H  H13  1  0.70228334  0.50764196  0.59822423  1  0  0.14243  0  0.961709  0  0  0.159193  0  1.025746  0  0  0.161291  0  1.025991  0  0.071943  0  0.0984  0.157719  0  1.025593  0
H  H14  1  0.79771518  0.50764106  0.09822466  1  0  0.142508  0  0.961603  0  0  0.159259  0  1.025655  0  0  0.161356  0  1.025901  0  0.071921  0  0.098422  0.157781  0  1.025505  0
H  H15  1  0.29772719  0.49235581  0.40177474  1  0  0.142489  0  0.961653  0  0  0.159218  0  1.025724  0  0  0.161314  0  1.025972  0  0.071928  0  0.098415  0.157739  0  1.025581  0
H  H16  1  0.24203703  0.47549309  0.00147091  1  0  0.165755  0  0.959187  0  0  0.181018  0  1.018928  0  0  0.184377  0  1.016931  0  0.102063  0  0.102811  0.178606  0  1.020404  0
H  H17  1  0.74203941  0.52450647  0.49853071  1  0  0.165779  0  0.959185  0  0  0.181046  0  1.018921  0  0  0.184403  0  1.016925  0  0.102086  0  0.102833  0.178634  0  1.020399  0
H  H18  1  0.75795911  0.52450557  0.99853114  1  0  0.165784  0  0.959204  0  0  0.181081  0  1.018897  0  0  0.18444  0  1.016901  0  0.102083  0  0.102843  0.178667  0  1.020378  0
H  H19  1  0.25797256  0.47549220  0.50146900  1  0  0.16578  0  0.959153  0  0  0.18108  0  1.018857  0  0  0.184439  0  1.016858  0  0.102127  0  0.102833  0.178666  0  1.020337  0
H  H20  1  0.06666699  0.38167350  0.93529934  1  0  0.1477  0  0.948797  0  0  0.167075  0  1.005713  0  0  0.169261  0  1.005532  0  0.074415  0  0.100786  0.165482  0  1.005937  0
H  H21  1  0.56666649  0.61832606  0.56470111  1  0  0.147707  0  0.948814  0  0  0.167095  0  1.005716  0  0  0.16928  0  1.005534  0  0.074414  0  0.100788  0.165501  0  1.005942  0
H  H22  1  0.93333059  0.61832516  0.06470154  1  0  0.147713  0  0.948742  0  0  0.167116  0  1.005632  0  0  0.169302  0  1.00545  0  0.074452  0  0.100791  0.16552  0  1.005859  0
H  H23  1  0.43333972  0.38166901  0.43529622  1  0  0.147671  0  0.948882  0  0  0.167072  0  1.005766  0  0  0.169258  0  1.005584  0  0.074317  0  0.100795  0.165481  0  1.005988  0
H  H24  1  0.27606431  0.59425571  0.67084374  1  0  0.120144  0  0.983005  0  0  0.127301  0  1.042475  0  0  0.130547  0  1.041522  0  0.146758  0  0.10848  0.12495  0  1.043349  0
H  H25  1  0.77606957  0.40574205  0.82915815  1  0  0.120149  0  0.98302  0  0  0.127308  0  1.042486  0  0  0.130553  0  1.041535  0  0.146775  0  0.108495  0.124956  0  1.043362  0
H  H26  1  0.72393471  0.40574026  0.32915550  1  0  0.120135  0  0.983024  0  0  0.127269  0  1.042524  0  0  0.130512  0  1.041578  0  0.146693  0  0.108503  0.124919  0  1.043395  0
H  H27  1  0.22392945  0.59425571  0.17084199  1  0  0.120166  0  0.982951  0  0  0.127287  0  1.042458  0  0  0.130532  0  1.041509  0  0.146785  0  0.108497  0.124938  0  1.043328  0
H  H28  1  0.54258111  0.57508293  0.89617833  1  0  0.118467  0  0.961976  0  0  0.126977  0  1.020511  0  0  0.130184  0  1.019347  0  0.139503  0  0.111731  0.124643  0  1.021522  0
H  H29  1  0.04257584  0.42491753  0.60382111  1  0  0.118489  0  0.961911  0  0  0.126993  0  1.020443  0  0  0.130198  0  1.019279  0  0.139517  0  0.111727  0.124658  0  1.021455  0
H  H30  1  0.45742223  0.42491214  0.10382017  1  0  0.118514  0  0.961953  0  0  0.127046  0  1.020445  0  0  0.130252  0  1.01928  0  0.139561  0  0.111759  0.124711  0  1.021459  0
H  H31  1  0.95742173  0.57508383  0.39617848  1  0  0.118464  0  0.961978  0  0  0.126988  0  1.020489  0  0  0.130194  0  1.019324  0  0.139534  0  0.111736  0.124652  0  1.021503  0
H  H32  1  0.36991857  0.46984137  0.76864358  1  0  0.105098  0  0.954348  0  0  0.114087  0  1.016185  0  0  0.117264  0  1.014351  0  0.113736  0  0.104061  0.111747  0  1.017563  0
H  H33  1  0.86991952  0.53015640  0.73135773  1  0  0.105119  0  0.954365  0  0  0.1141  0  1.016207  0  0  0.117277  0  1.014373  0  0.113764  0  0.104064  0.11176  0  1.017587  0
H  H34  1  0.63008045  0.53015460  0.23135566  1  0  0.105143  0  0.954324  0  0  0.114132  0  1.016148  0  0  0.117309  0  1.014315  0  0.113794  0  0.104102  0.111792  0  1.017527  0
H  H35  1  0.13007950  0.46984137  0.26864241  1  0  0.105073  0  0.954372  0  0  0.114115  0  1.016149  0  0  0.117293  0  1.014314  0  0.113742  0  0.104073  0.111775  0  1.017528  0
H  H36  1  0.98498182  0.66077553  0.91884249  1  0  0.102997  0  0.942048  0  0  0.119902  0  0.990468  0  0  0.121609  0  0.991568  0  0.082578  0  0.112187  0.118637  0  0.989917  0
H  H37  1  0.48497511  0.33922852  0.58115698  1  0  0.102927  0  0.942096  0  0  0.119861  0  0.990488  0  0  0.121537  0  0.991632  0  0.082489  0  0.112145  0.118594  0  0.989942  0
H  H38  1  0.01501720  0.33922224  0.08115706  1  0  0.102983  0  0.942084  0  0  0.119904  0  0.990482  0  0  0.121611  0  0.991581  0  0.082598  0  0.112197  0.118638  0  0.989933  0
H  H39  1  0.51501815  0.66077822  0.41884296  1  0  0.103021  0  0.942043  0  0  0.119944  0  0.99044  0  0  0.121651  0  0.991539  0  0.082622  0  0.112208  0.118679  0  0.98989  0
H  H40  1  0.38116456  0.80886159  0.70143354  1  0  0.108574  0  0.932171  0  0  0.11531  0  1.002739  0  0  0.120383  0  0.995968  0  0.102887  0  0.127492  0.111505  0  1.00789  0
H  H41  1  0.88117414  0.19113707  0.79856734  1  0  0.108534  0  0.932212  0  0  0.115266  0  1.002786  0  0  0.12034  0  0.996016  0  0.102895  0  0.127469  0.11146  0  1.007939  0
H  H42  1  0.61883302  0.19113437  0.29856570  1  0  0.108575  0  0.932112  0  0  0.115288  0  1.002699  0  0  0.12036  0  0.995926  0  0.102836  0  0.127491  0.111482  0  1.007854  0
H  H43  1  0.11882919  0.80886159  0.20143237  1  0  0.1086  0  0.932138  0  0  0.115341  0  1.002678  0  0  0.120415  0  0.99591  0  0.102892  0  0.127488  0.111535  0  1.007832  0
H  H44  1  0.26661324  0.06273105  0.95224911  1  0  0.130684  0  0.973154  0  0  0.138504  0  1.037446  0  0  0.14227  0  1.033289  0  0.183676  0  0.128447  0.135663  0  1.040618  0
H  H45  1  0.76661419  0.93727300  0.54775329  1  0  0.130815  0  0.973053  0  0  0.138499  0  1.037543  0  0  0.142261  0  1.033387  0  0.183569  0  0.128449  0.135658  0  1.040714  0
H  H46  1  0.73338290  0.93726851  0.04775368  1  0  0.130674  0  0.973179  0  0  0.138444  0  1.037536  0  0  0.142209  0  1.033381  0  0.183675  0  0.128424  0.135603  0  1.040708  0
H  H47  1  0.23338195  0.06273194  0.45225102  1  0  0.130743  0  0.97319  0  0  0.138507  0  1.037534  0  0  0.142276  0  1.033382  0  0.183593  0  0.128462  0.135668  0  1.040705  0
H  H48  1  0.94300908  0.78151513  0.81605476  1  0  0.121197  0  0.966239  0  0  0.128195  0  1.03287  0  0  0.13208  0  1.028487  0  0.176332  0  0.125408  0.125318  0  1.036094  0
H  H49  1  0.44301101  0.21848982  0.68394370  1  0  0.12125  0  0.966247  0  0  0.128256  0  1.032855  0  0  0.13214  0  1.028472  0  0.176466  0  0.125425  0.125378  0  1.036077  0
H  H50  1  0.05698706  0.21848623  0.18394717  1  0  0.121135  0  0.966281  0  0  0.128185  0  1.032852  0  0  0.13207  0  1.02847  0  0.176639  0  0.12542  0.125306  0  1.036078  0
H  H51  1  0.55698945  0.78151872  0.31605539  1  0  0.121226  0  0.966195  0  0  0.12824  0  1.032809  0  0  0.132124  0  1.028426  0  0.176215  0  0.125438  0.125362  0  1.03603  0
H  H52  1  0.62237969  0.79330610  0.92029678  1  0  0.120215  0  0.951791  0  0  0.1286  0  1.013878  0  0  0.131748  0  1.011385  0  0.152211  0  0.127703  0.126309  0  1.015725  0
H  H53  1  0.12237442  0.20669346  0.57970133  1  0  0.120148  0  0.95182  0  0  0.128607  0  1.013825  0  0  0.131756  0  1.01133  0  0.152191  0  0.127708  0.126314  0  1.015674  0
H  H54  1  0.37762365  0.20668897  0.07970171  1  0  0.120222  0  0.95167  0  0  0.128563  0  1.013875  0  0  0.131704  0  1.011384  0  0.152172  0  0.127704  0.126286  0  1.01568  0
H  H55  1  0.87762603  0.79330700  0.42029694  1  0  0.120234  0  0.951767  0  0  0.128611  0  1.013875  0  0  0.131759  0  1.011381  0  0.152222  0  0.127719  0.12632  0  1.015719  0
C  C56  1  0.16447670  0.79612254  0.99760602  1  0  -0.017714  0  3.692252  0  0  -0.043729  0  3.949229  0  0  -0.038837  0  3.965207  0  0.046238  0  -0.071424  -0.046641  0  3.938415  0
C  C57  1  0.66446902  0.20388062  0.50239154  1  0  -0.017589  0  3.692237  0  0  -0.043579  0  3.949213  0  0  -0.038689  0  3.965188  0  0.046144  0  -0.071383  -0.046491  0  3.938399  0
C  C58  1  0.83552807  0.20387433  0.00239220  1  0  -0.017687  0  3.692351  0  0  -0.043708  0  3.949332  0  0  -0.038817  0  3.965309  0  0.046003  0  -0.071444  -0.046621  0  3.938521  0
C  C59  1  0.33552568  0.79612433  0.49760868  1  0  -0.017626  0  3.692314  0  0  -0.043636  0  3.949292  0  0  -0.038744  0  3.965271  0  0.046216  0  -0.071378  -0.046549  0  3.938479  0
C  C60  1  0.24453581  0.91012136  0.00748318  1  0  -0.07957  0  3.715874  0  0  -0.091751  0  3.970742  0  0  -0.097256  0  3.988693  0  -0.086057  0  -0.076276  -0.088495  0  3.959006  0
C  C61  1  0.74452956  0.08987999  0.49251582  1  0  -0.079656  0  3.715941  0  0  -0.091863  0  3.970793  0  0  -0.097374  0  3.988741  0  -0.086326  0  -0.076326  -0.088608  0  3.959056  0
C  C62  1  0.75546896  0.08987551  0.99251621  1  0  -0.079549  0  3.716021  0  0  -0.091763  0  3.970876  0  0  -0.097272  0  3.98883  0  -0.085986  0  -0.076249  -0.088509  0  3.959141  0
C  C63  1  0.25546513  0.91012495  0.50748556  1  0  -0.079628  0  3.71601  0  0  -0.09183  0  3.970865  0  0  -0.097358  0  3.988808  0  -0.086138  0  -0.076312  -0.088574  0  3.959129  0
C  C64  1  0.20499133  0.42827265  0.93915740  1  0  -0.497774  0  3.576424  0  0  -0.573893  0  3.817817  0  0  -0.580659  0  3.819375  0  -0.22327  0  -0.24329  -0.568974  0  3.816597  0
C  C65  1  0.70499228  0.57172780  0.56084321  1  0  -0.497768  0  3.57642  0  0  -0.573914  0  3.817811  0  0  -0.580679  0  3.819366  0  -0.223197  0  -0.243283  -0.568995  0  3.816596  0
C  C66  1  0.79500480  0.57172691  0.06084363  1  0  -0.497882  0  3.576378  0  0  -0.574063  0  3.817787  0  0  -0.580826  0  3.819335  0  -0.223233  0  -0.24333  -0.569138  0  3.816573  0
C  C67  1  0.29501537  0.42827086  0.43915533  1  0  -0.497832  0  3.576402  0  0  -0.573991  0  3.817774  0  0  -0.580756  0  3.819329  0  -0.223212  0  -0.243317  -0.569072  0  3.816559  0
C  C68  1  0.35910872  0.63138654  0.72561206  1  0  -0.097688  0  3.759993  0  0  -0.106474  0  4.010305  0  0  -0.112446  0  4.031199  0  0.007255  0  -0.082304  -0.102789  0  3.996342  0
C  C69  1  0.85911255  0.36861033  0.77438851  1  0  -0.09775  0  3.760157  0  0  -0.106543  0  4.010463  0  0  -0.112514  0  4.031355  0  0.00735  0  -0.082344  -0.102857  0  3.996497  0
C  C70  1  0.64088886  0.36860853  0.27438644  1  0  -0.097765  0  3.760214  0  0  -0.106568  0  4.010539  0  0  -0.112539  0  4.031433  0  0.00773  0  -0.082367  -0.102883  0  3.996576  0
C  C71  1  0.14088647  0.63138654  0.22561206  1  0  -0.097723  0  3.760127  0  0  -0.106496  0  4.010467  0  0  -0.112468  0  4.031363  0  0.007247  0  -0.082315  -0.102812  0  3.996503  0
C  C72  1  0.50525042  0.62255386  0.85084861  1  0  -0.09429  0  3.758015  0  0  -0.103904  0  4.008158  0  0  -0.109307  0  4.028747  0  -0.050342  0  -0.080111  -0.100654  0  3.994489  0
C  C73  1  0.00524803  0.37744390  0.64915153  1  0  -0.094385  0  3.758229  0  0  -0.103989  0  4.008386  0  0  -0.109391  0  4.028974  0  -0.050358  0  -0.080136  -0.100738  0  3.994718  0
C  C74  1  0.49475148  0.37744121  0.14914989  1  0  -0.094548  0  3.758279  0  0  -0.104164  0  4.008451  0  0  -0.109566  0  4.029038  0  -0.050333  0  -0.080209  -0.100915  0  3.994788  0
C  C75  1  0.99475099  0.62255476  0.35084818  1  0  -0.094358  0  3.758144  0  0  -0.103968  0  4.008304  0  0  -0.10937  0  4.028892  0  -0.050334  0  -0.080125  -0.100718  0  3.994636  0
C  C76  1  0.40817191  0.56450311  0.78005109  1  0  -0.051092  0  3.731693  0  0  -0.073462  0  3.985696  0  0  -0.070881  0  4.003963  0  -0.020445  0  -0.08389  -0.074763  0  3.973182  0
C  C77  1  0.90817430  0.43549645  0.71994877  1  0  -0.05111  0  3.731812  0  0  -0.073478  0  3.985793  0  0  -0.070894  0  4.004057  0  -0.020556  0  -0.083903  -0.074781  0  3.973281  0
C  C78  1  0.59182854  0.43549196  0.21994799  1  0  -0.051031  0  3.731785  0  0  -0.073377  0  3.985755  0  0  -0.070796  0  4.004023  0  -0.020823  0  -0.08389  -0.07468  0  3.973242  0
C  C79  1  0.09182616  0.56450311  0.28004992  1  0  -0.051073  0  3.731838  0  0  -0.073491  0  3.985831  0  0  -0.070911  0  4.004099  0  -0.020462  0  -0.083931  -0.074792  0  3.973317  0
C  C80  1  0.05162388  0.74895237  0.92937578  1  0  -0.096684  0  3.773982  0  0  -0.105551  0  4.023287  0  0  -0.112633  0  4.046325  0  0.016464  0  -0.078489  -0.101238  0  4.008011  0
C  C81  1  0.55162051  0.25105168  0.57062136  1  0  -0.09656  0  3.773879  0  0  -0.10545  0  4.023173  0  0  -0.112514  0  4.046219  0  0.01647  0  -0.078419  -0.101138  0  4.007897  0
C  C82  1  0.94837802  0.25104719  0.07062350  1  0  -0.096673  0  3.773911  0  0  -0.105553  0  4.02323  0  0  -0.112633  0  4.046266  0  0.016609  0  -0.078475  -0.101242  0  4.007958  0
C  C83  1  0.44837707  0.74895596  0.42937699  1  0  -0.096752  0  3.774034  0  0  -0.105628  0  4.023349  0  0  -0.11271  0  4.046384  0  0.016534  0  -0.078498  -0.101315  0  4.008072  0
C  C84  1  0.41119896  0.75103979  0.74122514  1  0  0.014213  0  3.588491  0  0  -0.030263  0  3.853852  0  0  -0.022625  0  3.864008  0  0.364845  0  0.036445  -0.035235  0  3.847433  0
C  C85  1  0.91120278  0.24895977  0.75877531  1  0  0.01438  0  3.588529  0  0  -0.030081  0  3.853842  0  0  -0.022448  0  3.864004  0  0.364834  0  0.036541  -0.035053  0  3.84742  0
C  C86  1  0.58880006  0.24895529  0.25877277  1  0  0.01425  0  3.588501  0  0  -0.030161  0  3.853776  0  0  -0.022524  0  3.863932  0  0.364865  0  0.036464  -0.035134  0  3.847356  0
C  C87  1  0.08879767  0.75104158  0.24122546  1  0  0.014221  0  3.588509  0  0  -0.030224  0  3.853797  0  0  -0.022591  0  3.863958  0  0.364837  0  0.036485  -0.035196  0  3.847377  0
C  C88  1  0.21128149  0.97354372  0.95025651  1  0  -0.003794  0  3.579247  0  0  -0.046625  0  3.839278  0  0  -0.039618  0  3.852706  0  0.376536  0  0.034426  -0.051006  0  3.830408  0
C  C89  1  0.71127956  0.02646212  0.54974562  1  0  -0.003815  0  3.579409  0  0  -0.046573  0  3.839501  0  0  -0.039564  0  3.852929  0  0.377275  0  0.034482  -0.050952  0  3.830629  0
C  C90  1  0.78872041  0.02645763  0.04974543  1  0  -0.003774  0  3.579432  0  0  -0.04657  0  3.839478  0  0  -0.039566  0  3.852914  0  0.376722  0  0.034458  -0.050949  0  3.830605  0
C  C91  1  0.28871802  0.97354552  0.45025857  1  0  -0.003833  0  3.57931  0  0  -0.04659  0  3.839292  0  0  -0.039592  0  3.852737  0  0.376552  0  0.034457  -0.05097  0  3.83042  0
C  C92  1  0.02290220  0.81351496  0.87231304  1  0  -0.015134  0  3.608432  0  0  -0.055172  0  3.867183  0  0  -0.049115  0  3.881904  0  0.340922  0  0.03323  -0.058888  0  3.857467  0
C  C93  1  0.52290315  0.18648730  0.62768671  1  0  -0.015296  0  3.608409  0  0  -0.055353  0  3.867197  0  0  -0.049291  0  3.881902  0  0.341198  0  0.033155  -0.059073  0  3.857491  0
C  C94  1  0.97708962  0.18648281  0.12768710  1  0  -0.015065  0  3.608566  0  0  -0.055142  0  3.867322  0  0  -0.049086  0  3.882042  0  0.34019  0  0.033213  -0.058863  0  3.857618  0
C  C95  1  0.47709587  0.81351855  0.37231425  1  0  -0.015117  0  3.608542  0  0  -0.055188  0  3.867332  0  0  -0.049129  0  3.88205  0  0.340733  0  0.033188  -0.058907  0  3.857626  0
C  C96  1  0.55216028  0.74282570  0.86539455  1  0  -0.005756  0  3.606009  0  0  -0.044615  0  3.862284  0  0  -0.039196  0  3.877215  0  0.370523  0  0.03315  -0.047873  0  3.852282  0
C  C97  1  0.05215933  0.25717476  0.63460489  1  0  -0.005646  0  3.606046  0  0  -0.044575  0  3.862323  0  0  -0.039154  0  3.877249  0  0.370499  0  0.03315  -0.047833  0  3.852319  0
C  C98  1  0.44783874  0.25717027  0.13460469  1  0  -0.005649  0  3.605982  0  0  -0.044546  0  3.862302  0  0  -0.039122  0  3.877231  0  0.370499  0  0.033151  -0.0478  0  3.852308  0
C  C99  1  0.94784113  0.74282660  0.36539470  1  0  -0.005708  0  3.606083  0  0  -0.04459  0  3.862378  0  0  -0.039171  0  3.877309  0  0.370536  0  0.033128  -0.047847  0  3.852374  0
S  S100  1  0.38790380  0.31949910  0.90121888  1  0  1.377482  0  5.626283  0  0  1.295207  0  6.142654  0  0  1.341931  0  6.11941  0  3.157935  0  0.490823  1.262958  0  6.157423  0
S  S101  1  0.88790475  0.68050136  0.59878114  1  0  1.377582  0  5.626181  0  0  1.295309  0  6.142543  0  0  1.342026  0  6.119303  0  3.157927  0  0.490861  1.26306  0  6.15731  0
S  S102  1  0.61209234  0.68049957  0.09878141  1  0  1.377663  0  5.626165  0  0  1.295385  0  6.14254  0  0  1.342112  0  6.119294  0  3.157837  0  0.490904  1.263136  0  6.157303  0
S  S103  1  0.11210003  0.31949910  0.40121830  1  0  1.377713  0  5.626014  0  0  1.295456  0  6.142368  0  0  1.342181  0  6.119122  0  3.157783  0  0.490937  1.263209  0  6.157136  0
N  N104  1  0.10207321  0.92445853  0.88379523  1  0  0.269379  0  3.708009  0  0  0.323131  0  3.959601  0  0  0.322284  0  3.984412  0  -0.678808  0  -0.122877  0.322909  0  3.942744  0
N  N105  1  0.60207703  0.07554732  0.61620514  1  0  0.269403  0  3.708092  0  0  0.323178  0  3.959652  0  0  0.322335  0  3.984454  0  -0.679515  0  -0.122816  0.322955  0  3.942795  0
N  N106  1  0.89792293  0.07554193  0.11620655  1  0  0.269379  0  3.708299  0  0  0.323125  0  3.959899  0  0  0.322281  0  3.984707  0  -0.678587  0  -0.122903  0.322901  0  3.943041  0
N  N107  1  0.39792630  0.92446122  0.38379687  1  0  0.269439  0  3.708009  0  0  0.323187  0  3.959592  0  0  0.322342  0  3.984398  0  -0.678463  0  -0.122851  0.322963  0  3.942735  0
N  N108  1  0.50770459  0.80575157  0.81035272  1  0  0.272242  0  3.728769  0  0  0.325823  0  3.985397  0  0  0.32635  0  4.008704  0  -0.656949  0  -0.118984  0.324757  0  3.969626  0
N  N109  1  0.00770508  0.19424799  0.68964715  1  0  0.272226  0  3.728718  0  0  0.325793  0  3.985377  0  0  0.326319  0  4.008683  0  -0.656929  0  -0.118982  0.324727  0  3.969605  0
N  N110  1  0.49229587  0.19424350  0.18964637  1  0  0.272276  0  3.728921  0  0  0.325875  0  3.985533  0  0  0.326404  0  4.008838  0  -0.656857  0  -0.118929  0.324808  0  3.969762  0
N  N111  1  0.99229682  0.80575157  0.31035213  1  0  0.272206  0  3.728896  0  0  0.325783  0  3.985534  0  0  0.326311  0  4.00884  0  -0.656995  0  -0.119012  0.324717  0  3.969761  0
O  O112  1  0.34647803  0.27414610  0.81326243  1  0  -0.722083  0  2.004552  0  0  -0.66179  0  2.278941  0  0  -0.685335  0  2.263107  0  -1.331101  0  -0.368635  -0.644987  0  2.289211  0
O  O113  1  0.84647898  0.72585525  0.68673833  1  0  -0.722162  0  2.004579  0  0  -0.661873  0  2.27898  0  0  -0.68542  0  2.26315  0  -1.331107  0  -0.368666  -0.645071  0  2.289251  0
O  O114  1  0.65352098  0.72585525  0.18673891  1  0  -0.722163  0  2.004604  0  0  -0.661892  0  2.279016  0  0  -0.685442  0  2.263182  0  -1.331025  0  -0.368667  -0.645088  0  2.289284  0
O  O115  1  0.15352435  0.27414521  0.31326052  1  0  -0.722141  0  2.004545  0  0  -0.661873  0  2.278962  0  0  -0.685421  0  2.26313  0  -1.33096  0  -0.36866  -0.645069  0  2.289232  0
O  O116  1  0.57280551  0.38335600  0.91663270  1  0  -0.696615  0  1.951694  0  0  -0.6376  0  2.189614  0  0  -0.659698  0  2.176717  0  -1.356126  0  -0.351273  -0.621974  0  2.197974  0
O  O117  1  0.07280600  0.61664625  0.58336764  1  0  -0.696636  0  1.951657  0  0  -0.637612  0  2.189572  0  0  -0.659707  0  2.176678  0  -1.356116  0  -0.351288  -0.621986  0  2.197932  0
O  O118  1  0.42719351  0.61664536  0.08336865  1  0  -0.696657  0  1.951679  0  0  -0.637611  0  2.189575  0  0  -0.659699  0  2.17665  0  -1.35614  0  -0.351279  -0.621987  0  2.197935  0
O  O119  1  0.92719877  0.38335690  0.41663227  1  0  -0.696673  0  1.951551  0  0  -0.637652  0  2.189468  0  0  -0.659737  0  2.176545  0  -1.356101  0  -0.3513  -0.622028  0  2.197828  0
O  O120  1  0.36675334  0.22629719  0.94510236  1  0  -0.695221  0  1.950511  0  0  -0.646026  0  2.206478  0  0  -0.66666  0  2.19231  0  -1.344441  0  -0.353896  -0.631322  0  2.215681  0
O  O121  1  0.86675573  0.77370326  0.55489825  1  0  -0.695269  0  1.950474  0  0  -0.646043  0  2.20643  0  0  -0.666674  0  2.192261  0  -1.344444  0  -0.353903  -0.631335  0  2.215636  0
O  O122  1  0.63324424  0.77370236  0.05489809  1  0  -0.695276  0  1.950389  0  0  -0.646068  0  2.206352  0  0  -0.666702  0  2.192181  0  -1.344404  0  -0.353937  -0.631361  0  2.215558  0
O  O123  1  0.13324761  0.22629809  0.44510193  1  0  -0.695295  0  1.950425  0  0  -0.646113  0  2.206403  0  0  -0.666751  0  2.192235  0  -1.344405  0  -0.353952  -0.631408  0  2.21561  0
O  O124  1  0.55987975  0.91944424  0.82447115  1  0  -0.558116  0  1.837955  0  0  -0.510796  0  2.113137  0  0  -0.536508  0  2.107167  0  -0.618463  0  -0.241157  -0.492444  0  2.116774  0
O  O125  1  0.05988168  0.08055442  0.67552797  1  0  -0.558155  0  1.837998  0  0  -0.510793  0  2.113122  0  0  -0.53652  0  2.107188  0  -0.618499  0  -0.241157  -0.49244  0  2.116757  0
O  O126  1  0.44011927  0.08055172  0.17552750  1  0  -0.558081  0  1.837973  0  0  -0.510769  0  2.113123  0  0  -0.536487  0  2.10717  0  -0.618596  0  -0.241156  -0.492418  0  2.116759  0
O  O127  1  0.94012309  0.91944514  0.32447248  1  0  -0.558072  0  1.838002  0  0  -0.510742  0  2.11315  0  0  -0.536462  0  2.107203  0  -0.618486  0  -0.241123  -0.49239  0  2.116787  0
O  O128  1  0.07337600  0.98780278  0.82985775  1  0  -0.566057  0  1.973828  0  0  -0.504977  0  2.273432  0  0  -0.534898  0  2.267384  0  -0.613526  0  -0.254726  -0.483415  0  2.276826  0
O  O129  1  0.57337983  0.01220935  0.67014723  1  0  -0.566018  0  1.973698  0  0  -0.504991  0  2.273352  0  0  -0.534914  0  2.267302  0  -0.613428  0  -0.25476  -0.483426  0  2.27674  0
O  O130  1  0.92661870  0.01220127  0.17014524  1  0  -0.56603  0  1.973872  0  0  -0.50496  0  2.273464  0  0  -0.534885  0  2.267427  0  -0.613508  0  -0.2547  -0.483398  0  2.276856  0
O  O131  1  0.42662351  0.98780547  0.32985939  1  0  -0.566152  0  1.973882  0  0  -0.505074  0  2.27348  0  0  -0.534992  0  2.267422  0  -0.613539  0  -0.25477  -0.483511  0  2.276875  0
