# generated using pymatgen
data_ZnH12C12NO4
_symmetry_space_group_name_H-M   'P 1'
_cell_length_a   7.55426700
_cell_length_b   10.93351993
_cell_length_c   14.43249335
_cell_angle_alpha   96.73236032
_cell_angle_beta   89.96673338
_cell_angle_gamma   110.19287952
_symmetry_Int_Tables_number   1
_chemical_formula_structural   ZnH12C12NO4
_chemical_formula_sum   'Zn4 H48 C48 N4 O16'
_cell_volume   1110.04755050
_cell_formula_units_Z   4
loop_
 _symmetry_equiv_pos_site_id
 _symmetry_equiv_pos_as_xyz
  1  'x, y, z'
loop_
 _atom_site_type_symbol
 _atom_site_label
 _atom_site_symmetry_multiplicity
 _atom_site_fract_x
 _atom_site_fract_y
 _atom_site_fract_z
 _atom_site_occupancy
 _atom_site_hle17_bader_spin_density
 _atom_site_hle17_ddec_charge
 _atom_site_hle17_ddec_spin_density
 _atom_site_hle17_ddec_sum_bond_order
 _atom_site_hle17_magmom
 _atom_site_hse06_10hf_bader_spin_density
 _atom_site_hse06_10hf_ddec_charge
 _atom_site_hse06_10hf_ddec_spin_density
 _atom_site_hse06_10hf_ddec_sum_bond_order
 _atom_site_hse06_10hf_magmom
 _atom_site_hse06_bader_spin_density
 _atom_site_hse06_ddec_charge
 _atom_site_hse06_ddec_spin_density
 _atom_site_hse06_ddec_sum_bond_order
 _atom_site_hse06_magmom
 _atom_site_pbe_bader_spin_density
 _atom_site_pbe_cm5_charge
 _atom_site_pbe_ddec_charge
 _atom_site_pbe_ddec_spin_density
 _atom_site_pbe_ddec_sum_bond_order
 _atom_site_pbe_magmom
Zn  Zn0  1  0.75018425  0.55218121  0.99349806  1  0  1.10093  0  1.748594  0  0  0.920637  0  2.205306  0  0  0.969486  0  2.147359  0  0  0.697789  0.8863  0  2.245253  0
Zn  Zn1  1  0.19806466  0.44781208  0.50657968  1  0  1.1004  0  1.749577  0  0  0.920223  0  2.206286  0  0  0.96899  0  2.148381  0  0  0.698047  0.885952  0  2.246213  0
Zn  Zn2  1  0.24981505  0.44781970  0.00650098  1  0  1.10096  0  1.748553  0  0  0.92064  0  2.205267  0  0  0.969491  0  2.147321  0  0  0.697789  0.886301  0  2.245215  0
Zn  Zn3  1  0.80193498  0.55218687  0.49341987  1  0  1.100409  0  1.749635  0  0  0.920198  0  2.206364  0  0  0.968969  0  2.148458  0  0  0.698051  0.885928  0  2.246291  0
H  H4  1  0.01144721  0.81851602  0.98809053  1  0  0.081817  0  0.946291  0  0  0.089787  0  1.011893  0  0  0.091957  0  1.010005  0  0  0.120869  0.088134  0  1.013406  0
H  H5  1  0.19303312  0.18139357  0.51199758  1  0  0.08158  0  0.946902  0  0  0.090052  0  1.012061  0  0  0.092178  0  1.010189  0  0  0.120877  0.088408  0  1.013579  0
H  H6  1  0.98855110  0.18148293  0.01190902  1  0  0.081828  0  0.946266  0  0  0.089789  0  1.011885  0  0  0.09196  0  1.009996  0  0  0.120865  0.088137  0  1.013396  0
H  H7  1  0.80696701  0.81860637  0.48800206  1  0  0.081551  0  0.946919  0  0  0.090031  0  1.012074  0  0  0.092158  0  1.010201  0  0  0.120869  0.088389  0  1.013591  0
H  H8  1  0.14645049  0.02875384  0.09475895  1  0  0.127104  0  0.96009  0  0  0.135615  0  1.021527  0  0  0.139443  0  1.019894  0  0  0.114534  0.132837  0  1.022879  0
H  H9  1  0.11729165  0.97103003  0.40534460  1  0  0.126856  0  0.960432  0  0  0.135773  0  1.021266  0  0  0.139656  0  1.019571  0  0  0.114504  0.132977  0  1.022618  0
H  H10  1  0.85354831  0.97124610  0.90524069  1  0  0.127111  0  0.960065  0  0  0.135604  0  1.021522  0  0  0.139431  0  1.01989  0  0  0.114532  0.132826  0  1.022875  0
H  H11  1  0.88270848  0.02896990  0.59465434  1  0  0.126862  0  0.960416  0  0  0.135792  0  1.021247  0  0  0.139675  0  1.01955  0  0  0.114503  0.132994  0  1.0226  0
H  H12  1  0.88371779  0.81062550  0.32077518  1  0  0.118373  0  0.963704  0  0  0.125626  0  1.028763  0  0  0.12884  0  1.027914  0  0  0.112837  0.123292  0  1.029612  0
H  H13  1  0.07287260  0.18923006  0.17941622  1  0  0.118554  0  0.962704  0  0  0.125731  0  1.028171  0  0  0.128995  0  1.027166  0  0  0.112525  0.123416  0  1.028981  0
H  H14  1  0.11628548  0.18937542  0.67922523  1  0  0.118361  0  0.9637  0  0  0.12565  0  1.028717  0  0  0.128864  0  1.027869  0  0  0.112854  0.123317  0  1.029565  0
H  H15  1  0.92712704  0.81076889  0.82058333  1  0  0.118546  0  0.96272  0  0  0.125709  0  1.028191  0  0  0.12897  0  1.027192  0  0  0.112536  0.123395  0  1.029001  0
H  H16  1  0.75928955  0.61382090  0.20532134  1  0  0.090263  0  0.959105  0  0  0.096805  0  1.027793  0  0  0.09927  0  1.025743  0  0  0.12099  0.094882  0  1.029441  0
H  H17  1  0.14616237  0.38624818  0.29479697  1  0  0.090902  0  0.958713  0  0  0.097478  0  1.027224  0  0  0.099856  0  1.025309  0  0  0.121135  0.095624  0  1.028805  0
H  H18  1  0.24070975  0.38618003  0.79467977  1  0  0.090271  0  0.959118  0  0  0.09682  0  1.027796  0  0  0.099287  0  1.025744  0  0  0.120989  0.094898  0  1.029444  0
H  H19  1  0.85383560  0.61375274  0.70520275  1  0  0.09093  0  0.958695  0  0  0.097502  0  1.027208  0  0  0.099878  0  1.025292  0  0  0.12114  0.095648  0  1.028788  0
H  H20  1  0.53541134  0.39367519  0.25902228  1  0  0.114286  0  0.945798  0  0  0.123685  0  1.006523  0  0  0.125726  0  1.006647  0  0  0.109996  0.122293  0  1.006517  0
H  H21  1  0.14234736  0.60642417  0.24102051  1  0  0.113527  0  0.945285  0  0  0.123449  0  1.00623  0  0  0.125492  0  1.006352  0  0  0.109882  0.12204  0  1.006208  0
H  H22  1  0.46458928  0.60632572  0.74097675  1  0  0.114274  0  0.945772  0  0  0.123689  0  1.006477  0  0  0.125729  0  1.0066  0  0  0.109995  0.122296  0  1.006471  0
H  H23  1  0.85765311  0.39357380  0.75897966  1  0  0.113564  0  0.945235  0  0  0.123476  0  1.006188  0  0  0.125519  0  1.006309  0  0  0.109878  0.122067  0  1.006167  0
H  H24  1  0.86756595  0.42758842  0.25582486  1  0  0.119469  0  0.96482  0  0  0.12513  0  1.032067  0  0  0.128484  0  1.030895  0  0  0.106288  0.122685  0  1.03307  0
H  H25  1  0.44040928  0.57230265  0.24418900  1  0  0.119674  0  0.965294  0  0  0.12454  0  1.033031  0  0  0.127864  0  1.031935  0  0  0.1061  0.122118  0  1.033994  0
H  H26  1  0.13243383  0.57241348  0.74417495  1  0  0.119433  0  0.964801  0  0  0.125119  0  1.032049  0  0  0.128474  0  1.030877  0  0  0.106278  0.122673  0  1.033054  0
H  H27  1  0.55959134  0.42769828  0.75581211  1  0  0.119673  0  0.96525  0  0  0.124536  0  1.032991  0  0  0.127857  0  1.031895  0  0  0.106088  0.122113  0  1.033956  0
H  H28  1  0.71887466  0.08209704  0.12716603  1  0  0.091801  0  0.957214  0  0  0.113  0  1.020775  0  0  0.11413  0  1.021255  0  0  0.081747  0.1122  0  1.020445  0
H  H29  1  0.63731431  0.91784417  0.37281285  1  0  0.091529  0  0.956302  0  0  0.112655  0  1.020086  0  0  0.113816  0  1.020536  0  0  0.081416  0.111846  0  1.019764  0
H  H30  1  0.28112414  0.91790289  0.87283292  1  0  0.091803  0  0.9572  0  0  0.112997  0  1.020766  0  0  0.114128  0  1.021246  0  0  0.081739  0.112198  0  1.020438  0
H  H31  1  0.36268548  0.08215773  0.62718765  1  0  0.091546  0  0.956315  0  0  0.112673  0  1.020093  0  0  0.113832  0  1.020544  0  0  0.081452  0.111865  0  1.01977  0
H  H32  1  0.62273342  0.16688408  0.05396913  1  0  0.120106  0  0.956181  0  0  0.141148  0  1.012541  0  0  0.142719  0  1.012738  0  0  0.091974  0.139991  0  1.01242  0
H  H33  1  0.45618345  0.83320088  0.44603253  1  0  0.120057  0  0.956565  0  0  0.141177  0  1.012654  0  0  0.142782  0  1.012817  0  0  0.092036  0.139994  0  1.01256  0
H  H34  1  0.37726588  0.83311683  0.94603060  1  0  0.120081  0  0.95619  0  0  0.141124  0  1.012552  0  0  0.142695  0  1.01275  0  0  0.091964  0.139966  0  1.012433  0
H  H35  1  0.54381633  0.16680102  0.55396797  1  0  0.119988  0  0.956638  0  0  0.141115  0  1.012732  0  0  0.142721  0  1.012895  0  0  0.091998  0.139933  0  1.012637  0
H  H36  1  0.47367229  0.05510276  0.12375901  1  0  0.102148  0  0.968615  0  0  0.124314  0  1.029779  0  0  0.125887  0  1.029562  0  0  0.087144  0.123182  0  1.029976  0
H  H37  1  0.41920489  0.94499451  0.37622435  1  0  0.102691  0  0.969121  0  0  0.124776  0  1.030157  0  0  0.126345  0  1.029957  0  0  0.087345  0.123641  0  1.030346  0
H  H38  1  0.52632617  0.94489914  0.87624080  1  0  0.102153  0  0.968641  0  0  0.124314  0  1.029807  0  0  0.125887  0  1.029589  0  0  0.087159  0.123181  0  1.030005  0
H  H39  1  0.58079392  0.05500543  0.62377598  1  0  0.102695  0  0.969088  0  0  0.124775  0  1.030137  0  0  0.126343  0  1.029937  0  0  0.087354  0.12364  0  1.030326  0
H  H40  1  0.49734125  0.12731477  0.31027448  1  0  0.095267  0  0.974305  0  0  0.114871  0  1.039901  0  0  0.115496  0  1.04159  0  0  0.08249  0.114393  0  1.038753  0
H  H41  1  0.36994111  0.87261050  0.18987485  1  0  0.09511  0  0.973962  0  0  0.11474  0  1.039558  0  0  0.115383  0  1.041235  0  0  0.082515  0.114272  0  1.038395  0
H  H42  1  0.50265755  0.87268516  0.68972446  1  0  0.095334  0  0.974297  0  0  0.114928  0  1.039895  0  0  0.115551  0  1.041587  0  0  0.082541  0.11445  0  1.038747  0
H  H43  1  0.63005853  0.12738846  0.81012540  1  0  0.095146  0  0.973948  0  0  0.114782  0  1.039522  0  0  0.115425  0  1.041199  0  0  0.082548  0.114314  0  1.03836  0
H  H44  1  0.67393854  0.27844660  0.35413956  1  0  0.120781  0  0.939161  0  0  0.1447  0  0.994091  0  0  0.146399  0  0.993302  0  0  0.09338  0.143384  0  0.994797  0
H  H45  1  0.39573340  0.72155926  0.14588173  1  0  0.121061  0  0.938302  0  0  0.144759  0  0.993551  0  0  0.146468  0  0.992762  0  0  0.093651  0.143435  0  0.994249  0
H  H46  1  0.32606159  0.72155334  0.64586078  1  0  0.120792  0  0.939154  0  0  0.144715  0  0.994079  0  0  0.146415  0  0.993288  0  0  0.09338  0.143399  0  0.994787  0
H  H47  1  0.60426673  0.27844068  0.85411930  1  0  0.121089  0  0.938289  0  0  0.144782  0  0.993536  0  0  0.146493  0  0.992747  0  0  0.093643  0.143459  0  0.994233  0
H  H48  1  0.73900284  0.14325971  0.30665087  1  0  0.097016  0  0.970902  0  0  0.11671  0  1.034826  0  0  0.117509  0  1.036474  0  0  0.082317  0.116133  0  1.033685  0
H  H49  1  0.59580139  0.85684665  0.19323308  1  0  0.096481  0  0.970385  0  0  0.116288  0  1.034351  0  0  0.117113  0  1.035971  0  0  0.082206  0.115691  0  1.033231  0
H  H50  1  0.26099812  0.85673924  0.69334869  1  0  0.097048  0  0.970909  0  0  0.11674  0  1.034837  0  0  0.117539  0  1.036485  0  0  0.082324  0.116163  0  1.033696  0
H  H51  1  0.40419825  0.14315231  0.80676717  1  0  0.096511  0  0.970363  0  0  0.116317  0  1.034334  0  0  0.117142  0  1.035954  0  0  0.082212  0.115719  0  1.033214  0
C  C52  1  0.98746953  0.82249667  0.06250625  1  0  0.160558  0  3.688615  0  0  0.127183  0  3.940421  0  0  0.135539  0  3.957343  0  0  0.057006  0.121686  0  3.929001  0
C  C53  1  0.16474519  0.17736634  0.43763091  1  0  0.160301  0  3.689096  0  0  0.126618  0  3.941084  0  0  0.134973  0  3.958069  0  0  0.056655  0.121156  0  3.929643  0
C  C54  1  0.01253011  0.17750229  0.93749400  1  0  0.160481  0  3.688673  0  0  0.127094  0  3.940484  0  0  0.135451  0  3.957406  0  0  0.056955  0.121596  0  3.929062  0
C  C55  1  0.83525312  0.82263260  0.56236795  1  0  0.160366  0  3.689074  0  0  0.126654  0  3.941094  0  0  0.135012  0  3.95808  0  0  0.056664  0.12119  0  3.929654  0
C  C56  1  0.06007876  0.93894894  0.12207914  1  0  -0.169826  0  3.681371  0  0  -0.186414  0  3.927296  0  0  -0.194249  0  3.946729  0  0  -0.077316  -0.181404  0  3.914391  0
C  C57  1  0.12064727  0.06084669  0.37809493  1  0  -0.169595  0  3.682434  0  0  -0.186508  0  3.928277  0  0  -0.194382  0  3.947671  0  0  -0.077282  -0.181475  0  3.915386  0
C  C58  1  0.93992220  0.06105001  0.87791972  1  0  -0.169775  0  3.681333  0  0  -0.18634  0  3.927252  0  0  -0.194173  0  3.946684  0  0  -0.077283  -0.181331  0  3.914348  0
C  C59  1  0.87935418  0.93915323  0.62190401  1  0  -0.169565  0  3.682421  0  0  -0.186495  0  3.928276  0  0  -0.19437  0  3.94767  0  0  -0.077259  -0.181461  0  3.915384  0
C  C60  1  0.02171354  0.93876533  0.21740556  1  0  0.096711  0  3.755806  0  0  0.106731  0  3.988736  0  0  0.111232  0  4.008918  0  0  0.017304  0.103861  0  3.975026  0
C  C61  1  0.08265298  0.06108592  0.28278493  1  0  0.095197  0  3.756075  0  0  0.105657  0  3.989002  0  0  0.110119  0  4.009206  0  0  0.017104  0.102821  0  3.975276  0
C  C62  1  0.97828792  0.06123460  0.78259408  1  0  0.096783  0  3.755757  0  0  0.10682  0  3.988672  0  0  0.111321  0  4.008854  0  0  0.017334  0.10395  0  3.974963  0
C  C63  1  0.91734847  0.93891401  0.71721402  1  0  0.095115  0  3.756126  0  0  0.105577  0  3.98904  0  0  0.110038  0  4.009247  0  0  0.017083  0.102742  0  3.975313  0
C  C64  1  0.91664580  0.81882641  0.24794659  1  0  -0.138988  0  3.668084  0  0  -0.157264  0  3.914787  0  0  -0.164545  0  3.934931  0  0  -0.07169  -0.152691  0  3.901491  0
C  C65  1  0.09747810  0.18103803  0.25224300  1  0  -0.137148  0  3.667085  0  0  -0.155791  0  3.913513  0  0  -0.163041  0  3.93367  0  0  -0.07064  -0.151235  0  3.900237  0
C  C66  1  0.08335482  0.18117451  0.75205383  1  0  -0.139003  0  3.668066  0  0  -0.157328  0  3.914797  0  0  -0.164609  0  3.934942  0  0  -0.071705  -0.152755  0  3.901502  0
C  C67  1  0.90252153  0.81896092  0.74775655  1  0  -0.137071  0  3.667077  0  0  -0.155692  0  3.913503  0  0  -0.162942  0  3.933659  0  0  -0.070625  -0.151137  0  3.900226  0
C  C68  1  0.84718915  0.70691354  0.18354597  1  0  0.150837  0  3.661659  0  0  0.119449  0  3.911262  0  0  0.127012  0  3.92875  0  0  0.058325  0.114505  0  3.899581  0
C  C69  1  0.14042377  0.29303268  0.31659713  1  0  0.148896  0  3.664413  0  0  0.118132  0  3.913527  0  0  0.125656  0  3.931091  0  0  0.057971  0.113189  0  3.901801  0
C  C70  1  0.15281098  0.29308640  0.81645436  1  0  0.150772  0  3.66167  0  0  0.119371  0  3.911303  0  0  0.126933  0  3.928791  0  0  0.058278  0.114425  0  3.89962  0
C  C71  1  0.85957371  0.70696725  0.68340252  1  0  0.148782  0  3.664385  0  0  0.118012  0  3.913501  0  0  0.125542  0  3.93106  0  0  0.057926  0.11307  0  3.901773  0
C  C72  1  0.45385004  0.35337467  0.11265271  1  0  0.695992  0  3.853739  0  0  0.645379  0  4.148326  0  0  0.679517  0  4.140143  0  0  0.208493  0.622024  0  4.153325  0
C  C73  1  0.10082505  0.64678399  0.38744583  1  0  0.692863  0  3.855707  0  0  0.643086  0  4.15048  0  0  0.677233  0  4.142372  0  0  0.208035  0.619737  0  4.155381  0
C  C74  1  0.54615191  0.64662626  0.88734840  1  0  0.695983  0  3.853768  0  0  0.64537  0  4.148347  0  0  0.679513  0  4.140161  0  0  0.208481  0.622017  0  4.153347  0
C  C75  1  0.89917410  0.35321398  0.61255503  1  0  0.692826  0  3.855843  0  0  0.643101  0  4.15054  0  0  0.677245  0  4.142435  0  0  0.208032  0.619755  0  4.155441  0
C  C76  1  0.57491161  0.34948139  0.19395734  1  0  -0.230692  0  3.667725  0  0  -0.240978  0  3.906465  0  0  -0.247498  0  3.919487  0  0  -0.101948  -0.236682  0  3.897792  0
C  C77  1  0.22584747  0.65059354  0.30609712  1  0  -0.226303  0  3.664183  0  0  -0.239118  0  3.905294  0  0  -0.245641  0  3.918341  0  0  -0.102003  -0.234722  0  3.896471  0
C  C78  1  0.42508719  0.65051854  0.80604230  1  0  -0.23066  0  3.667581  0  0  -0.240918  0  3.90634  0  0  -0.247444  0  3.919371  0  0  -0.101925  -0.236625  0  3.89767  0
C  C79  1  0.77415266  0.34940640  0.69390391  1  0  -0.226394  0  3.664275  0  0  -0.239205  0  3.905333  0  0  -0.245728  0  3.918379  0  0  -0.10204  -0.23481  0  3.89651  0
C  C80  1  0.78515070  0.37635269  0.19201359  1  0  -0.258194  0  3.627174  0  0  -0.273045  0  3.878921  0  0  -0.282253  0  3.891458  0  0  -0.106534  -0.266616  0  3.870262  0
C  C81  1  0.40918240  0.62360380  0.30799482  1  0  -0.261222  0  3.629917  0  0  -0.273695  0  3.880681  0  0  -0.282889  0  3.89324  0  0  -0.106411  -0.267324  0  3.872026  0
C  C82  1  0.21485173  0.62364920  0.80798483  1  0  -0.258138  0  3.627105  0  0  -0.273121  0  3.879024  0  0  -0.282326  0  3.891561  0  0  -0.106554  -0.266691  0  3.870365  0
C  C83  1  0.59081690  0.37639713  0.69200629  1  0  -0.261147  0  3.629987  0  0  -0.273643  0  3.880728  0  0  -0.28283  0  3.893278  0  0  -0.106375  -0.267272  0  3.872071  0
C  C84  1  0.89235120  0.39802892  0.10542769  1  0  0.707451  0  3.854021  0  0  0.652732  0  4.154168  0  0  0.688278  0  4.145366  0  0  0.215039  0.628456  0  4.159478  0
C  C85  1  0.49457066  0.60191612  0.39456898  1  0  0.708734  0  3.851996  0  0  0.653182  0  4.152663  0  0  0.688706  0  4.143897  0  0  0.215576  0.628927  0  4.157948  0
C  C86  1  0.10765026  0.60197102  0.89457265  1  0  0.707422  0  3.854053  0  0  0.652745  0  4.154202  0  0  0.688293  0  4.1454  0  0  0.215048  0.62847  0  4.159512  0
C  C87  1  0.50543031  0.39808284  0.60543196  1  0  0.708586  0  3.852218  0  0  0.653092  0  4.152799  0  0  0.688615  0  4.144035  0  0  0.215516  0.62884  0  4.15808  0
C  C88  1  0.64397897  0.23815988  0.20272595  1  0  0.221568  0  3.598102  0  0  0.251629  0  3.833087  0  0  0.253384  0  3.854018  0  0  -0.011221  0.250515  0  3.818683  0
C  C89  1  0.40629313  0.76183499  0.29731192  1  0  0.221247  0  3.599637  0  0  0.250893  0  3.835769  0  0  0.252675  0  3.856727  0  0  -0.011001  0.249741  0  3.821348  0
C  C90  1  0.35602033  0.76184104  0.79727447  1  0  0.22153  0  3.598113  0  0  0.251612  0  3.833106  0  0  0.253369  0  3.854037  0  0  -0.011255  0.2505  0  3.818702  0
C  C91  1  0.59370750  0.23816593  0.70268919  1  0  0.221239  0  3.59958  0  0  0.250886  0  3.835726  0  0  0.252668  0  3.856682  0  0  -0.011017  0.249735  0  3.821305  0
C  C92  1  0.61386047  0.13037954  0.12196390  1  0  -0.340597  0  3.693282  0  0  -0.420424  0  3.924113  0  0  -0.423284  0  3.933926  0  0  -0.244946  -0.418231  0  3.917277  0
C  C93  1  0.48399779  0.86965463  0.37802084  1  0  -0.340733  0  3.693622  0  0  -0.420234  0  3.924412  0  0  -0.423124  0  3.934158  0  0  -0.245048  -0.41803  0  3.917625  0
C  C94  1  0.38614015  0.86962138  0.87803583  1  0  -0.340576  0  3.693272  0  0  -0.420386  0  3.924085  0  0  -0.423247  0  3.933899  0  0  -0.244932  -0.418192  0  3.917246  0
C  C95  1  0.51600200  0.13034728  0.62198035  1  0  -0.340652  0  3.693636  0  0  -0.42016  0  3.924416  0  0  -0.423048  0  3.934167  0  0  -0.245043  -0.417956  0  3.917629  0
C  C96  1  0.63942691  0.19493800  0.29879685  1  0  -0.333304  0  3.676314  0  0  -0.412594  0  3.908378  0  0  -0.41551  0  3.919293  0  0  -0.241482  -0.410323  0  3.900772  0
C  C97  1  0.44463804  0.80507280  0.20122612  1  0  -0.33289  0  3.674906  0  0  -0.411969  0  3.907488  0  0  -0.414928  0  3.918375  0  0  -0.241926  -0.40968  0  3.899875  0
C  C98  1  0.36057503  0.80506291  0.70120218  1  0  -0.33341  0  3.676322  0  0  -0.4127  0  3.908403  0  0  -0.415613  0  3.919319  0  0  -0.241531  -0.410428  0  3.900797  0
C  C99  1  0.55536342  0.19492715  0.79877560  1  0  -0.332985  0  3.674855  0  0  -0.412061  0  3.907415  0  0  -0.415023  0  3.918303  0  0  -0.241938  -0.409771  0  3.899801  0
N  N100  1  0.87939719  0.70870826  0.09201186  1  0  -0.339993  0  3.309021  0  0  -0.25596  0  3.583484  0  0  -0.275817  0  3.597178  0  0  -0.325276  -0.242602  0  3.574167  0
N  N101  1  0.17091246  0.29124000  0.40809549  1  0  -0.338649  0  3.309232  0  0  -0.255216  0  3.584217  0  0  -0.274924  0  3.59776  0  0  -0.325052  -0.241976  0  3.575002  0
N  N102  1  0.12060112  0.29129070  0.90798909  1  0  -0.339952  0  3.309045  0  0  -0.255892  0  3.583488  0  0  -0.27575  0  3.597183  0  0  -0.325228  -0.24253  0  3.574165  0
N  N103  1  0.82908766  0.70875992  0.59190346  1  0  -0.338655  0  3.309181  0  0  -0.255192  0  3.584141  0  0  -0.274906  0  3.597693  0  0  -0.32505  -0.241952  0  3.574926  0
O  O104  1  0.33109730  0.25191170  0.07389026  1  0  -0.601703  0  1.940048  0  0  -0.554384  0  2.166727  0  0  -0.577932  0  2.15951  0  0  -0.30501  -0.537817  0  2.171231  0
O  O105  1  0.08027656  0.74836501  0.42654027  1  0  -0.600067  0  1.940309  0  0  -0.553258  0  2.166953  0  0  -0.576767  0  2.159786  0  0  -0.30471  -0.536714  0  2.171404  0
O  O106  1  0.66890233  0.74808725  0.92610930  1  0  -0.601668  0  1.940159  0  0  -0.554358  0  2.16684  0  0  -0.577905  0  2.159621  0  0  -0.304991  -0.537792  0  2.171345  0
O  O107  1  0.91972225  0.25163493  0.57346075  1  0  -0.600017  0  1.940359  0  0  -0.553236  0  2.166986  0  0  -0.576741  0  2.159821  0  0  -0.304708  -0.536692  0  2.171436  0
O  O108  1  0.47508113  0.47115470  0.09093260  1  0  -0.697354  0  2.04407  0  0  -0.613849  0  2.318967  0  0  -0.644616  0  2.301823  0  0  -0.331181  -0.592144  0  2.330034  0
O  O109  1  0.00370695  0.52891868  0.40885157  1  0  -0.696589  0  2.043115  0  0  -0.613381  0  2.318123  0  0  -0.644136  0  2.300963  0  0  -0.331206  -0.5917  0  2.329153  0
O  O110  1  0.52491900  0.52884524  0.90906774  1  0  -0.697407  0  2.044136  0  0  -0.613884  0  2.31901  0  0  -0.644658  0  2.301874  0  0  -0.331195  -0.592179  0  2.330077  0
O  O111  1  0.99629386  0.47107734  0.59114912  1  0  -0.696601  0  2.043196  0  0  -0.613374  0  2.318095  0  0  -0.64414  0  2.300966  0  0  -0.331182  -0.591697  0  2.329127  0
O  O112  1  0.80941143  0.39638572  0.02760957  1  0  -0.668826  0  2.059667  0  0  -0.600637  0  2.334161  0  0  -0.62704  0  2.317681  0  0  -0.331516  -0.582193  0  2.344926  0
O  O113  1  0.41307009  0.60344909  0.47238972  1  0  -0.669881  0  2.059289  0  0  -0.600928  0  2.333617  0  0  -0.627311  0  2.317141  0  0  -0.33182  -0.582468  0  2.344334  0
O  O114  1  0.19059316  0.60361518  0.97238946  1  0  -0.668823  0  2.059761  0  0  -0.600609  0  2.33422  0  0  -0.627013  0  2.317742  0  0  -0.331484  -0.582156  0  2.344964  0
O  O115  1  0.58693004  0.39655085  0.52760992  1  0  -0.669875  0  2.059319  0  0  -0.600913  0  2.333596  0  0  -0.627295  0  2.317123  0  0  -0.331826  -0.582452  0  2.34431  0
O  O116  1  0.06714708  0.41310627  0.11433298  1  0  -0.63307  0  2.026732  0  0  -0.559555  0  2.291056  0  0  -0.587561  0  2.277651  0  0  -0.310292  -0.540051  0  2.299615  0
O  O117  1  0.65446127  0.58708095  0.38565029  1  0  -0.632547  0  2.025486  0  0  -0.559156  0  2.290403  0  0  -0.587179  0  2.277191  0  0  -0.31061  -0.539686  0  2.298936  0
O  O118  1  0.93285354  0.58689466  0.88566883  1  0  -0.633015  0  2.026707  0  0  -0.559546  0  2.291065  0  0  -0.587544  0  2.277644  0  0  -0.310289  -0.540041  0  2.299622  0
O  O119  1  0.34553921  0.41291703  0.61434987  1  0  -0.632419  0  2.025476  0  0  -0.559085  0  2.290399  0  0  -0.587107  0  2.277189  0  0  -0.310538  -0.539614  0  2.298928  0
