# generated using pymatgen
data_Al6H47C88(NO10)3
_symmetry_space_group_name_H-M   'P 1'
_cell_length_a   13.01286606
_cell_length_b   12.92846401
_cell_length_c   30.44169040
_cell_angle_alpha   81.25083577
_cell_angle_beta   81.77003859
_cell_angle_gamma   61.90278487
_symmetry_Int_Tables_number   1
_chemical_formula_structural   Al6H47C88(NO10)3
_chemical_formula_sum   'Al6 H47 C88 N3 O30'
_cell_volume   4450.22733723
_cell_formula_units_Z   1
loop_
 _symmetry_equiv_pos_site_id
 _symmetry_equiv_pos_as_xyz
  1  'x, y, z'
loop_
 _atom_site_type_symbol
 _atom_site_label
 _atom_site_symmetry_multiplicity
 _atom_site_fract_x
 _atom_site_fract_y
 _atom_site_fract_z
 _atom_site_occupancy
 _atom_site_pbe_bader_charge
 _atom_site_pbe_bader_spin_density
 _atom_site_pbe_cm5_charge
 _atom_site_pbe_ddec_charge
 _atom_site_pbe_ddec_spin_density
 _atom_site_pbe_ddec_sum_bond_order
 _atom_site_pbe_magmom
Al  Al0  1  0.39894074  0.42901347  0.51047428  1  2.498957  0  0.39197  1.683885  0  2.564406  0
Al  Al1  1  0.64985767  0.42321337  0.49529904  1  2.48051  0  0.504108  1.665489  0  2.507005  0
Al  Al2  1  0.43527150  0.65809714  0.49318818  1  2.476788  0  0.503528  1.663627  0  2.507777  0
Al  Al3  1  0.92431264  0.92732396  0.97672426  1  2.494147  0  0.397063  1.685469  0  2.553728  0
Al  Al4  1  0.91380899  0.68234860  0.99527703  1  2.481931  0  0.505701  1.664785  0  2.508754  0
Al  Al5  1  0.68643454  0.90560992  0.99421222  1  2.481326  0  0.50516  1.664185  0  2.510294  0
H  H6  1  0.71367908  0.46777139  0.28717300  1  0.084632  0  0.113725  0.118895  0  0.983211  0
H  H7  1  0.14499235  0.85160558  0.16310157  1  0.077199  0  0.106388  0.108702  0  0.989536  0
H  H8  1  0.09516427  0.87170060  0.08459955  1  0.12151  0  0.118029  0.125616  0  0.980953  0
H  H9  1  0.25272021  0.80455499  0.29597710  1  0.057319  0  0.099254  0.107094  0  1.006644  0
H  H10  1  0.87503578  0.07852190  0.08567679  1  0.1287  0  0.120133  0.127779  0  0.979947  0
H  H11  1  0.85523702  0.12594097  0.16429575  1  0.06846  0  0.107577  0.109902  0  0.987814  0
H  H12  1  0.82986473  0.11114908  0.31879576  1  0.100802  0  0.112247  0.121555  0  0.986129  0
H  H13  1  0.43063423  0.36066126  0.38495527  1  0.117464  0  0.110989  0.114845  0  1.03129  0
H  H14  1  0.52061568  0.12530508  0.18548802  1  0.083104  0  0.105921  0.107967  0  0.990026  0
H  H15  1  0.54415537  0.07353219  0.10744239  1  0.124692  0  0.113476  0.119252  0  0.987332  0
H  H16  1  0.72441624  0.48872995  0.20425405  1  0.061748  0  0.114973  0.118968  0  0.978742  0
H  H17  1  0.45865354  0.31116728  0.30654849  1  0.082009  0  0.108668  0.111797  0  0.989942  0
H  H18  1  0.88973756  0.55169403  0.88923740  1  0.139501  0  0.117114  0.125637  0  0.980749  0
H  H19  1  0.87111728  0.52663386  0.81147405  1  0.079349  0  0.107123  0.108945  0  0.989198  0
H  H20  1  0.84024096  0.50459843  0.66884554  1  0.086005  0  0.105448  0.103264  0  1.008049  0
H  H21  1  0.81006538  0.48123947  0.59233113  1  0.119031  0  0.113326  0.117204  0  0.984705  0
H  H22  1  0.46088400  0.76502028  0.60388828  1  0.134892  0  0.115239  0.120223  0  0.990269  0
H  H23  1  0.52967359  0.82801317  0.81399079  1  0.063219  0  0.107916  0.110095  0  0.987648  0
H  H24  1  0.55059142  0.85325646  0.89148371  1  0.115229  0  0.116207  0.122079  0  0.982138  0
H  H25  1  0.48754121  0.78438026  0.68132470  1  0.070914  0  0.109066  0.111784  0  0.985687  0
H  H26  1  0.24991024  0.49291987  0.71156854  1  0.115197  0  0.107897  0.118179  0  0.993007  0
H  H27  1  0.65003272  0.85183614  0.20247840  1  0.083559  0  0.1099  0.113522  0  1.000253  0
H  H28  1  0.19895814  0.50551574  0.79361974  1  0.076584  0  0.109952  0.112858  0  0.983995  0
H  H29  1  0.10692265  0.87088485  0.69195568  1  0.051898  0  0.10771  0.118914  0  0.995368  0
H  H30  1  0.78073350  0.20809466  0.78006529  1  0.062448  0  0.10578  0.114599  0  1.026885  0
H  H31  1  0.51038684  0.10022422  0.79260622  1  0.069696  0  0.106458  0.11501  0  0.996913  0
H  H32  1  0.49874896  0.13914271  0.70982372  1  0.068859  0  0.111805  0.114724  0  0.977934  0
H  H33  1  0.63889435  0.83096871  0.28542947  1  0.090704  0  0.11512  0.119732  0  0.977847  0
H  H34  1  0.05785040  0.55499180  0.11236921  1  0.102866  0  0.111718  0.116821  0  0.991284  0
H  H35  1  0.10649597  0.53397489  0.19091758  1  0.076751  0  0.105514  0.108137  0  0.990539  0
H  H36  1  0.16172586  0.52085714  0.33147978  1  0.074118  0  0.101686  0.10988  0  1.029095  0
H  H37  1  0.30123394  0.78572019  0.37436974  1  0.066814  0  0.107933  0.113212  0  0.996346  0
H  H38  1  0.98488067  0.10295029  0.40462343  1  0.611305  0  0.347672  0.384884  0  0.848909  0
H  H39  1  0.01728560  0.97620135  0.74926176  1  0.414886  0  0.30654  0.240262  0  0.968318  0
H  H40  1  0.90590612  0.91348073  0.82404878  1  0.063533  0  0.099174  0.109233  0  0.983266  0
H  H41  1  0.92538463  0.04218235  0.81471207  1  0.03743  0  0.101684  0.105697  0  1.009805  0
H  H42  1  0.02586283  0.91485526  0.84523252  1  0.097035  0  0.105199  0.12558  0  1.00168  0
H  H43  1  0.77746847  0.26737652  0.65793761  1  0.470603  0  0.313709  0.25996  0  0.96106  0
H  H44  1  0.92384796  0.29527126  0.68013916  1  0.059201  0  0.114558  0.123092  0  0.976181  0
H  H45  1  0.93585088  0.19273120  0.72760101  1  0.02578  0  0.096893  0.094074  0  0.99742  0
H  H46  1  0.83196701  0.34391046  0.72993245  1  0.04861  0  0.101513  0.104504  0  0.988731  0
H  H47  1  0.23313584  0.47260542  0.44726108  1  0.517829  0  0.31653  0.282224  0  0.989607  0
H  H48  1  0.17845179  0.33831780  0.43518055  1  0.100668  0  0.116478  0.131078  0  0.96813  0
H  H49  1  0.23144959  0.34629874  0.37803758  1  0.060619  0  0.09456  0.090612  0  0.998416  0
H  H50  1  0.08337450  0.44289629  0.39518619  1  0.048113  0  0.099148  0.100872  0  0.984367  0
H  H51  1  0.31850096  0.29936064  0.53785787  1  0.561524  0  0.294474  0.382484  0  0.923368  0
H  H52  1  0.03244877  0.01672634  0.93548422  1  0.558417  0  0.289705  0.378719  0  0.930036  0
C  C53  1  0.58884648  0.30840426  0.44055170  1  1.578324  0  0.273542  0.643673  0  4.08733  0
C  C54  1  0.66339710  0.76822511  0.22121085  1  -0.047192  0  -0.072133  -0.109873  0  3.93825  0
C  C55  1  0.65748959  0.75654565  0.26743956  1  0.04182  0  -0.071485  -0.112552  0  3.945081  0
C  C56  1  0.67573539  0.64805423  0.29175874  1  0.079854  0  0.007281  0.120729  0  4.106319  0
C  C57  1  0.68764508  0.67161590  0.19792537  1  0.098184  0  0.00759  0.122754  0  4.102881  0
C  C58  1  0.69536818  0.68340173  0.15072857  1  -0.373797  0  -0.002905  -0.00037  0  4.049872  0
C  C59  1  0.66736759  0.63596258  0.33895416  1  -0.597049  0  -0.003435  -0.000478  0  4.05205  0
C  C60  1  0.70366524  0.69423351  0.11005349  1  0.142082  0  -0.034786  -0.200689  0  3.930792  0
C  C61  1  0.25824614  0.64514013  0.39751085  1  0.01922  0  -0.032168  -0.178745  0  3.96198  0
C  C62  1  0.26899355  0.72939814  0.36451802  1  0.003112  0  -0.085484  -0.066494  0  4.044899  0
C  C63  1  0.24278671  0.73986550  0.32120021  1  -0.003879  0  -0.110924  -0.184427  0  4.010249  0
C  C64  1  0.63112397  0.60034352  0.42622503  1  1.64062  0  0.283657  0.723004  0  4.149627  0
C  C65  1  0.20369851  0.66295141  0.30944329  1  0.050966  0  0.000856  0.169271  0  4.15091  0
C  C66  1  0.19212772  0.57839487  0.34145466  1  -0.047459  0  -0.104212  -0.257679  0  3.900799  0
C  C67  1  0.21905196  0.56605817  0.38607287  1  0.484526  0  0.12014  0.24199  0  4.044303  0
C  C68  1  0.10471796  0.60725547  0.16745014  1  -0.012873  0  -0.083878  -0.131322  0  3.953711  0
C  C69  1  0.07814040  0.61855425  0.12387775  1  -0.00486  0  -0.0777  -0.083129  0  3.986578  0
C  C70  1  0.09909441  0.79791392  0.10827807  1  -0.045824  0  -0.07345  -0.080382  0  3.976187  0
C  C71  1  0.12626956  0.78675009  0.15174181  1  -0.005439  0  -0.081821  -0.129328  0  3.949402  0
C  C72  1  0.12903817  0.69137326  0.18214897  1  0.010583  0  0.005325  0.149234  0  4.111222  0
C  C73  1  0.15508719  0.68068693  0.22663193  1  -0.273018  0  -0.04577  -0.114632  0  4.118702  0
C  C74  1  0.17718900  0.67156489  0.26512115  1  -0.075485  0  -0.041285  -0.096875  0  4.107812  0
C  C75  1  0.29565573  0.63511724  0.44155739  1  1.458976  0  0.26116  0.633413  0  4.098585  0
C  C76  1  0.07482186  0.71398393  0.09402361  1  -0.023562  0  -0.015247  -0.05066  0  3.98239  0
C  C77  1  0.61269663  0.26420533  0.39581254  1  -0.002337  0  -0.000906  -0.05557  0  3.920675  0
C  C78  1  0.51744201  0.30523391  0.37002033  1  -0.002693  0  -0.073778  -0.077215  0  3.964732  0
C  C79  1  0.53320020  0.27790825  0.32641240  1  -0.053195  0  -0.077177  -0.122073  0  3.937969  0
C  C80  1  0.64645281  0.20814923  0.30716684  1  0.096843  0  0.004659  0.146258  0  4.123614  0
C  C81  1  0.74231811  0.16661229  0.33312567  1  -0.034859  0  -0.074477  -0.150096  0  3.891481  0
C  C82  1  0.72589824  0.19293547  0.37715541  1  0.00684  0  0.001003  -0.019517  0  3.941818  0
C  C83  1  0.78689176  0.11553713  0.15155457  1  -0.026201  0  -0.079892  -0.12677  0  3.945339  0
C  C84  1  0.79809971  0.08933687  0.10802804  1  -0.051218  0  -0.070305  -0.075393  0  3.962494  0
C  C85  1  0.61064227  0.08693479  0.12017334  1  -0.06201  0  -0.07685  -0.084856  0  3.984835  0
C  C86  1  0.60498763  0.28627678  0.56593209  1  1.663502  0  0.276998  0.716178  0  4.160309  0
C  C87  1  0.59814613  0.11478792  0.16355320  1  -0.043309  0  -0.083414  -0.13307  0  3.958086  0
C  C88  1  0.68651343  0.12896251  0.18000979  1  0.066864  0  0.003693  0.142495  0  4.112734  0
C  C89  1  0.67431094  0.15609160  0.22440962  1  -0.493003  0  -0.041061  -0.102831  0  4.114127  0
C  C90  1  0.66290726  0.17978262  0.26271551  1  0.147934  0  -0.044104  -0.108863  0  4.113745  0
C  C91  1  0.71038628  0.07443685  0.09207662  1  0.00982  0  -0.011643  -0.045118  0  3.97179  0
C  C92  1  0.63398470  0.62224333  0.59352285  1  0.004204  0  -0.012169  -0.0496  0  3.975155  0
C  C93  1  0.54357498  0.70867755  0.61848932  1  -0.083162  0  -0.071496  -0.075564  0  3.965886  0
C  C94  1  0.55844562  0.71928389  0.66152856  1  0.032644  0  -0.076841  -0.12143  0  3.933958  0
C  C95  1  0.66544602  0.64484102  0.68047882  1  0.070294  0  0.008561  0.149963  0  4.099165  0
C  C96  1  0.75695288  0.56025976  0.65464527  1  -0.012425  0  -0.081037  -0.126728  0  3.946547  0
C  C97  1  0.61183084  0.60441022  0.54951691  1  1.55374  0  0.27701  0.64763  0  4.079204  0
C  C98  1  0.74071009  0.54803249  0.61201881  1  -0.102399  0  -0.075908  -0.081734  0  3.978932  0
C  C99  1  0.80060926  0.59716944  0.82927212  1  -0.004895  0  -0.078261  -0.123613  0  3.941727  0
C  C100  1  0.81092141  0.61063068  0.87253824  1  -0.022096  0  -0.071585  -0.077584  0  3.964442  0
C  C101  1  0.61921831  0.78116218  0.87381536  1  -0.008422  0  -0.071915  -0.077397  0  3.969425  0
C  C102  1  0.60812312  0.76753591  0.83066042  1  -0.068475  0  -0.07861  -0.124347  0  3.940023  0
C  C103  1  0.69907005  0.67565063  0.80751611  1  0.074562  0  0.007624  0.145062  0  4.105892  0
C  C104  1  0.68890506  0.66345255  0.76313356  1  -0.274488  0  -0.037114  -0.098811  0  4.105901  0
C  C105  1  0.67952441  0.65433353  0.72469477  1  -0.070909  0  -0.040758  -0.107567  0  4.107568  0
C  C106  1  0.72060876  0.70290191  0.89511330  1  -0.024298  0  -0.012059  -0.049761  0  3.972148  0
C  C107  1  0.24609387  0.66062513  0.61146864  1  0.204525  0  -0.039679  -0.199728  0  3.953706  0
C  C108  1  0.29807882  0.62493638  0.56795074  1  1.669317  0  0.275399  0.71289  0  4.158077  0
C  C109  1  0.20743963  0.57733490  0.72556624  1  -0.084681  0  -0.099038  -0.165246  0  4.000392  0
C  C110  1  0.17880355  0.58489055  0.77076903  1  0.00803  0  -0.079539  -0.099733  0  4.013286  0
C  C111  1  0.09542128  0.80076303  0.76069988  1  0.443712  0  0.116248  0.212173  0  4.045732  0
C  C112  1  0.12695734  0.79101727  0.71461282  1  0.00085  0  -0.094688  -0.247571  0  3.931556  0
C  C113  1  0.18225877  0.68232830  0.69696322  1  0.08075  0  0.00175  0.150039  0  4.153398  0
C  C114  1  0.12501051  0.69396223  0.78959986  1  0.104864  0  -0.011098  0.012848  0  4.066136  0
C  C115  1  0.10623294  0.69257902  0.83633088  1  -0.443427  0  -0.01575  0.002054  0  4.113222  0
C  C116  1  0.21450420  0.67477453  0.65071090  1  -0.48212  0  -0.017539  -0.020804  0  4.07298  0
C  C117  1  0.09197902  0.69044659  0.87696284  1  0.146865  0  -0.049203  -0.230146  0  3.955419  0
C  C118  1  0.62530127  0.23669663  0.61112368  1  0.195557  0  -0.040465  -0.208733  0  3.944116  0
C  C119  1  0.65831624  0.62404481  0.37963516  1  0.358136  0  -0.035618  -0.201163  0  3.931555  0
C  C120  1  0.71707766  0.21198764  0.71744638  1  0.416202  0  0.114852  0.211135  0  4.067805  0
C  C121  1  0.72096057  0.19182202  0.76400236  1  0.059722  0  -0.098897  -0.250964  0  3.917668  0
C  C122  1  0.56650977  0.13187903  0.77141274  1  0.042624  0  -0.097987  -0.166066  0  3.996259  0
C  C123  1  0.56067536  0.15304777  0.72562136  1  -0.069445  0  -0.076513  -0.092626  0  4.000605  0
C  C124  1  0.63454641  0.19212688  0.69797084  1  0.176796  0  -0.011191  0.013672  0  4.096656  0
C  C125  1  0.64771422  0.15108219  0.79081661  1  0.052002  0  0.005458  0.154514  0  4.137941  0
C  C126  1  0.65990447  0.12535546  0.83722105  1  -0.62311  0  -0.016304  -0.027557  0  4.07587  0
C  C127  1  0.62788496  0.21417349  0.65156479  1  -0.54792  0  -0.018796  -0.016585  0  4.125518  0
C  C128  1  0.67787469  0.09828767  0.87654104  1  0.317887  0  -0.034425  -0.19047  0  3.940483  0
C  C129  1  0.03681566  0.73183312  0.04860045  1  1.552698  0  0.269731  0.632438  0  4.102278  0
C  C130  1  0.70015180  0.55142053  0.26844877  1  -0.060206  0  -0.070779  -0.108554  0  3.936121  0
C  C131  1  0.72775255  0.71902248  0.06325724  1  1.652661  0  0.285344  0.723845  0  4.154334  0
C  C132  1  0.72874413  0.03652249  0.04665596  1  1.562896  0  0.272077  0.63127  0  4.102542  0
C  C133  1  0.04708572  0.71851673  0.92158856  1  1.660885  0  0.271243  0.708529  0  4.174103  0
C  C134  1  0.73768401  0.72382614  0.93945785  1  1.53957  0  0.276275  0.645447  0  4.085783  0
C  C135  1  0.71387238  0.04587752  0.92041931  1  1.673068  0  0.274431  0.704913  0  4.171269  0
C  C136  1  0.70597500  0.56310075  0.22223187  1  0.03777  0  -0.071992  -0.113068  0  3.944726  0
C  C137  1  0.82832530  0.13324660  0.40488779  1  1.542967  0  0.23259  0.58284  0  4.131176  0
C  C138  1  0.97169656  0.94585420  0.81703333  1  0.263326  0  -0.139062  -0.217606  0  3.957933  0
C  C139  1  0.87374838  0.27146313  0.70815866  1  0.317942  0  -0.128169  -0.20683  0  4.003112  0
C  C140  1  0.17362960  0.39859896  0.40518583  1  0.240706  0  -0.127712  -0.209141  0  3.988967  0
N  N141  1  0.04044734  0.91139060  0.77475496  1  -1.172957  0  -0.437966  -0.27788  0  3.593377  0
N  N142  1  0.78944935  0.24873046  0.69097024  1  -1.226602  0  -0.436869  -0.281395  0  3.644262  0
N  N143  1  0.20952431  0.48116211  0.41578766  1  -1.234744  0  -0.426986  -0.264352  0  3.602061  0
O  O144  1  0.29375567  0.55421267  0.47099985  1  -1.260478  0  -0.222837  -0.579424  0  2.392993  0
O  O145  1  0.68357291  0.50929079  0.53213492  1  -1.267019  0  -0.236286  -0.602771  0  2.296659  0
O  O146  1  0.51800360  0.68350593  0.53259429  1  -1.26289  0  -0.235155  -0.599531  0  2.306248  0
O  O147  1  0.31469866  0.70068441  0.53893755  1  -1.257903  0  -0.245889  -0.614682  0  2.235294  0
O  O148  1  0.49697502  0.50335908  0.49972268  1  -1.6076  0  -0.391908  -1.269853  0  2.311126  0
O  O149  1  0.82094607  0.02475630  0.02302994  1  -1.243757  0  -0.210781  -0.549642  0  2.348587  0
O  O150  1  0.02141288  0.82607676  0.02469319  1  -1.243197  0  -0.214449  -0.561705  0  2.350398  0
O  O151  1  0.01732795  0.65064953  0.03712501  1  -1.280005  0  -0.250079  -0.618919  0  2.293518  0
O  O152  1  0.82458718  0.64598709  0.04478892  1  -1.249084  0  -0.22548  -0.583821  0  2.244506  0
O  O153  1  0.65337997  0.81579306  0.04423752  1  -1.249645  0  -0.227021  -0.587779  0  2.248746  0
O  O154  1  0.65055110  0.01334358  0.03510329  1  -1.272677  0  -0.248765  -0.615261  0  2.292044  0
O  O155  1  0.48589909  0.34339686  0.45848905  1  -1.2433  0  -0.217177  -0.566485  0  2.364941  0
O  O156  1  0.81628593  0.02085033  0.92797953  1  -1.208782  0  -0.209823  -0.55365  0  2.279167  0
O  O157  1  0.02042779  0.82189612  0.92983126  1  -1.224731  0  -0.215433  -0.5752  0  2.301096  0
O  O158  1  0.03223016  0.63969894  0.94945824  1  -1.269083  0  -0.247472  -0.610388  0  2.228866  0
O  O159  1  0.83202045  0.64986842  0.95719632  1  -1.269993  0  -0.234895  -0.600821  0  2.311655  0
O  O160  1  0.66040687  0.81773916  0.95636546  1  -1.267047  0  -0.235776  -0.601853  0  2.302136  0
O  O161  1  0.63908302  0.02445832  0.94783816  1  -1.261415  0  -0.244929  -0.608105  0  2.232915  0
O  O162  1  0.84028495  0.83759909  0.98875455  1  -1.611063  0  -0.390552  -1.269149  0  2.294351  0
O  O163  1  0.67241846  0.31438604  0.45638616  1  -1.264671  0  -0.241787  -0.609323  0  2.318331  0
O  O164  1  0.69803445  0.49830958  0.44474615  1  -1.254469  0  -0.231216  -0.593723  0  2.241395  0
O  O165  1  0.53960824  0.67905484  0.44516836  1  -1.236478  0  -0.224968  -0.58329  0  2.249121  0
O  O166  1  0.33376470  0.70682019  0.44927363  1  -1.274716  0  -0.256277  -0.622003  0  2.271438  0
O  O167  1  0.32654937  0.51953095  0.56231739  1  -1.217797  0  -0.21183  -0.559627  0  2.290485  0
O  O168  1  0.50985839  0.30686514  0.55159940  1  -1.22459  0  -0.214652  -0.571545  0  2.27328  0
O  O169  1  0.68501064  0.31059376  0.54394755  1  -1.254089  0  -0.244493  -0.607677  0  2.223639  0
O  O170  1  0.83163007  0.07187165  0.43973551  1  -1.121051  0  -0.288491  -0.47167  0  2.047658  0
O  O171  1  0.92127859  0.14944651  0.38513257  1  -1.106836  0  -0.340876  -0.491782  0  2.192941  0
O  O172  1  0.30182077  0.36693828  0.51616248  1  -1.354693  0  -0.571118  -0.993417  0  1.825153  0
O  O173  1  0.99897506  0.01257694  0.96574635  1  -1.347223  0  -0.579432  -0.99571  0  1.798045  0
