# generated using pymatgen
data_CdH24C38N2O5
_symmetry_space_group_name_H-M   'P 1'
_cell_length_a   10.70036576
_cell_length_b   10.75533967
_cell_length_c   13.37832145
_cell_angle_alpha   93.58591322
_cell_angle_beta   109.31119604
_cell_angle_gamma   97.38564844
_symmetry_Int_Tables_number   1
_chemical_formula_structural   CdH24C38N2O5
_chemical_formula_sum   'Cd2 H48 C76 N4 O10'
_cell_volume   1431.86939848
_cell_formula_units_Z   2
loop_
 _symmetry_equiv_pos_site_id
 _symmetry_equiv_pos_as_xyz
  1  'x, y, z'
loop_
 _atom_site_type_symbol
 _atom_site_label
 _atom_site_symmetry_multiplicity
 _atom_site_fract_x
 _atom_site_fract_y
 _atom_site_fract_z
 _atom_site_occupancy
 _atom_site_hle17_bader_spin_density
 _atom_site_hle17_ddec_charge
 _atom_site_hle17_ddec_spin_density
 _atom_site_hle17_ddec_sum_bond_order
 _atom_site_hle17_magmom
 _atom_site_hse06_10hf_bader_spin_density
 _atom_site_hse06_10hf_ddec_charge
 _atom_site_hse06_10hf_ddec_spin_density
 _atom_site_hse06_10hf_ddec_sum_bond_order
 _atom_site_hse06_10hf_magmom
 _atom_site_hse06_bader_spin_density
 _atom_site_hse06_ddec_charge
 _atom_site_hse06_ddec_spin_density
 _atom_site_hse06_ddec_sum_bond_order
 _atom_site_hse06_magmom
 _atom_site_pbe_bader_spin_density
 _atom_site_pbe_cm5_charge
 _atom_site_pbe_ddec_charge
 _atom_site_pbe_ddec_spin_density
 _atom_site_pbe_ddec_sum_bond_order
 _atom_site_pbe_magmom
Cd  Cd0  1  0.69302445  0.43566357  0.57698182  1  0  1.129267  0  1.647577  0  0  0.933812  0  2.092802  0  0  0.99491  0  2.040376  0  0  0.773836  0.890386  0  2.12869  0
Cd  Cd1  1  0.30697515  0.56433438  0.42301764  1  0  1.129318  0  1.647506  0  0  0.93388  0  2.092723  0  0  0.994978  0  2.040295  0  0  0.773872  0.8905  0  2.128595  0
H  H2  1  0.59286885  0.64581758  0.40428931  1  0  0.104163  0  0.973141  0  0  0.109277  0  1.039881  0  0  0.112679  0  1.036212  0  0  0.117979  0.106697  0  1.042796  0
H  H3  1  0.40713222  0.35418324  0.59571290  1  0  0.104142  0  0.973046  0  0  0.109248  0  1.039801  0  0  0.112651  0  1.036131  0  0  0.117957  0.106659  0  1.042718  0
H  H4  1  0.61976479  0.71518441  0.23739757  1  0  0.103406  0  0.962148  0  0  0.112916  0  1.025223  0  0  0.115924  0  1.024558  0  0  0.104702  0.110826  0  1.02577  0
H  H5  1  0.38023542  0.28481733  0.76260371  1  0  0.103407  0  0.962167  0  0  0.112916  0  1.025244  0  0  0.115923  0  1.024579  0  0  0.104703  0.110827  0  1.02579  0
H  H6  1  0.88431029  0.22307179  0.64952155  1  0  0.082468  0  0.95362  0  0  0.0904  0  1.017943  0  0  0.092527  0  1.016684  0  0  0.116507  0.089031  0  1.018471  0
H  H7  1  0.11568990  0.77692995  0.35047823  1  0  0.082426  0  0.953658  0  0  0.090396  0  1.017953  0  0  0.092521  0  1.016701  0  0  0.116533  0.08904  0  1.018499  0
H  H8  1  0.03332141  0.10194923  0.58690853  1  0  0.102326  0  0.964504  0  0  0.112174  0  1.027728  0  0  0.11477  0  1.027994  0  0  0.103944  0.110195  0  1.028141  0
H  H9  1  0.96667994  0.89805347  0.41309309  1  0  0.102264  0  0.964557  0  0  0.112112  0  1.027782  0  0  0.114708  0  1.028047  0  0  0.103898  0.11014  0  1.028208  0
H  H10  1  0.08647091  0.32979729  0.29676194  1  0  0.104523  0  0.968281  0  0  0.115763  0  1.028274  0  0  0.11861  0  1.027603  0  0  0.105727  0.113526  0  1.029314  0
H  H11  1  0.91353095  0.67020257  0.70323744  1  0  0.104537  0  0.968295  0  0  0.115757  0  1.028307  0  0  0.118625  0  1.027614  0  0  0.105721  0.113517  0  1.029331  0
H  H12  1  0.97862028  0.49703778  0.20541833  1  0  0.119828  0  0.964717  0  0  0.130936  0  1.022037  0  0  0.134324  0  1.020152  0  0  0.110164  0.128398  0  1.023611  0
H  H13  1  0.02137847  0.50296111  0.79458020  1  0  0.119836  0  0.964721  0  0  0.130924  0  1.022059  0  0  0.134311  0  1.020175  0  0  0.11016  0.128371  0  1.023642  0
H  H14  1  0.77455197  0.46109119  0.06154742  1  0  0.085108  0  0.983177  0  0  0.094613  0  1.049516  0  0  0.096692  0  1.049916  0  0  0.095605  0.093328  0  1.049007  0
H  H15  1  0.22544852  0.53890586  0.93845522  1  0  0.085056  0  0.983202  0  0  0.094569  0  1.049542  0  0  0.096648  0  1.049942  0  0  0.095629  0.093352  0  1.049008  0
H  H16  1  0.79839579  0.54096278  0.89751848  1  0  0.108107  0  0.955938  0  0  0.116348  0  1.017719  0  0  0.119675  0  1.016014  0  0  0.103315  0.113878  0  1.018997  0
H  H17  1  0.20160468  0.45903426  0.10248266  1  0  0.108077  0  0.956  0  0  0.116313  0  1.017782  0  0  0.119644  0  1.016076  0  0  0.103287  0.113849  0  1.01908  0
H  H18  1  0.82364474  0.77048195  0.88236694  1  0  0.089087  0  0.948898  0  0  0.100448  0  1.008731  0  0  0.103092  0  1.008015  0  0  0.100082  0.098497  0  1.009388  0
H  H19  1  0.17635441  0.22951317  0.11763153  1  0  0.089114  0  0.948855  0  0  0.100474  0  1.008693  0  0  0.103118  0  1.007978  0  0  0.100069  0.098508  0  1.009366  0
H  H20  1  0.83183384  0.92236370  0.03449914  1  0  0.084712  0  0.960299  0  0  0.095628  0  1.019134  0  0  0.098068  0  1.018849  0  0  0.095804  0.094047  0  1.019292  0
H  H21  1  0.16816660  0.07763332  0.96549974  1  0  0.08472  0  0.960325  0  0  0.095645  0  1.019136  0  0  0.098085  0  1.018849  0  0  0.09577  0.094053  0  1.019282  0
H  H22  1  0.80971312  0.84331359  0.19874800  1  0  0.086491  0  0.955941  0  0  0.095915  0  1.020968  0  0  0.09906  0  1.019237  0  0  0.095582  0.0937  0  1.022005  0
H  H23  1  0.19028364  0.15668527  0.80125003  1  0  0.086398  0  0.956067  0  0  0.09588  0  1.021032  0  0  0.099025  0  1.019301  0  0  0.095547  0.093658  0  1.022047  0
H  H24  1  0.26110263  0.14929785  0.57254114  1  0  0.08069  0  0.979022  0  0  0.093257  0  1.041929  0  0  0.095557  0  1.041104  0  0  0.097882  0.091735  0  1.042463  0
H  H25  1  0.73889812  0.85070107  0.42745941  1  0  0.080694  0  0.979036  0  0  0.093257  0  1.041942  0  0  0.095557  0  1.041115  0  0  0.097891  0.091736  0  1.042499  0
H  H26  1  0.41428697  0.03819186  0.51076500  1  0  0.089157  0  0.952008  0  0  0.104113  0  1.006699  0  0  0.106453  0  1.005788  0  0  0.104188  0.1025  0  1.007286  0
H  H27  1  0.58571517  0.96180988  0.48923304  1  0  0.089194  0  0.951927  0  0  0.104116  0  1.006661  0  0  0.106449  0  1.00575  0  0  0.104182  0.102478  0  1.007256  0
H  H28  1  0.97909942  0.10591877  0.25202792  1  0  0.092064  0  0.968028  0  0  0.100266  0  1.03468  0  0  0.103765  0  1.032415  0  0  0.098507  0.097769  0  1.036305  0
H  H29  1  0.02089965  0.89408202  0.74797303  1  0  0.092046  0  0.968106  0  0  0.100249  0  1.034755  0  0  0.103757  0  1.032482  0  0  0.098508  0.097772  0  1.036371  0
H  H30  1  0.92337920  0.32451970  0.94156531  1  0  0.101598  0  0.966511  0  0  0.108691  0  1.031513  0  0  0.111431  0  1.030954  0  0  0.10358  0.106767  0  1.031954  0
H  H31  1  0.07662281  0.67548111  0.05843415  1  0  0.101555  0  0.966491  0  0  0.108624  0  1.031528  0  0  0.111364  0  1.030972  0  0  0.103493  0.10663  0  1.031968  0
H  H32  1  0.91721724  0.23999038  0.11121243  1  0  0.11038  0  0.963323  0  0  0.120142  0  1.027319  0  0  0.122817  0  1.02706  0  0  0.10434  0.11822  0  1.027599  0
H  H33  1  0.08278451  0.76000855  0.88878837  1  0  0.110425  0  0.963307  0  0  0.120173  0  1.027312  0  0  0.122856  0  1.027045  0  0  0.104386  0.118286  0  1.02759  0
H  H34  1  0.51050998  0.05745739  0.94695372  1  0  0.112302  0  0.973868  0  0  0.120219  0  1.03792  0  0  0.12378  0  1.036082  0  0  0.104736  0.117892  0  1.038875  0
H  H35  1  0.48949221  0.94254438  0.05304807  1  0  0.112312  0  0.973835  0  0  0.120224  0  1.037894  0  0  0.123789  0  1.036049  0  0  0.104708  0.117889  0  1.038873  0
H  H36  1  0.52011202  0.13854386  0.77880190  1  0  0.093795  0  0.957335  0  0  0.102945  0  1.021455  0  0  0.10637  0  1.018619  0  0  0.102405  0.100573  0  1.023303  0
H  H37  1  0.47988635  0.86145881  0.22119895  1  0  0.093792  0  0.957353  0  0  0.102944  0  1.021452  0  0  0.106365  0  1.018629  0  0  0.102403  0.100564  0  1.023328  0
H  H38  1  0.57058338  0.29695153  0.06875758  1  0  0.109477  0  0.963075  0  0  0.122669  0  1.017077  0  0  0.125594  0  1.016895  0  0  0.103411  0.120602  0  1.017369  0
H  H39  1  0.42941311  0.70305203  0.93123984  1  0  0.109522  0  0.963071  0  0  0.122711  0  1.017074  0  0  0.125636  0  1.01689  0  0  0.103248  0.12043  0  1.017415  0
H  H40  1  0.44673993  0.39853546  0.16951051  1  0  0.09608  0  0.956565  0  0  0.106861  0  1.015895  0  0  0.109466  0  1.01482  0  0  0.10379  0.104882  0  1.016788  0
H  H41  1  0.55326131  0.60146632  0.83049328  1  0  0.096064  0  0.95656  0  0  0.106891  0  1.015843  0  0  0.109495  0  1.014767  0  0  0.103681  0.104757  0  1.016751  0
H  H42  1  0.57626824  0.16282812  0.41898975  1  0  0.094347  0  0.957078  0  0  0.103234  0  1.023819  0  0  0.106052  0  1.021908  0  0  0.103489  0.101076  0  1.025343  0
H  H43  1  0.42373249  0.83717079  0.58100930  1  0  0.094301  0  0.957102  0  0  0.103173  0  1.023872  0  0  0.105988  0  1.021965  0  0  0.103402  0.100949  0  1.025428  0
H  H44  1  0.69709812  0.05479050  0.31629164  1  0  0.104186  0  0.942852  0  0  0.116677  0  1.001529  0  0  0.11996  0  1.000341  0  0  0.100957  0.114207  0  1.002551  0
H  H45  1  0.30290300  0.94521120  0.68370465  1  0  0.104128  0  0.942847  0  0  0.116635  0  1.001508  0  0  0.119919  0  1.000321  0  0  0.10093  0.114125  0  1.002612  0
H  H46  1  0.13056773  0.98852053  0.18998270  1  0  0.088777  0  0.947802  0  0  0.101796  0  1.002887  0  0  0.104216  0  1.003069  0  0  0.101002  0.100007  0  1.00287  0
H  H47  1  0.86943033  0.01148024  0.81001649  1  0  0.088723  0  0.947802  0  0  0.101743  0  1.002894  0  0  0.104163  0  1.003076  0  0  0.101025  0.100001  0  1.00289  0
H  H48  1  0.34977663  0.95651360  0.31890248  1  0  0.089938  0  0.980458  0  0  0.097561  0  1.04826  0  0  0.099997  0  1.047754  0  0  0.0989  0.095725  0  1.048861  0
H  H49  1  0.65022369  0.04348907  0.68109664  1  0  0.089947  0  0.980449  0  0  0.097559  0  1.048272  0  0  0.099992  0  1.04777  0  0  0.0989  0.09573  0  1.048866  0
C  C50  1  0.66273384  0.60781182  0.37170958  1  0  0.15083  0  3.693732  0  0  0.115771  0  3.956864  0  0  0.125461  0  3.971549  0  0  0.052822  0.109286  0  3.947185  0
C  C51  1  0.33726522  0.39218896  0.62829062  1  0  0.150945  0  3.693745  0  0  0.115894  0  3.956856  0  0  0.125584  0  3.971539  0  0  0.052893  0.109411  0  3.94716  0
C  C52  1  0.68039534  0.64780971  0.27888098  1  0  -0.16751  0  3.710102  0  0  -0.186226  0  3.96483  0  0  -0.193959  0  3.983728  0  0  -0.085796  -0.181558  0  3.952636  0
C  C53  1  0.31960443  0.35218920  0.72112006  1  0  -0.167638  0  3.710169  0  0  -0.186327  0  3.964914  0  0  -0.19406  0  3.983813  0  0  -0.085827  -0.181656  0  3.952696  0
C  C54  1  0.77164936  0.60064477  0.23891672  1  0  0.07623  0  3.713761  0  0  0.08158  0  3.946616  0  0  0.086571  0  3.967501  0  0  0.020783  0.078278  0  3.932692  0
C  C55  1  0.22834858  0.39935507  0.76108389  1  0  0.076412  0  3.713599  0  0  0.08169  0  3.94659  0  0  0.086678  0  3.967474  0  0  0.020811  0.078375  0  3.932641  0
C  C56  1  0.84272674  0.50780531  0.29470274  1  0  -0.006719  0  3.727057  0  0  0.005462  0  3.958621  0  0  0.001868  0  3.98187  0  0  0.00168  0.007228  0  3.943391  0
C  C57  1  0.15727514  0.49219456  0.70529739  1  0  -0.006699  0  3.726935  0  0  0.005453  0  3.958583  0  0  0.001868  0  3.981819  0  0  0.001672  0.007223  0  3.943332  0
C  C58  1  0.81479026  0.46960449  0.38619512  1  0  0.140791  0  3.744485  0  0  0.133816  0  3.983647  0  0  0.139041  0  4.006028  0  0  0.117902  0.130604  0  3.968062  0
C  C59  1  0.18520963  0.53039535  0.61380450  1  0  0.140735  0  3.744475  0  0  0.13378  0  3.983661  0  0  0.139002  0  4.006041  0  0  0.117881  0.130584  0  3.968023  0
C  C60  1  0.87940279  0.37059396  0.44097077  1  0  0.136268  0  3.749191  0  0  0.129079  0  3.98773  0  0  0.133926  0  4.009585  0  0  0.116491  0.126511  0  3.972101  0
C  C61  1  0.12059824  0.62940684  0.55902919  1  0  0.136239  0  3.74924  0  0  0.129021  0  3.987814  0  0  0.133867  0  4.009669  0  0  0.116438  0.126441  0  3.972108  0
C  C62  1  0.90814708  0.24493307  0.57884674  1  0  0.159449  0  3.709844  0  0  0.125166  0  3.968758  0  0  0.134479  0  3.985357  0  0  0.055881  0.119605  0  3.957057  0
C  C63  1  0.09185395  0.75506773  0.42115321  1  0  0.159509  0  3.709786  0  0  0.12517  0  3.968718  0  0  0.134483  0  3.985315  0  0  0.055898  0.119608  0  3.957093  0
C  C64  1  0.99403002  0.17943041  0.54445449  1  0  -0.166659  0  3.72027  0  0  -0.188929  0  3.978754  0  0  -0.196427  0  3.99963  0  0  -0.086927  -0.18468  0  3.96583  0
C  C65  1  0.00597216  0.82057135  0.45554656  1  0  -0.166591  0  3.720168  0  0  -0.188821  0  3.978696  0  0  -0.196318  0  3.999571  0  0  -0.08687  -0.184608  0  3.965825  0
C  C66  1  0.02448946  0.21007754  0.45476166  1  0  0.072964  0  3.717919  0  0  0.077655  0  3.950949  0  0  0.082041  0  3.9716  0  0  0.017091  0.074576  0  3.937214  0
C  C67  1  0.97551172  0.78992420  0.54523838  1  0  0.072968  0  3.717797  0  0  0.077543  0  3.950931  0  0  0.081927  0  3.971583  0  0  0.017009  0.074455  0  3.937177  0
C  C68  1  0.96975726  0.31273949  0.40277460  1  0  -0.002542  0  3.739036  0  0  0.007785  0  3.971565  0  0  0.005338  0  3.994722  0  0  0.001131  0.009784  0  3.955667  0
C  C69  1  0.03024280  0.68726131  0.59722585  1  0  -0.002545  0  3.739037  0  0  0.007826  0  3.971587  0  0  0.00538  0  3.994749  0  0  0.00112  0.009811  0  3.955638  0
C  C70  1  0.00585636  0.36358699  0.31814339  1  0  -0.116854  0  3.752976  0  0  -0.140074  0  4.014351  0  0  -0.144024  0  4.035346  0  0  -0.09237  -0.137927  0  4.000743  0
C  C71  1  0.99414552  0.63641288  0.68185674  1  0  -0.116772  0  3.752989  0  0  -0.139973  0  4.014355  0  0  -0.143945  0  4.035343  0  0  -0.092332  -0.137837  0  4.000718  0
C  C72  1  0.94466121  0.45667692  0.26623979  1  0  -0.082877  0  3.727787  0  0  -0.109052  0  3.986037  0  0  -0.110095  0  4.006148  0  0  -0.082774  -0.107933  0  3.972642  0
C  C73  1  0.05533983  0.54332388  0.73376017  1  0  -0.082959  0  3.72778  0  0  -0.109093  0  3.986037  0  0  -0.11014  0  4.006153  0  0  -0.082806  -0.10799  0  3.972647  0
C  C74  1  0.79078990  0.64638573  0.14214710  1  0  0.038496  0  3.778261  0  0  0.056596  0  4.005888  0  0  0.054699  0  4.030423  0  0  -0.010806  0.057915  0  3.989252  0
C  C75  1  0.20920574  0.35361219  0.85785209  1  0  0.038471  0  3.778279  0  0  0.056581  0  4.005952  0  0  0.054684  0  4.030489  0  0  -0.010797  0.057927  0  3.98932  0
C  C76  1  0.78904032  0.56236681  0.05653861  1  0  -0.108569  0  3.729281  0  0  -0.125606  0  3.967768  0  0  -0.127729  0  3.988709  0  0  -0.08803  -0.124279  0  3.953609  0
C  C77  1  0.21095745  0.43763208  0.94346117  1  0  -0.108446  0  3.729248  0  0  -0.12548  0  3.967699  0  0  -0.127604  0  3.988643  0  0  -0.087899  -0.124103  0  3.953547  0
C  C78  1  0.80198972  0.60694178  0.96417217  1  0  -0.068511  0  3.749188  0  0  -0.078804  0  3.995422  0  0  -0.080738  0  4.01525  0  0  -0.087824  -0.077338  0  3.982139  0
C  C79  1  0.19800977  0.39305525  0.03582946  1  0  -0.068489  0  3.74932  0  0  -0.078765  0  3.995537  0  0  -0.080705  0  4.015373  0  0  -0.087796  -0.077318  0  3.982342  0
C  C80  1  0.81707639  0.73654112  0.95589284  1  0  -0.056904  0  3.756243  0  0  -0.072175  0  4.0052  0  0  -0.07381  0  4.026445  0  0  -0.084444  -0.070977  0  3.990861  0
C  C81  1  0.18292136  0.26345775  0.04410544  1  0  -0.05698  0  3.756355  0  0  -0.072276  0  4.005321  0  0  -0.073911  0  4.026567  0  0  -0.084514  -0.071156  0  3.991072  0
C  C82  1  0.82020223  0.82116687  0.04055708  1  0  -0.070798  0  3.781661  0  0  -0.082456  0  4.030214  0  0  -0.084827  0  4.052668  0  0  -0.093362  -0.080726  0  4.014528  0
C  C83  1  0.17979411  0.17882917  0.95944220  1  0  -0.070798  0  3.781658  0  0  -0.082429  0  4.030177  0  0  -0.0848  0  4.052629  0  0  -0.093356  -0.080703  0  4.014496  0
C  C84  1  0.80656778  0.77654299  0.13275566  1  0  -0.109487  0  3.736849  0  0  -0.128158  0  3.981184  0  0  -0.130644  0  4.003078  0  0  -0.089742  -0.12622  0  3.965728  0
C  C85  1  0.19342585  0.22345489  0.86724152  1  0  -0.109417  0  3.736968  0  0  -0.128153  0  3.981302  0  0  -0.130639  0  4.003197  0  0  -0.089708  -0.1262  0  3.965827  0
C  C86  1  0.11161697  0.13851274  0.41630986  1  0  0.035107  0  3.792259  0  0  0.055561  0  4.017772  0  0  0.053919  0  4.041669  0  0  -0.010784  0.056617  0  4.001676  0
C  C87  1  0.88838407  0.86148807  0.58369085  1  0  0.035054  0  3.792279  0  0  0.055588  0  4.017744  0  0  0.053944  0  4.041647  0  0  -0.010751  0.05667  0  4.001628  0
C  C88  1  0.23255912  0.11427012  0.48867861  1  0  -0.096138  0  3.729274  0  0  -0.117077  0  3.971835  0  0  -0.118833  0  3.993104  0  0  -0.085015  -0.115575  0  3.957513  0
C  C89  1  0.76744191  0.88573067  0.51132059  1  0  -0.096108  0  3.729309  0  0  -0.117051  0  3.971831  0  0  -0.118808  0  3.993097  0  0  -0.085017  -0.115553  0  3.957524  0
C  C90  1  0.31841263  0.05093544  0.45353294  1  0  -0.053441  0  3.74693  0  0  -0.06687  0  3.996371  0  0  -0.068984  0  4.017817  0  0  -0.085919  -0.065334  0  3.981686  0
C  C91  1  0.68158755  0.94906629  0.54646685  1  0  -0.053547  0  3.746955  0  0  -0.066958  0  3.996412  0  0  -0.069063  0  4.017851  0  0  -0.086023  -0.065468  0  3.981718  0
C  C92  1  0.07540872  0.09203927  0.30822314  1  0  -0.119642  0  3.744037  0  0  -0.13799  0  3.98663  0  0  -0.140047  0  4.006584  0  0  -0.090873  -0.136197  0  3.972699  0
C  C93  1  0.92459119  0.90796058  0.69177723  1  0  -0.119644  0  3.74402  0  0  -0.138009  0  3.986592  0  0  -0.140075  0  4.006546  0  0  -0.090878  -0.136222  0  3.972648  0
C  C94  1  0.72032699  0.30071205  0.75352986  1  0  0.613355  0  3.972427  0  0  0.567331  0  4.261219  0  0  0.601441  0  4.255714  0  0  0.185832  0.544292  0  4.263856  0
C  C95  1  0.27967207  0.69928874  0.24647034  1  0  0.613449  0  3.972256  0  0  0.567417  0  4.261073  0  0  0.60153  0  4.255563  0  0  0.185859  0.544406  0  4.263738  0
C  C96  1  0.72098935  0.23918823  0.85111511  1  0  -0.072961  0  3.769458  0  0  -0.052141  0  4.000563  0  0  -0.061106  0  4.024034  0  0  -0.022336  -0.046547  0  3.984896  0
C  C97  1  0.27900973  0.76081257  0.14888584  1  0  -0.073028  0  3.769377  0  0  -0.052241  0  4.00053  0  0  -0.061205  0  4.023999  0  0  -0.022361  -0.046696  0  3.98491  0
C  C98  1  0.83432788  0.26468226  0.94369328  1  0  -0.048389  0  3.741415  0  0  -0.068587  0  3.986196  0  0  -0.067155  0  4.006357  0  0  -0.079362  -0.069158  0  3.972299  0
C  C99  1  0.16567514  0.73531857  0.05630719  1  0  -0.048254  0  3.74136  0  0  -0.068416  0  3.986152  0  0  -0.066988  0  4.006317  0  0  -0.079409  -0.069045  0  3.972226  0
C  C100  1  0.83130901  0.21754391  0.03772711  1  0  -0.185068  0  3.753478  0  0  -0.207207  0  4.00658  0  0  -0.212651  0  4.026133  0  0  -0.099765  -0.203496  0  3.993044  0
C  C101  1  0.16869020  0.78245782  0.96227317  1  0  -0.185152  0  3.753484  0  0  -0.207296  0  4.006567  0  0  -0.212745  0  4.026115  0  0  -0.099802  -0.203637  0  3.992988  0
C  C102  1  0.71367880  0.14536816  0.03840199  1  0  0.259758  0  3.804654  0  0  0.25196  0  4.067509  0  0  0.262055  0  4.08296  0  0  0.07931  0.245285  0  4.056697  0
C  C103  1  0.28632267  0.85463547  0.96159821  1  0  0.259774  0  3.804664  0  0  0.252002  0  4.067455  0  0  0.262102  0  4.082903  0  0  0.079368  0.245411  0  4.056586  0
C  C104  1  0.60170038  0.11396378  0.94563318  1  0  -0.180776  0  3.756568  0  0  -0.201862  0  4.008158  0  0  -0.207564  0  4.028013  0  0  -0.099374  -0.198119  0  3.994322  0
C  C105  1  0.39829799  0.88603888  0.05436768  1  0  -0.180833  0  3.756578  0  0  -0.201929  0  4.00816  0  0  -0.207632  0  4.028012  0  0  -0.099255  -0.198083  0  3.994347  0
C  C106  1  0.60637814  0.16077195  0.85213288  1  0  -0.053091  0  3.755644  0  0  -0.073649  0  4.001187  0  0  -0.072294  0  4.021156  0  0  -0.083366  -0.074187  0  3.987443  0
C  C107  1  0.39362236  0.83923168  0.14786856  1  0  -0.053029  0  3.755586  0  0  -0.073573  0  4.001127  0  0  -0.072218  0  4.021093  0  0  -0.083335  -0.07409  0  3.987484  0
C  C108  1  0.63913159  0.16770320  0.18596457  1  0  0.281546  0  3.781758  0  0  0.27148  0  4.045648  0  0  0.283473  0  4.06072  0  0  0.083313  0.263358  0  4.03581  0
C  C109  1  0.36086788  0.83230040  0.81403437  1  0  0.281311  0  3.781797  0  0  0.271265  0  4.045655  0  0  0.28326  0  4.06073  0  0  0.083114  0.263017  0  4.035813  0
C  C110  1  0.57038660  0.26551032  0.14444434  1  0  -0.205907  0  3.761937  0  0  -0.225  0  4.012953  0  0  -0.232376  0  4.033758  0  0  -0.109664  -0.220434  0  3.999391  0
C  C111  1  0.42961371  0.73449234  0.85555402  1  0  -0.205883  0  3.762081  0  0  -0.224992  0  4.013099  0  0  -0.232365  0  4.033903  0  0  -0.109787  -0.220501  0  3.999538  0
C  C112  1  0.50052921  0.32238354  0.20097332  1  0  -0.029857  0  3.751773  0  0  -0.053579  0  4.000077  0  0  -0.049994  0  4.019129  0  0  -0.081848  -0.055658  0  3.987213  0
C  C113  1  0.49947115  0.67761915  0.79902804  1  0  -0.029812  0  3.751876  0  0  -0.053571  0  4.000176  0  0  -0.049986  0  4.019229  0  0  -0.081901  -0.05568  0  3.987278  0
C  C114  1  0.50064918  0.28547344  0.29938169  1  0  -0.097635  0  3.777172  0  0  -0.076244  0  4.014425  0  0  -0.086405  0  4.037518  0  0  -0.032068  -0.070204  0  3.999169  0
C  C115  1  0.49935239  0.71452453  0.70061752  1  0  -0.097597  0  3.777186  0  0  -0.076218  0  4.014438  0  0  -0.086379  0  4.03753  0  0  -0.032103  -0.070262  0  3.999208  0
C  C116  1  0.57281339  0.18921951  0.34093066  1  0  -0.04851  0  3.761784  0  0  -0.074103  0  4.016511  0  0  -0.07144  0  4.03645  0  0  -0.085587  -0.075321  0  4.003023  0
C  C117  1  0.42718637  0.81077939  0.65906963  1  0  -0.048613  0  3.761778  0  0  -0.074202  0  4.016524  0  0  -0.071542  0  4.036472  0  0  -0.085645  -0.075433  0  4.003079  0
C  C118  1  0.64041025  0.12928548  0.28436306  1  0  -0.186996  0  3.750073  0  0  -0.209196  0  4.010418  0  0  -0.215954  0  4.030423  0  0  -0.107982  -0.205187  0  3.997234  0
C  C119  1  0.35958945  0.87071340  0.71563348  1  0  -0.18673  0  3.749843  0  0  -0.208954  0  4.010167  0  0  -0.215707  0  4.030157  0  0  -0.107942  -0.20499  0  3.997086  0
C  C120  1  0.43302498  0.35400073  0.36220602  1  0  0.654132  0  3.916239  0  0  0.600116  0  4.210294  0  0  0.636159  0  4.203144  0  0  0.201073  0.575567  0  4.214492  0
C  C121  1  0.56697617  0.64599443  0.63779446  1  0  0.654119  0  3.916227  0  0  0.600145  0  4.210231  0  0  0.636187  0  4.203079  0  0  0.200953  0.575598  0  4.214406  0
C  C122  1  0.16027986  0.02594538  0.27361904  1  0  -0.069271  0  3.771278  0  0  -0.07974  0  4.016795  0  0  -0.082308  0  4.039044  0  0  -0.090308  -0.077968  0  4.001519  0
C  C123  1  0.83971820  0.97405538  0.72638015  1  0  -0.069208  0  3.771246  0  0  -0.079677  0  4.016766  0  0  -0.082246  0  4.039016  0  0  -0.090262  -0.077882  0  4.001489  0
C  C124  1  0.28296342  0.00703016  0.34593302  1  0  -0.059592  0  3.749884  0  0  -0.075965  0  4.000714  0  0  -0.077809  0  4.023105  0  0  -0.08601  -0.074663  0  3.985508  0
C  C125  1  0.71703676  0.99297157  0.65406602  1  0  -0.059537  0  3.750031  0  0  -0.075898  0  4.000824  0  0  -0.077742  0  4.023217  0  0  -0.085971  -0.074611  0  3.985597  0
N  N126  1  0.72871977  0.52187996  0.42456268  1  0  -0.372292  0  3.251842  0  0  -0.305781  0  3.521369  0  0  -0.326706  0  3.541144  0  0  -0.322285  -0.290965  0  3.507289  0
N  N127  1  0.27128097  0.47811896  0.57543712  1  0  -0.372371  0  3.252019  0  0  -0.305854  0  3.521536  0  0  -0.326782  0  3.541318  0  0  -0.322327  -0.291058  0  3.507448  0
N  N128  1  0.85025217  0.33571867  0.52734927  1  0  -0.369473  0  3.283818  0  0  -0.298791  0  3.549437  0  0  -0.319358  0  3.568777  0  0  -0.327026  -0.284829  0  3.535431  0
N  N129  1  0.14975002  0.66428309  0.47265177  1  0  -0.369475  0  3.283795  0  0  -0.298769  0  3.549424  0  0  -0.319334  0  3.568761  0  0  -0.327081  -0.284868  0  3.535445  0
O  O130  1  0.61635513  0.27311742  0.66965095  1  0  -0.638022  0  1.942728  0  0  -0.577693  0  2.179661  0  0  -0.606467  0  2.17108  0  0  -0.336806  -0.557257  0  2.184611  0
O  O131  1  0.38364450  0.72688056  0.33035076  1  0  -0.638094  0  1.942634  0  0  -0.57776  0  2.179569  0  0  -0.606536  0  2.170988  0  0  -0.336832  -0.557328  0  2.184539  0
O  O132  1  0.82216633  0.37977011  0.75912031  1  0  -0.634838  0  1.965735  0  0  -0.577072  0  2.201519  0  0  -0.604299  0  2.193527  0  0  -0.327163  -0.557671  0  2.206051  0
O  O133  1  0.17783187  0.62023160  0.24087897  1  0  -0.634864  0  1.965651  0  0  -0.577103  0  2.201447  0  0  -0.604337  0  2.193467  0  0  -0.327113  -0.557645  0  2.20597  0
O  O134  1  0.71014530  0.10463462  0.13482539  1  0  -0.31689  0  2.318224  0  0  -0.250323  0  2.547165  0  0  -0.267342  0  2.547814  0  0  -0.163675  -0.238419  0  2.546088  0
O  O135  1  0.28985403  0.89536804  0.86517347  1  0  -0.316863  0  2.318297  0  0  -0.25027  0  2.547172  0  0  -0.267296  0  2.547823  0  0  -0.163684  -0.238409  0  2.54611  0
O  O136  1  0.47692292  0.35748411  0.46325054  1  0  -0.659427  0  2.079615  0  0  -0.589221  0  2.339407  0  0  -0.618565  0  2.32781  0  0  -0.33048  -0.568525  0  2.346603  0
O  O137  1  0.52307849  0.64250634  0.53674904  1  0  -0.659421  0  2.079504  0  0  -0.589253  0  2.339278  0  0  -0.618588  0  2.327678  0  0  -0.330495  -0.568674  0  2.34659  0
O  O138  1  0.33539005  0.40886132  0.31160353  1  0  -0.625591  0  1.97294  0  0  -0.556478  0  2.220372  0  0  -0.586373  0  2.210422  0  0  -0.323534  -0.535546  0  2.226862  0
O  O139  1  0.66460901  0.59113290  0.68839861  1  0  -0.625553  0  1.972881  0  0  -0.556445  0  2.220299  0  0  -0.586344  0  2.210351  0  0  -0.323478  -0.535523  0  2.226781  0
