# generated using pymatgen
data_Mn3H16C8(Cl3O2)2
_symmetry_space_group_name_H-M   'P 1'
_cell_length_a   9.04613118
_cell_length_b   9.04613900
_cell_length_c   12.25041246
_cell_angle_alpha   84.44545141
_cell_angle_beta   84.44540477
_cell_angle_gamma   59.95788396
_symmetry_Int_Tables_number   1
_chemical_formula_structural   Mn3H16C8(Cl3O2)2
_chemical_formula_sum   'Mn6 H32 C16 Cl12 O8'
_cell_volume   862.37166868
_cell_formula_units_Z   2
loop_
 _symmetry_equiv_pos_site_id
 _symmetry_equiv_pos_as_xyz
  1  'x, y, z'
loop_
 _atom_site_type_symbol
 _atom_site_label
 _atom_site_symmetry_multiplicity
 _atom_site_fract_x
 _atom_site_fract_y
 _atom_site_fract_z
 _atom_site_occupancy
 _atom_site_hle17_ddec_charge
 _atom_site_hle17_ddec_spin_density
 _atom_site_hle17_ddec_sum_bond_order
 _atom_site_hle17_magmom
 _atom_site_hse06_10hf_ddec_charge
 _atom_site_hse06_10hf_ddec_spin_density
 _atom_site_hse06_10hf_ddec_sum_bond_order
 _atom_site_hse06_10hf_magmom
 _atom_site_hse06_ddec_charge
 _atom_site_hse06_ddec_spin_density
 _atom_site_hse06_ddec_sum_bond_order
 _atom_site_hse06_magmom
 _atom_site_pbe_cm5_charge
 _atom_site_pbe_ddec_charge
 _atom_site_pbe_ddec_spin_density
 _atom_site_pbe_ddec_sum_bond_order
 _atom_site_pbe_magmom
Mn  Mn0  1  0.08765313  0.91234659  0.75000031  1  0.911791  4.761908  2.081325  4.636  0.800577  4.692678  2.547064  4.508  0.859386  4.738226  2.490727  4.575  0.329688  0.753303  4.650652  2.587527  4.448
Mn  Mn1  1  0.91234706  0.08765299  0.24999975  1  0.911778  4.761906  2.081336  4.636  0.800566  4.692678  2.547073  4.508  0.859373  4.738224  2.490739  4.575  0.329687  0.753285  4.65065  2.587555  4.448
Mn  Mn2  1  0.00321334  0.79884662  0.49756178  1  0.960226  4.771982  2.060121  4.651  0.817797  4.70238  2.544832  4.523  0.877658  4.743643  2.485059  4.585  0.417601  0.769393  4.663883  2.588559  4.465
Mn  Mn3  1  0.20115370  0.99678834  0.00243803  1  0.960223  4.771982  2.060105  4.651  0.817805  4.702382  2.544815  4.523  0.877671  4.743646  2.48504  4.585  0.417587  0.7694  4.663886  2.588547  4.465
Mn  Mn4  1  0.99678843  0.20115424  0.50243807  1  0.960237  4.771978  2.060071  4.651  0.817813  4.702383  2.544784  4.523  0.877682  4.743643  2.485008  4.585  0.41759  0.769405  4.663885  2.588517  4.465
Mn  Mn5  1  0.79884586  0.00321253  0.99756199  1  0.960213  4.77198  2.060133  4.651  0.817793  4.70238  2.544838  4.523  0.877657  4.743642  2.485066  4.585  0.417596  0.769387  4.663883  2.588569  4.465
H  H6  1  0.12630721  0.45934334  0.26880729  1  0.050399  0.000458  0.912679  0.001  0.05899  0.001203  0.982485  0.001  0.060173  0.000772  0.979291  0.001  0.108529  0.05791  0.00165  0.985158  0.001
H  H7  1  0.54065709  0.87369128  0.23119424  1  0.050411  0.000461  0.912672  0.001  0.059011  0.001203  0.982455  0.001  0.060192  0.000771  0.979256  0.001  0.108536  0.057929  0.00165  0.985126  0.001
H  H8  1  0.87369472  0.54065497  0.73119355  1  0.05039  0.00046  0.912673  0.001  0.058979  0.001203  0.98248  0.001  0.060162  0.000772  0.979283  0.001  0.108525  0.057898  0.00165  0.985151  0.001
H  H9  1  0.45934309  0.12630831  0.76880582  1  0.050409  0.000462  0.912683  0.001  0.059005  0.001203  0.98248  0.001  0.060187  0.000771  0.979283  0.001  0.108539  0.057925  0.00165  0.985148  0.001
H  H10  1  0.94826620  0.54299719  0.37113325  1  0.068036  -0.000375  0.930928  0.0  0.072155  0.000258  1.007206  0.0  0.072883  -1.8e-05  1.004491  0.0  0.115967  0.071392  0.000533  1.009542  0.0
H  H11  1  0.45700214  0.05173409  0.12886885  1  0.068044  -0.000376  0.930912  0.0  0.072158  0.000258  1.007196  0.0  0.072886  -1.8e-05  1.004479  0.0  0.115969  0.071394  0.000533  1.009531  0.0
H  H12  1  0.05173510  0.45700239  0.62886755  1  0.068026  -0.000363  0.930914  0.0  0.072146  0.000258  1.007191  0.0  0.072873  -1.8e-05  1.004474  0.0  0.115959  0.071382  0.000533  1.009527  0.0
H  H13  1  0.54299694  0.94826549  0.87113128  1  0.068039  -0.000382  0.930926  0.0  0.072158  0.000258  1.007208  0.0  0.072886  -1.8e-05  1.004491  0.0  0.115967  0.071393  0.000533  1.009542  0.0
H  H14  1  0.36766194  0.19152977  0.30684386  1  0.055828  -0.000102  0.932418  0.0  0.066937  0.000295  1.006245  0.0  0.067482  8.3e-05  1.005406  0.0  0.096404  0.066386  0.000525  1.007127  0.001
H  H15  1  0.80847032  0.63233724  0.19315670  1  0.055813  -0.000102  0.932421  0.0  0.066922  0.000295  1.006251  0.0  0.067467  8.3e-05  1.005415  0.0  0.096392  0.066372  0.000525  1.007134  0.001
H  H16  1  0.63234046  0.80846982  0.69315686  1  0.055835  -0.000104  0.932417  0.0  0.066936  0.000295  1.006247  0.0  0.067481  8.3e-05  1.00541  0.0  0.096399  0.066385  0.000525  1.007128  0.001
H  H17  1  0.19152828  0.36766107  0.80684275  1  0.055823  -0.000105  0.932415  0.0  0.066923  0.000295  1.006254  0.0  0.06747  8.4e-05  1.005413  0.0  0.096391  0.066372  0.000525  1.007134  0.001
H  H18  1  0.37225847  0.08244417  0.43754466  1  0.073013  -8.8e-05  0.938594  0.0  0.087342  0.000396  1.00195  0.0  0.087656  0.000162  1.001828  0.0  0.10066  0.086954  0.000634  1.00227  0.0
H  H19  1  0.91755619  0.62774174  0.06245495  1  0.07303  -7.8e-05  0.938574  0.0  0.087361  0.000395  1.001929  0.0  0.087676  0.000162  1.001808  0.0  0.10067  0.086974  0.000633  1.002251  0.0
H  H20  1  0.62774204  0.91755925  0.56245510  1  0.073007  -7.8e-05  0.938601  0.0  0.087333  0.000396  1.001966  0.0  0.087648  0.000162  1.001843  0.0  0.100671  0.086945  0.000634  1.002285  0.0
H  H21  1  0.08243955  0.37225785  0.93754461  1  0.073015  -7.5e-05  0.93862  0.0  0.087339  0.000396  1.001992  0.0  0.087654  0.000162  1.001871  0.0  0.10068  0.086952  0.000634  1.002314  0.0
H  H22  1  0.38876425  0.30581783  0.53102059  1  0.088726  -9.5e-05  0.92732  0.0  0.10322  0.00028  0.991999  0.0  0.105011  0.000101  0.990481  0.0  0.088136  0.101728  0.000468  0.993424  0.0
H  H23  1  0.69418268  0.61123720  0.96897878  1  0.08871  -0.000109  0.927326  0.0  0.10321  0.00028  0.99201  0.0  0.105002  0.000101  0.990493  0.0  0.088125  0.101719  0.000468  0.993432  0.0
H  H24  1  0.61123466  0.69418431  0.46898019  1  0.088725  -9.2e-05  0.927323  0.0  0.103225  0.00028  0.991989  0.0  0.105015  0.000101  0.99047  0.0  0.088141  0.101736  0.000468  0.993413  0.0
H  H25  1  0.30581512  0.38876494  0.03101881  1  0.088726  -0.000105  0.927356  0.0  0.103236  0.00028  0.992012  0.0  0.105036  0.000101  0.99048  0.0  0.088149  0.10174  0.000468  0.993443  0.0
H  H26  1  0.55371323  0.23030363  0.42451564  1  0.09893  -0.000566  0.976338  0.0  0.112695  -0.000344  1.043405  0.0  0.113541  -0.000552  1.044213  0.0  0.087676  0.111957  -0.00012  1.043027  0.001
H  H27  1  0.76969597  0.44628762  0.07548397  1  0.098922  -0.00057  0.976326  0.0  0.1127  -0.000344  1.043405  0.0  0.113546  -0.000551  1.044214  0.0  0.087674  0.11196  -0.00012  1.043032  0.001
H  H28  1  0.44628855  0.76969723  0.57548584  1  0.098937  -0.000565  0.976283  0.0  0.112676  -0.000344  1.043398  0.0  0.113519  -0.000552  1.044205  0.0  0.087676  0.111937  -0.00012  1.04302  0.001
H  H29  1  0.23030136  0.55371325  0.92451375  1  0.098907  -0.000575  0.976296  0.0  0.112676  -0.000344  1.043383  0.0  0.113518  -0.000552  1.044192  0.0  0.08767  0.111938  -0.00012  1.043003  0.001
H  H30  1  0.37881200  0.55870635  0.42497947  1  0.07473  -7.7e-05  0.937584  0.0  0.087425  0.000465  1.00256  0.0  0.0879  0.000203  1.002278  0.0  0.100438  0.08688  0.000731  1.003099  0.0
H  H31  1  0.44129272  0.62118937  0.07502028  1  0.074752  -6.6e-05  0.937583  0.0  0.087438  0.000465  1.00255  0.0  0.087914  0.000203  1.002267  0.0  0.100436  0.086893  0.000731  1.00309  0.0
H  H32  1  0.62118929  0.44129324  0.57502051  1  0.074749  -7.9e-05  0.937592  0.0  0.087442  0.000465  1.002555  0.0  0.08792  0.000203  1.002269  0.0  0.100445  0.086896  0.000731  1.003094  0.0
H  H33  1  0.55870397  0.37881277  0.92498147  1  0.074765  -6.7e-05  0.937561  0.0  0.08742  0.000465  1.002558  0.0  0.087897  0.000203  1.002273  0.0  0.100431  0.086875  0.000731  1.003097  0.0
H  H34  1  0.37388011  0.47639520  0.29908004  1  0.059443  9.9e-05  0.924861  0.0  0.072331  0.000609  0.993333  0.0  0.073138  0.000348  0.992079  0.0  0.097528  0.071552  0.000889  0.994592  0.001
H  H35  1  0.52360452  0.62611916  0.20091979  1  0.059498  0.000102  0.924914  0.0  0.072375  0.000609  0.993376  0.0  0.073183  0.000347  0.992122  0.0  0.097549  0.071598  0.000888  0.994632  0.001
H  H36  1  0.62612182  0.52360310  0.70091916  1  0.059455  8.4e-05  0.924918  0.0  0.072317  0.000609  0.993405  0.0  0.073125  0.000347  0.992149  0.0  0.09752  0.071539  0.000888  0.99466  0.001
H  H37  1  0.47639741  0.37387914  0.79908105  1  0.059511  8.9e-05  0.924955  0.0  0.072382  0.000609  0.993408  0.0  0.07319  0.000347  0.992154  0.0  0.097543  0.071601  0.000888  0.994667  0.001
C  C38  1  0.08742358  0.47318102  0.35715514  1  0.273376  0.003573  3.60378  0.005  0.193429  0.005842  3.878474  0.006  0.209926  0.004314  3.877301  0.005  0.025694  0.181733  0.007317  3.879445  0.007
C  C39  1  0.52682051  0.91257446  0.14284636  1  0.273357  0.003551  3.603774  0.005  0.193421  0.005841  3.878476  0.006  0.209935  0.004318  3.877298  0.005  0.025696  0.181729  0.007317  3.879437  0.007
C  C40  1  0.91257597  0.52681984  0.64284488  1  0.273439  0.003545  3.603736  0.005  0.193493  0.005841  3.878444  0.006  0.210012  0.004316  3.877268  0.005  0.025706  0.181795  0.007317  3.879408  0.007
C  C41  1  0.47317967  0.08742512  0.85715370  1  0.273343  0.003565  3.60377  0.005  0.193393  0.005841  3.878487  0.006  0.209906  0.004319  3.877308  0.005  0.025689  0.181701  0.007317  3.879445  0.007
C  C42  1  0.33583490  0.20726588  0.39556311  1  0.10493  0.00189  3.571081  0.002  0.04118  0.003706  3.840588  0.003  0.049599  0.002707  3.845938  0.003  -0.074124  0.035286  0.004676  3.837082  0.004
C  C43  1  0.79273496  0.66416393  0.10443743  1  0.104941  0.001868  3.57102  0.002  0.041182  0.003705  3.840571  0.003  0.049602  0.002706  3.845921  0.003  -0.074112  0.035287  0.004676  3.837067  0.004
C  C44  1  0.66416624  0.79273626  0.60443751  1  0.104913  0.001877  3.571089  0.002  0.041151  0.003706  3.840626  0.003  0.049574  0.002708  3.845967  0.003  -0.074143  0.035257  0.004676  3.837119  0.004
C  C45  1  0.20726078  0.33583566  0.89556213  1  0.104902  0.001863  3.57103  0.002  0.041136  0.003706  3.840596  0.003  0.049551  0.002705  3.845945  0.003  -0.074121  0.035243  0.004676  3.83709  0.004
C  C46  1  0.41470897  0.29978658  0.44148368  1  -0.201232  0.000481  3.715732  0.001  -0.245298  0.001481  3.973954  0.002  -0.247687  0.000854  3.985119  0.001  -0.184586  -0.243462  0.002144  3.966427  0.002
C  C47  1  0.70021313  0.58529018  0.05851692  1  -0.20116  0.000522  3.715699  0.001  -0.245274  0.001481  3.973956  0.002  -0.247659  0.000852  3.985109  0.001  -0.184578  -0.24344  0.002144  3.966441  0.002
C  C48  1  0.58529169  0.70021429  0.55851789  1  -0.201188  0.00047  3.715725  0.001  -0.245233  0.001482  3.973908  0.002  -0.247617  0.00085  3.985068  0.001  -0.184581  -0.243403  0.002144  3.96639  0.002
C  C49  1  0.29978546  0.41470812  0.94148253  1  -0.20115  0.000525  3.715705  0.001  -0.245213  0.001481  3.97385  0.002  -0.247599  0.000854  3.985005  0.001  -0.184577  -0.243374  0.002144  3.966328  0.002
C  C50  1  0.33997928  0.47897811  0.38800183  1  0.101576  0.001978  3.574631  0.002  0.039452  0.003892  3.842964  0.003  0.047745  0.002842  3.848027  0.003  -0.073235  0.033644  0.00491  3.839622  0.004
C  C51  1  0.52102038  0.66002281  0.11199872  1  0.101421  0.001935  3.574765  0.002  0.039358  0.003892  3.843052  0.003  0.047654  0.002842  3.848135  0.003  -0.073255  0.033551  0.004909  3.83971  0.004
C  C52  1  0.66002202  0.52102147  0.61199815  1  0.101529  0.001999  3.574745  0.002  0.039447  0.003891  3.843029  0.003  0.047748  0.002843  3.848104  0.003  -0.073236  0.033635  0.00491  3.839684  0.004
C  C53  1  0.47897806  0.33997805  0.88800137  1  0.101401  0.001959  3.574791  0.002  0.039361  0.003892  3.843049  0.003  0.047654  0.002842  3.848124  0.003  -0.073245  0.033555  0.004909  3.839704  0.004
Cl  Cl54  1  0.84246006  0.06276510  0.61315605  1  -0.504791  0.110726  1.198181  0.066  -0.445881  0.145537  1.515952  0.079  -0.472875  0.127125  1.490333  0.066  -0.180484  -0.42383  0.162397  1.533378  0.091
Cl  Cl55  1  0.93723532  0.15754039  0.88684403  1  -0.504804  0.110726  1.198201  0.066  -0.445894  0.145539  1.515973  0.079  -0.472879  0.127127  1.490335  0.066  -0.180487  -0.423839  0.162399  1.5334  0.091
Cl  Cl56  1  0.15753997  0.93723704  0.38684384  1  -0.504805  0.110726  1.198205  0.066  -0.44589  0.145539  1.515965  0.079  -0.47288  0.127126  1.490341  0.066  -0.180488  -0.423834  0.162398  1.533394  0.091
Cl  Cl57  1  0.06276423  0.84246047  0.11315598  1  -0.50479  0.110726  1.198192  0.066  -0.445884  0.145538  1.515968  0.079  -0.472871  0.127126  1.490336  0.066  -0.180478  -0.423828  0.162398  1.533398  0.091
Cl  Cl58  1  0.34230956  0.78170115  0.86304623  1  -0.517159  0.08945  1.107295  0.057  -0.459829  0.111252  1.416512  0.062  -0.486202  0.095323  1.392538  0.05  -0.219113  -0.438449  0.125946  1.432924  0.073
Cl  Cl59  1  0.21829967  0.65768988  0.63695422  1  -0.517155  0.089452  1.107279  0.057  -0.459826  0.111251  1.416503  0.062  -0.486198  0.095323  1.392531  0.05  -0.21912  -0.438446  0.125945  1.432913  0.073
Cl  Cl60  1  0.65768999  0.21829972  0.13695378  1  -0.517147  0.089451  1.107285  0.057  -0.459823  0.111251  1.416516  0.062  -0.486193  0.095322  1.392541  0.05  -0.219114  -0.438438  0.125945  1.432932  0.073
Cl  Cl61  1  0.78170052  0.34230971  0.36304584  1  -0.517157  0.08945  1.107282  0.057  -0.459832  0.111251  1.416514  0.062  -0.486204  0.095322  1.392542  0.05  -0.219113  -0.438448  0.125945  1.43293  0.073
Cl  Cl62  1  0.20706436  0.08590869  0.64348652  1  -0.521587  0.086096  1.106299  0.055  -0.466707  0.106457  1.415654  0.06  -0.492872  0.091013  1.391917  0.048  -0.223602  -0.445374  0.120771  1.431751  0.071
Cl  Cl63  1  0.91408968  0.79293616  0.85651388  1  -0.521574  0.086093  1.106294  0.055  -0.466703  0.106457  1.415654  0.06  -0.492869  0.091013  1.391919  0.048  -0.223608  -0.445364  0.120771  1.431741  0.071
Cl  Cl64  1  0.79293583  0.91409090  0.35651436  1  -0.521573  0.086095  1.106296  0.055  -0.466702  0.106457  1.415661  0.06  -0.492867  0.091012  1.391927  0.048  -0.223606  -0.445364  0.12077  1.431755  0.071
Cl  Cl65  1  0.08590876  0.20706470  0.14348621  1  -0.521573  0.086094  1.106297  0.055  -0.466705  0.106458  1.415672  0.06  -0.492872  0.091013  1.391939  0.048  -0.223599  -0.445362  0.12077  1.431767  0.071
O  O66  1  0.15347541  0.56551271  0.40262357  1  -0.357841  0.026855  2.376356  0.017  -0.265837  0.035062  2.633799  0.024  -0.289184  0.031011  2.633345  0.02  -0.223896  -0.248442  0.038803  2.633443  0.027
O  O67  1  0.43448754  0.84652452  0.09737707  1  -0.357792  0.026871  2.376365  0.017  -0.265821  0.03506  2.633809  0.024  -0.289201  0.031011  2.633382  0.02  -0.223893  -0.248427  0.038803  2.633454  0.027
O  O68  1  0.84652700  0.43448688  0.59737714  1  -0.357833  0.026861  2.376369  0.017  -0.265848  0.035061  2.633805  0.024  -0.289246  0.031012  2.633391  0.02  -0.223879  -0.24844  0.038803  2.633438  0.027
O  O69  1  0.56551264  0.15347506  0.90262298  1  -0.357778  0.026865  2.37639  0.017  -0.265802  0.03506  2.633823  0.024  -0.289182  0.031011  2.633397  0.02  -0.223881  -0.248408  0.038803  2.633463  0.027
O  O70  1  0.14971753  0.30807767  0.41102990  1  -0.362493  0.026763  2.378203  0.016  -0.269683  0.034888  2.637336  0.023  -0.29358  0.030952  2.637527  0.02  -0.224422  -0.25191  0.038514  2.636551  0.026
O  O71  1  0.69192339  0.85028235  0.08896981  1  -0.362536  0.026778  2.378226  0.016  -0.269707  0.03489  2.637322  0.023  -0.293605  0.030951  2.637506  0.02  -0.224442  -0.251935  0.038515  2.636533  0.026
O  O72  1  0.85028424  0.69192319  0.58896914  1  -0.362585  0.026775  2.378279  0.016  -0.269745  0.034889  2.637365  0.023  -0.293644  0.030955  2.637545  0.02  -0.224439  -0.251974  0.038516  2.63658  0.026
O  O73  1  0.30807568  0.14971723  0.91102951  1  -0.362496  0.026777  2.378166  0.016  -0.269681  0.03489  2.637296  0.023  -0.293579  0.030952  2.637484  0.02  -0.224474  -0.25191  0.038515  2.636507  0.026
