# generated using pymatgen
data_Cu3H34C36(NO3)4
_symmetry_space_group_name_H-M   'P 1'
_cell_length_a   5.56142014
_cell_length_b   8.97953831
_cell_length_c   18.56941088
_cell_angle_alpha   77.10433482
_cell_angle_beta   81.57041185
_cell_angle_gamma   82.79502788
_symmetry_Int_Tables_number   1
_chemical_formula_structural   Cu3H34C36(NO3)4
_chemical_formula_sum   'Cu3 H34 C36 N4 O12'
_cell_volume   890.04069323
_cell_formula_units_Z   1
loop_
 _symmetry_equiv_pos_site_id
 _symmetry_equiv_pos_as_xyz
  1  'x, y, z'
loop_
 _atom_site_type_symbol
 _atom_site_label
 _atom_site_symmetry_multiplicity
 _atom_site_fract_x
 _atom_site_fract_y
 _atom_site_fract_z
 _atom_site_occupancy
 _atom_site_hle17_ddec_charge
 _atom_site_hle17_ddec_spin_density
 _atom_site_hle17_ddec_sum_bond_order
 _atom_site_hle17_magmom
 _atom_site_hse06_10hf_ddec_charge
 _atom_site_hse06_10hf_ddec_spin_density
 _atom_site_hse06_10hf_ddec_sum_bond_order
 _atom_site_hse06_10hf_magmom
 _atom_site_hse06_ddec_charge
 _atom_site_hse06_ddec_spin_density
 _atom_site_hse06_ddec_sum_bond_order
 _atom_site_hse06_magmom
 _atom_site_pbe_cm5_charge
 _atom_site_pbe_ddec_charge
 _atom_site_pbe_ddec_spin_density
 _atom_site_pbe_ddec_sum_bond_order
 _atom_site_pbe_magmom
Cu  Cu0  1  0.98132007  0.58378968  0.41820348  1  0.956068  -0.640359  1.768239  -0.471  0.95653  -0.778238  2.15465  -0.63  1.053046  -0.878471  2.082327  -0.73  0.701802  0.888237  -0.637954  2.211396  -0.51
Cu  Cu1  1  0.01595344  0.41652791  0.58149306  1  0.951155  0.66372  1.762085  0.498  0.951412  0.780949  2.147616  0.641  1.048407  0.857616  2.074645  0.731  0.701146  0.885518  0.692472  2.20281  0.554
Cu  Cu2  1  0.50051725  0.49916977  0.50034665  1  1.023879  0.645472  1.740613  0.481  1.035067  0.774647  2.133376  0.632  1.12992  0.856862  2.062354  0.726  0.689749  0.967142  0.680988  2.195648  0.542
H  H3  1  0.91125057  0.76060186  0.26874886  1  0.092414  -0.000605  0.980873  -0.001  0.097518  -0.000588  1.047344  -0.001  0.099621  -0.000411  1.046783  -0.001  0.118372  0.095787  -0.000668  1.047968  -0.001
H  H4  1  0.08871412  0.23935885  0.73077361  1  0.091691  0.000627  0.979979  0.001  0.097642  0.000598  1.04568  0.001  0.099668  0.000414  1.045217  0.001  0.118432  0.095978  0.000722  1.046214  0.002
H  H5  1  0.12196666  0.78921790  0.13991850  1  0.124061  -0.0003  0.94292  0.0  0.133542  -0.000325  1.001067  0.0  0.137297  -0.000238  0.999446  0.0  0.112851  0.13059  -0.000364  1.002794  0.0
H  H6  1  0.87945781  0.21127786  0.85979088  1  0.124635  0.000299  0.943311  0.0  0.134032  0.000327  1.00152  0.0  0.137783  0.000234  0.999903  0.0  0.112988  0.131154  0.000382  1.003167  0.0
H  H7  1  0.71835447  0.47798541  0.23001461  1  0.113329  -0.000348  0.950094  0.0  0.121525  -0.000355  1.01257  0.0  0.124264  -0.000255  1.013189  0.0  0.108905  0.119382  -0.000391  1.012641  0.0
H  H8  1  0.28183725  0.52198638  0.77009912  1  0.113248  0.000373  0.950721  0.0  0.121607  0.000374  1.01297  0.0  0.124331  0.000261  1.013602  0.0  0.108862  0.119495  0.000431  1.013006  0.0
H  H9  1  0.47862859  0.45443988  0.35342579  1  0.102205  -0.000376  0.98013  -0.001  0.105282  -0.000271  1.050338  -0.001  0.10886  -0.000238  1.046359  -0.001  0.11852  0.102291  -0.00024  1.053415  -0.001
H  H10  1  0.52011348  0.54514161  0.64650965  1  0.101955  -1.5e-05  0.980356  0.001  0.104797  -5.4e-05  1.050972  0.001  0.108356  -0.000135  1.046896  0.001  0.118619  0.101866  7.3e-05  1.054015  0.001
H  H11  1  0.19398950  0.33098898  0.46303876  1  0.400389  -0.00021  0.915815  -0.001  0.371803  0.000678  0.98837  0.001  0.387862  0.000571  0.966575  0.001  0.27352  0.360308  0.00077  1.003865  0.001
H  H12  1  0.80639897  0.67079270  0.53691223  1  0.403704  -9e-06  0.915656  0.0  0.374636  0.000504  0.985489  0.001  0.390548  0.000405  0.963794  0.001  0.273727  0.363406  0.000589  1.000716  0.001
H  H13  1  0.46623315  0.70806832  0.93346480  1  0.071885  4e-06  0.929949  0.0  0.085697  2e-06  0.996709  0.0  0.0858  2e-06  0.996981  0.0  0.106646  0.085444  2e-06  0.99655  0.0
H  H14  1  0.53469409  0.29184851  0.06659352  1  0.071615  -2.7e-05  0.930887  0.0  0.085627  -1e-05  0.997604  0.0  0.085708  -8e-06  0.997872  0.0  0.106657  0.08547  -1e-05  0.997363  0.0
H  H15  1  0.75400592  0.71337325  0.96466184  1  0.090916  2e-06  0.937311  0.0  0.105703  1e-06  0.997584  0.0  0.107708  0.0  0.995169  0.0  0.11721  0.104182  1e-06  0.999254  0.0
H  H16  1  0.24692563  0.28667793  0.03538654  1  0.090775  -4e-06  0.936766  0.0  0.105858  -1e-06  0.996922  0.0  0.107775  -1e-06  0.994606  0.0  0.117219  0.104352  -1e-06  0.998568  0.0
H  H17  1  0.85743230  0.43574579  0.96755780  1  0.077479  5e-06  0.924362  0.0  0.091938  2e-06  0.988717  0.0  0.092931  2e-06  0.987997  0.0  0.106788  0.090963  3e-06  0.989537  0.0
H  H18  1  0.14359011  0.56430797  0.03253094  1  0.077335  -4e-06  0.924497  0.0  0.091443  -2e-06  0.989257  0.0  0.092433  -2e-06  0.988531  0.0  0.106365  0.090459  -2e-06  0.990072  0.0
H  H19  1  0.75877893  0.52332755  0.88009956  1  0.082833  -2.6e-05  0.94232  0.0  0.101586  -1.4e-05  0.998751  0.0  0.101239  -1.5e-05  1.000583  0.0  0.115621  0.101553  -1.4e-05  0.997894  0.0
H  H20  1  0.24247314  0.47665076  0.11994512  1  0.083271  2.9e-05  0.942798  0.0  0.101625  1.7e-05  0.999361  0.0  0.101288  1.6e-05  1.001142  0.0  0.115983  0.101691  1.8e-05  0.99844  0.0
H  H21  1  0.26808733  0.91623949  0.32948862  1  0.120707  -0.000556  0.928935  -0.001  0.1337  -0.000395  0.990385  0.0  0.135325  -0.000272  0.991273  0.0  0.105431  0.13253  -0.000438  0.98984  -0.001
H  H22  1  0.73059899  0.08457564  0.67059378  1  0.120991  -0.000148  0.92839  0.0  0.133833  0.000172  0.990255  0.0  0.135506  8.5e-05  0.991115  0.0  0.105778  0.132603  0.000213  0.989771  0.0
H  H23  1  0.32649135  0.00886387  0.39780169  1  0.142359  -0.000474  0.948775  -0.001  0.152312  -0.000265  1.010401  0.0  0.155755  -0.000185  1.008689  0.0  0.111354  0.149767  -0.000256  1.011619  0.0
H  H24  1  0.67335922  0.99126934  0.60237815  1  0.142705  -0.000352  0.948835  0.0  0.15306  -6.7e-05  1.010194  0.0  0.15666  -8.9e-05  1.008369  0.0  0.111677  0.150534  6.3e-05  1.011323  0.0
H  H25  1  0.47874084  0.96086703  0.20816872  1  0.084571  -6.1e-05  0.967559  0.0  0.094002  6e-06  1.033013  0.0  0.095991  -3e-06  1.033766  0.0  0.092812  0.092733  1.6e-05  1.032442  0.0
H  H26  1  0.52025957  0.03943446  0.79200766  1  0.084204  -5.5e-05  0.967864  0.0  0.093588  3e-06  1.0334  0.0  0.095574  4e-06  1.034157  0.0  0.092532  0.092359  5e-06  1.032764  0.0
H  H27  1  0.80632141  0.07543938  0.11377938  1  0.086295  3.3e-05  0.948401  0.0  0.099559  6e-06  1.002742  0.0  0.103265  4e-06  1.000188  0.0  0.096257  0.097176  1.3e-05  1.004154  0.0
H  H28  1  0.19280821  0.92445224  0.88633772  1  0.086585  1.5e-05  0.947635  0.0  0.09971  4e-06  1.002121  0.0  0.103404  2e-06  0.999578  0.0  0.096389  0.09747  1e-05  1.003382  0.0
H  H29  1  0.11143390  0.21527010  0.15320736  1  0.071772  -5.1e-05  0.989858  0.0  0.085182  1.6e-05  1.051491  0.0  0.087347  9e-06  1.051152  0.0  0.090361  0.083743  2.3e-05  1.051581  0.0
H  H30  1  0.88811748  0.78451183  0.84679996  1  0.07215  -4.7e-05  0.990513  0.0  0.085629  1.5e-05  1.052066  0.0  0.087691  8e-06  1.051851  0.0  0.090576  0.08432  2.1e-05  1.052015  0.0
H  H31  1  0.08401941  0.23826873  0.28402862  1  0.094951  2.1e-05  0.952799  0.0  0.107126  -1.4e-05  1.010408  0.0  0.109557  -9e-06  1.010202  0.0  0.099709  0.105197  -1.4e-05  1.011039  0.0
H  H32  1  0.91622205  0.76119655  0.71601888  1  0.09434  2e-06  0.953789  0.0  0.106916  3e-06  1.010828  0.0  0.109336  4e-06  1.010692  0.0  0.099651  0.104962  2e-06  1.011453  0.0
H  H33  1  0.83967504  0.00283769  0.43290657  1  0.128753  5.2e-05  0.926242  0.0  0.141077  2.5e-05  0.987574  0.0  0.144105  2.9e-05  0.985626  0.0  0.103862  0.138913  5.3e-05  0.989322  0.0
H  H34  1  0.16303497  0.99634251  0.56691516  1  0.129583  3.7e-05  0.92605  0.0  0.141356  -2.1e-05  0.987848  0.0  0.144279  -2.4e-05  0.986028  0.0  0.104304  0.139308  4.4e-05  0.989507  0.0
H  H35  1  0.57543398  0.13571421  0.42786675  1  0.125923  1.3e-05  0.928139  0.0  0.14164  1.9e-05  0.982896  0.0  0.144054  6e-06  0.981738  0.0  0.106666  0.139823  4.9e-05  0.983971  0.0
H  H36  1  0.42598025  0.86245450  0.57263535  1  0.12628  1.9e-05  0.927696  0.0  0.141865  1.3e-05  0.982522  0.0  0.14418  -1e-05  0.981446  0.0  0.10716  0.140265  3.2e-05  0.983353  0.0
C  C37  1  0.08868927  0.69866886  0.25726584  1  0.130323  0.004077  3.68337  0.005  0.103166  0.00065  3.939663  0.001  0.11212  0.001578  3.957071  0.002  0.048296  0.097064  -2.1e-05  3.92877  0.0
C  C38  1  0.91129026  0.30128530  0.74238215  1  0.130049  -0.004334  3.682979  -0.005  0.102433  -0.000633  3.939011  -0.001  0.11151  -0.001625  3.956525  -0.002  0.048588  0.09624  0.000117  3.928102  0.0
C  C39  1  0.21097468  0.71633398  0.18556398  1  -0.148712  -0.006632  3.716576  -0.007  -0.168886  -0.003325  3.963566  -0.004  -0.175317  -0.003175  3.981428  -0.004  -0.08143  -0.165064  -0.003162  3.952657  -0.004
C  C40  1  0.78987642  0.28398279  0.81420121  1  -0.148513  0.006662  3.716386  0.007  -0.168718  0.0033  3.96326  0.004  -0.175109  0.003085  3.981044  0.004  -0.081564  -0.16486  0.003317  3.952161  0.004
C  C41  1  0.44210771  0.63749110  0.17399431  1  0.006502  0.005397  3.779375  0.006  0.023942  0.00237  4.014026  0.003  0.02584  0.002537  4.031479  0.003  0.006333  0.022159  0.002135  4.002952  0.002
C  C42  1  0.55870600  0.36272491  0.82592889  1  0.006583  -0.005703  3.779044  -0.006  0.024547  -0.002398  4.013092  -0.003  0.026456  -0.002597  4.030511  -0.003  0.00719  0.022937  -0.002174  4.001849  -0.002
C  C43  1  0.53970252  0.54279580  0.23541556  1  -0.128577  -0.006525  3.687641  -0.007  -0.146553  -0.00328  3.928385  -0.004  -0.153568  -0.003172  3.94858  -0.004  -0.075533  -0.142531  -0.003134  3.916294  -0.004
C  C44  1  0.46042047  0.45716635  0.76456552  1  -0.128859  0.006495  3.689589  0.007  -0.146995  0.003226  3.930009  0.004  -0.153943  0.003074  3.950154  0.004  -0.075602  -0.143034  0.003186  3.917844  0.004
C  C45  1  0.40350340  0.52861314  0.30537998  1  0.14096  0.00448  3.639764  0.005  0.113985  0.001133  3.892139  0.002  0.12305  0.001921  3.909139  0.003  0.051346  0.107661  0.000537  3.881735  0.001
C  C46  1  0.59579383  0.47114730  0.69449777  1  0.140029  -0.005134  3.639066  -0.005  0.113168  -0.001425  3.891415  -0.002  0.122276  -0.002279  3.908595  -0.003  0.05057  0.106818  -0.00069  3.880935  -0.001
C  C47  1  0.58431510  0.66261221  0.09771103  1  0.48512  -0.000303  3.844112  -0.001  0.436837  -0.000115  4.134733  0.0  0.465881  -7.4e-05  4.133025  0.0  0.242642  0.41742  -0.000146  4.135285  0.0
C  C48  1  0.41673122  0.33753898  0.90228206  1  0.486851  0.000293  3.841665  0.001  0.438112  0.00011  4.133073  0.0  0.467154  6.4e-05  4.131368  0.0  0.24271  0.418565  0.000147  4.133726  0.0
C  C49  1  0.60513212  0.64203427  0.96784577  1  -0.020209  -4.8e-05  3.655316  0.0  -0.082807  -2e-06  3.919607  0.0  -0.078107  0.0  3.92976  0.0  -0.05814  -0.085744  -3e-06  3.912666  0.0
C  C50  1  0.39585389  0.35794813  0.03220765  1  -0.019258  1.5e-05  3.654152  0.0  -0.082499  -4e-06  3.919155  0.0  -0.077718  -4e-06  3.929292  0.0  -0.057919  -0.085432  -2e-06  3.912037  0.0
C  C51  1  0.69914338  0.49503087  0.93997983  1  -0.018331  -5.7e-05  3.656069  0.0  -0.083971  -3e-05  3.925452  0.0  -0.079958  -3.7e-05  3.937398  0.0  -0.057805  -0.086587  -2.7e-05  3.91749  0.0
C  C52  1  0.30192026  0.50497809  0.06006832  1  -0.018155  6e-05  3.657402  0.0  -0.083191  3.9e-05  3.926528  0.0  -0.079165  3.9e-05  3.938409  0.0  -0.057711  -0.085793  3.3e-05  3.918469  0.0
C  C53  1  0.53414431  0.79234666  0.39680643  1  0.721166  -0.000532  3.7735  -0.001  0.686013  -5.4e-05  4.070871  -0.001  0.726909  -0.00028  4.062851  -0.001  0.225757  0.657734  0.000159  4.075563  -0.001
C  C54  1  0.46418827  0.20743383  0.60312246  1  0.721386  -0.004866  3.772024  -0.01  0.687043  0.000502  4.068618  -0.003  0.728254  -0.000226  4.060434  -0.003  0.226948  0.658553  0.001139  4.073331  -0.003
C  C55  1  0.41678633  0.94391534  0.35580328  1  -0.319357  -0.000999  3.682476  -0.001  -0.359787  -0.000154  3.915664  0.0  -0.369289  -3.9e-05  3.924815  0.0  -0.160742  -0.353293  -0.000275  3.909607  -0.001
C  C56  1  0.58237929  0.05637013  0.64426191  1  -0.318046  0.014152  3.681051  0.016  -0.359389  0.009524  3.914658  0.011  -0.369222  0.006779  3.924006  0.008  -0.160326  -0.352718  0.010089  3.908409  0.011
C  C57  1  0.59694352  0.03240915  0.29930199  1  0.071815  0.00032  3.716209  0.001  0.087647  0.00032  3.950053  0.001  0.088654  8.5e-05  3.973742  0.0  -0.011724  0.08704  0.000775  3.934131  0.001
C  C58  1  0.40248951  0.96768176  0.70082247  1  0.071724  0.000333  3.716555  0.0  0.088013  0.000752  3.950398  0.001  0.088995  0.0004  3.974203  0.0  -0.011398  0.087432  0.001185  3.934415  0.001
C  C59  1  0.61040399  0.02393794  0.22435948  1  -0.124251  0.002372  3.764131  0.002  -0.144076  0.000918  4.015042  0.001  -0.146883  0.000651  4.036903  0.001  -0.098683  -0.142035  0.001057  3.999936  0.001
C  C60  1  0.38877606  0.97627077  0.77577210  1  -0.124518  0.002371  3.763465  0.002  -0.144477  0.0008  4.014531  0.001  -0.147307  0.000527  4.036455  0.001  -0.098546  -0.14237  0.000985  3.99926  0.001
C  C61  1  0.79302285  0.08948713  0.17115757  1  -0.095788  -0.001536  3.842646  -0.002  -0.111379  -0.00036  4.101075  0.0  -0.113465  -0.00033  4.122476  0.0  -0.108999  -0.10958  -0.000286  4.085889  0.0
C  C62  1  0.20620296  0.91050914  0.82894226  1  -0.095081  -0.001078  3.840608  -0.001  -0.110711  -0.000136  4.099358  0.0  -0.11284  -0.000176  4.120823  0.0  -0.108578  -0.108839  -5.9e-05  4.083889  0.0
C  C63  1  0.96288396  0.16699609  0.19314878  1  -0.100084  0.00312  3.845977  0.003  -0.118225  0.000909  4.105194  0.001  -0.12033  0.000592  4.127957  0.001  -0.112253  -0.11627  0.001129  4.08898  0.001
C  C64  1  0.03661121  0.83286853  0.80690485  1  -0.100139  0.002957  3.846725  0.003  -0.118747  0.000875  4.106263  0.001  -0.120816  0.000552  4.129157  0.001  -0.112505  -0.116707  0.001099  4.08978  0.001
C  C65  1  0.94829996  0.17878120  0.26742192  1  -0.126766  -0.001866  3.759664  -0.002  -0.144442  -0.000415  4.009996  0.0  -0.147556  -0.000357  4.032029  0.0  -0.097521  -0.142392  -0.000384  3.995199  0.0
C  C66  1  0.05153253  0.82088204  0.73266059  1  -0.126548  -0.001189  3.759863  -0.001  -0.144202  -0.000114  4.010007  0.0  -0.147353  -0.000165  4.031978  0.0  -0.09744  -0.142187  -9e-06  3.995331  0.0
C  C67  1  0.76793420  0.11172737  0.32153421  1  0.093807  0.002681  3.666486  0.003  0.105644  0.000837  3.901563  0.001  0.105803  0.000571  3.925563  0.001  -0.000485  0.105201  0.000922  3.885865  0.001
C  C68  1  0.23200272  0.88796834  0.67859612  1  0.094008  0.002711  3.668218  0.003  0.105285  0.000904  3.903665  0.001  0.105445  0.000591  3.927667  0.001  -0.000518  0.104714  0.000968  3.888066  0.001
C  C69  1  0.76517879  0.11507070  0.40278288  1  -0.318084  0.001805  3.659866  0.002  -0.357301  0.000672  3.893423  0.001  -0.36364  0.000274  3.900279  0.0  -0.163964  -0.352955  0.001279  3.889517  0.001
C  C70  1  0.23606780  0.88405577  0.59737768  1  -0.317858  0.001849  3.659957  0.002  -0.357181  0.000596  3.894342  0.001  -0.363458  0.000179  3.901247  0.0  -0.163862  -0.352643  0.001339  3.889998  0.002
C  C71  1  0.90628342  0.24044155  0.41490985  1  0.722542  -0.000573  3.818888  -0.001  0.681903  3.6e-05  4.117573  0.0  0.717324  1.9e-05  4.108035  0.0  0.209622  0.657538  0.000147  4.122471  0.0
C  C72  1  0.09357713  0.75928778  0.58541087  1  0.721987  -0.001113  3.8173  -0.002  0.68132  -0.000468  4.116969  -0.001  0.716753  -0.000354  4.10765  -0.001  0.20891  0.657003  -0.00038  4.121191  -0.001
N  N73  1  0.18211539  0.60622104  0.31642776  1  -0.303635  -0.055343  3.293205  -0.07  -0.256831  -0.043846  3.584576  -0.06  -0.285642  -0.037645  3.603205  -0.053  -0.340704  -0.238658  -0.042677  3.573956  -0.057
N  N74  1  0.81700459  0.39338476  0.68327976  1  -0.302151  0.055692  3.296622  0.072  -0.255099  0.043863  3.587936  0.061  -0.284441  0.03677  3.607016  0.054  -0.340332  -0.236962  0.044998  3.577203  0.06
N  N75  1  0.49565627  0.60739204  0.04519376  1  -0.210803  4.3e-05  3.394397  0.0  -0.12407  1.4e-05  3.633723  0.0  -0.145212  2e-05  3.654661  0.0  -0.279149  -0.109901  1.5e-05  3.619173  0.0
N  N76  1  0.50543280  0.39258132  0.95483719  1  -0.211482  -3.6e-05  3.392657  0.0  -0.125017  -1.6e-05  3.633219  0.0  -0.146164  -1.8e-05  3.65411  0.0  -0.279431  -0.110765  -1e-05  3.618685  0.0
O  O77  1  0.39337414  0.70669589  0.44358886  1  -0.606508  0.071122  2.112855  0.097  -0.587301  0.05178  2.409732  0.076  -0.629119  0.041004  2.397334  0.063  -0.314209  -0.557724  0.056346  2.417948  0.08
O  O78  1  0.60574096  0.29360041  0.55671867  1  -0.606729  0.065125  2.12125  0.092  -0.58922  0.046633  2.420583  0.072  -0.632685  0.036039  2.408518  0.059  -0.313788  -0.557595  0.050664  2.428093  0.075
O  O79  1  0.76292339  0.76242695  0.37997715  1  -0.604711  -0.061561  2.148174  -0.083  -0.576193  -0.043201  2.436302  -0.064  -0.618101  -0.034647  2.424819  -0.053  -0.313895  -0.546096  -0.042454  2.44414  -0.061
O  O80  1  0.23521801  0.23683076  0.61906601  1  -0.604431  0.05731  2.148177  0.081  -0.575193  0.041147  2.435407  0.063  -0.616474  0.031748  2.423091  0.051  -0.314188  -0.546241  0.043254  2.444183  0.063
O  O81  1  0.81050535  0.37804302  0.39821532  1  -0.697478  0.005486  2.036209  0.008  -0.669663  0.002344  2.315814  0.003  -0.700236  0.001377  2.299694  0.002  -0.341801  -0.645361  0.003797  2.325803  0.006
O  O82  1  0.18754493  0.62134449  0.60232245  1  -0.693605  0.003753  2.031931  0.008  -0.666979  0.000218  2.31175  0.002  -0.697915  -0.001161  2.295989  0.0  -0.34014  -0.642048  0.002961  2.321203  0.006
O  O83  1  0.11200290  0.20018561  0.44013959  1  -0.614256  0.007676  1.947441  0.011  -0.55687  0.003468  2.163215  0.005  -0.582372  0.001667  2.151487  0.003  -0.31764  -0.538544  0.005136  2.170402  0.008
O  O84  1  0.88811096  0.80065117  0.56013304  1  -0.611514  0.00699  1.94783  0.01  -0.555543  0.003015  2.163852  0.004  -0.581646  0.001424  2.152556  0.002  -0.315456  -0.536104  0.004103  2.170242  0.006
O  O85  1  0.76693751  0.73595978  0.08423773  1  -0.541758  0.000247  1.893647  0.0  -0.507258  0.00019  2.104013  0.0  -0.527881  0.000192  2.097886  0.0  -0.304868  -0.492814  0.000156  2.10745  0.0
O  O86  1  0.23408795  0.26426238  0.91568019  1  -0.542377  -0.000266  1.892516  0.0  -0.50769  -0.000188  2.103216  0.0  -0.528317  -0.000195  2.097089  0.0  -0.304878  -0.493179  -0.000149  2.106647  0.0
O  O87  1  0.20573505  0.43538690  0.47866943  1  -0.869044  0.10105  2.077859  0.138  -0.884659  0.061962  2.436728  0.091  -0.966129  0.046617  2.412488  0.072  -0.576529  -0.827863  0.071141  2.454601  0.1
O  O88  1  0.79454174  0.56721304  0.52067425  1  -0.884249  0.056353  2.084239  0.08  -0.893363  0.039297  2.439268  0.059  -0.971917  0.032013  2.414177  0.05  -0.583157  -0.840164  0.045083  2.458287  0.065
