# generated using pymatgen
data_TbH3C12(NO4)3
_symmetry_space_group_name_H-M   'P 1'
_cell_length_a   9.48196968
_cell_length_b   9.48191822
_cell_length_c   9.48195282
_cell_angle_alpha   92.04248612
_cell_angle_beta   92.03997005
_cell_angle_gamma   92.04197821
_symmetry_Int_Tables_number   1
_chemical_formula_structural   TbH3C12(NO4)3
_chemical_formula_sum   'Tb2 H6 C24 N6 O24'
_cell_volume   850.83352525
_cell_formula_units_Z   2
loop_
 _symmetry_equiv_pos_site_id
 _symmetry_equiv_pos_as_xyz
  1  'x, y, z'
loop_
 _atom_site_type_symbol
 _atom_site_label
 _atom_site_symmetry_multiplicity
 _atom_site_fract_x
 _atom_site_fract_y
 _atom_site_fract_z
 _atom_site_occupancy
 _atom_site_hle17_bader_spin_density
 _atom_site_hle17_ddec_charge
 _atom_site_hle17_ddec_spin_density
 _atom_site_hle17_ddec_sum_bond_order
 _atom_site_hle17_magmom
 _atom_site_hse06_10hf_bader_spin_density
 _atom_site_hse06_10hf_ddec_charge
 _atom_site_hse06_10hf_ddec_spin_density
 _atom_site_hse06_10hf_ddec_sum_bond_order
 _atom_site_hse06_10hf_magmom
 _atom_site_hse06_bader_spin_density
 _atom_site_hse06_ddec_charge
 _atom_site_hse06_ddec_spin_density
 _atom_site_hse06_ddec_sum_bond_order
 _atom_site_hse06_magmom
 _atom_site_pbe_bader_spin_density
 _atom_site_pbe_cm5_charge
 _atom_site_pbe_ddec_charge
 _atom_site_pbe_ddec_spin_density
 _atom_site_pbe_ddec_sum_bond_order
 _atom_site_pbe_magmom
Tb  Tb0  1  0.31771718  0.31770848  0.31772163  1  0  2.114431  0  1.793819  0  0  1.921067  0  2.32623  0  0  1.97185  0  2.283638  0  0  1.562069  1.883284  0  2.358553  0
Tb  Tb1  1  0.68228092  0.68229118  0.68228481  1  0  2.114456  0  1.793723  0  0  1.921049  0  2.326189  0  0  1.971827  0  2.283601  0  0  1.562079  1.883414  0  2.358254  0
H  H2  1  0.48475007  0.16916043  0.84226353  1  0  0.387805  0  0.931105  0  0  0.354474  0  1.006727  0  0  0.367604  0  0.989037  0  0  0.299195  0.345401  0  1.018904  0
H  H3  1  0.84226379  0.48475291  0.16913914  1  0  0.387874  0  0.930831  0  0  0.354441  0  1.006755  0  0  0.36757  0  0.989067  0  0  0.299193  0.34537  0  1.018929  0
H  H4  1  0.16915804  0.84226128  0.48474928  1  0  0.387831  0  0.930972  0  0  0.354481  0  1.006697  0  0  0.36761  0  0.989008  0  0  0.299186  0.345409  0  1.018873  0
H  H5  1  0.51526390  0.83084808  0.15774207  1  0  0.38779  0  0.930993  0  0  0.354436  0  1.00675  0  0  0.367564  0  0.989063  0  0  0.299152  0.345364  0  1.018926  0
H  H6  1  0.15773825  0.51523822  0.83085987  1  0  0.387898  0  0.930835  0  0  0.354514  0  1.006662  0  0  0.367643  0  0.988973  0  0  0.299188  0.345441  0  1.018839  0
H  H7  1  0.83083852  0.15774310  0.51523819  1  0  0.387758  0  0.931035  0  0  0.354384  0  1.006837  0  0  0.367514  0  0.989149  0  0  0.299189  0.345312  0  1.019013  0
C  C8  1  0.45236127  0.11078334  0.57825496  1  0  0.100876  0  3.621411  0  0  0.095005  0  3.872204  0  0  0.097144  0  3.883999  0  0  0.15529  0.093101  0  3.864757  0
C  C9  1  0.57825002  0.45235987  0.11078665  1  0  0.101056  0  3.621336  0  0  0.095101  0  3.872214  0  0  0.097242  0  3.884014  0  0  0.155337  0.093179  0  3.864797  0
C  C10  1  0.11078099  0.57825011  0.45235464  1  0  0.100934  0  3.621395  0  0  0.095066  0  3.872157  0  0  0.097209  0  3.883954  0  0  0.155292  0.093137  0  3.864748  0
C  C11  1  0.54763996  0.88921743  0.42175045  1  0  0.101032  0  3.621309  0  0  0.095108  0  3.872145  0  0  0.097245  0  3.883939  0  0  0.155413  0.093207  0  3.864696  0
C  C12  1  0.42174924  0.54763888  0.88922401  1  0  0.101112  0  3.621381  0  0  0.095137  0  3.872285  0  0  0.097272  0  3.884085  0  0  0.155367  0.093221  0  3.864864  0
C  C13  1  0.88920355  0.42175041  0.54761897  1  0  0.101116  0  3.621579  0  0  0.095127  0  3.872417  0  0  0.097278  0  3.884213  0  0  0.155341  0.093218  0  3.864976  0
C  C14  1  0.52816214  0.00295628  0.64260838  1  0  0.094843  0  3.618361  0  0  0.087932  0  3.869098  0  0  0.089603  0  3.881547  0  0  0.156045  0.086351  0  3.861179  0
C  C15  1  0.64260725  0.52816493  0.00295334  1  0  0.094766  0  3.618459  0  0  0.087872  0  3.869193  0  0  0.089544  0  3.881638  0  0  0.156049  0.086294  0  3.86128  0
C  C16  1  0.00295445  0.64261708  0.52815095  1  0  0.094835  0  3.618313  0  0  0.087879  0  3.869083  0  0  0.089549  0  3.881534  0  0  0.156065  0.086301  0  3.861165  0
C  C17  1  0.47183685  0.99704534  0.35739174  1  0  0.094725  0  3.618507  0  0  0.087816  0  3.869292  0  0  0.089488  0  3.881737  0  0  0.156018  0.086233  0  3.861372  0
C  C18  1  0.35739828  0.47183080  0.99705629  1  0  0.094798  0  3.618536  0  0  0.087903  0  3.86928  0  0  0.089578  0  3.881733  0  0  0.156094  0.086325  0  3.861357  0
C  C19  1  0.99704182  0.35740061  0.47182186  1  0  0.094902  0  3.618865  0  0  0.087974  0  3.869534  0  0  0.089644  0  3.881987  0  0  0.156193  0.086393  0  3.861608  0
C  C20  1  0.39383336  0.24276189  0.64784988  1  0  0.671549  0  3.847992  0  0  0.616149  0  4.156179  0  0  0.651498  0  4.144675  0  0  0.241674  0.592239  0  4.163325  0
C  C21  1  0.64784580  0.39383725  0.24276357  1  0  0.671565  0  3.847818  0  0  0.616225  0  4.155944  0  0  0.651565  0  4.144454  0  0  0.241708  0.592323  0  4.163089  0
C  C22  1  0.24277022  0.64784286  0.39384021  1  0  0.6715  0  3.848084  0  0  0.616202  0  4.156113  0  0  0.651534  0  4.144635  0  0  0.241642  0.592306  0  4.163242  0
C  C23  1  0.60617004  0.75723794  0.35215766  1  0  0.671631  0  3.847989  0  0  0.616292  0  4.156111  0  0  0.651642  0  4.144601  0  0  0.241702  0.592383  0  4.16326  0
C  C24  1  0.35214910  0.60615289  0.75724486  1  0  0.671404  0  3.848434  0  0  0.616084  0  4.156553  0  0  0.65143  0  4.145053  0  0  0.241656  0.592178  0  4.163699  0
C  C25  1  0.75722541  0.35216267  0.60615148  1  0  0.671226  0  3.848758  0  0  0.61599  0  4.156705  0  0  0.651322  0  4.145232  0  0  0.241581  0.592085  0  4.16385  0
C  C26  1  0.57559880  0.99002864  0.79737212  1  0  0.67422  0  3.785448  0  0  0.62053  0  4.088264  0  0  0.65558  0  4.076534  0  0  0.257976  0.596833  0  4.095711  0
C  C27  1  0.79737062  0.57559503  0.99001535  1  0  0.674126  0  3.785524  0  0  0.620477  0  4.088276  0  0  0.655526  0  4.076551  0  0  0.257945  0.59678  0  4.095724  0
C  C28  1  0.99002209  0.79737856  0.57559532  1  0  0.674146  0  3.785529  0  0  0.62049  0  4.088257  0  0  0.655538  0  4.076528  0  0  0.25795  0.596797  0  4.095698  0
C  C29  1  0.42440664  0.00997221  0.20263228  1  0  0.674182  0  3.785302  0  0  0.620475  0  4.088129  0  0  0.655526  0  4.076402  0  0  0.257972  0.596776  0  4.095573  0
C  C30  1  0.20263181  0.42439859  0.00999740  1  0  0.67411  0  3.785838  0  0  0.620481  0  4.088557  0  0  0.655525  0  4.076828  0  0  0.257824  0.596783  0  4.096005  0
C  C31  1  0.00997247  0.20263215  0.42439430  1  0  0.673821  0  3.785751  0  0  0.620381  0  4.088161  0  0  0.655418  0  4.076457  0  0  0.257929  0.596682  0  4.095604  0
N  N32  1  0.42734348  0.10327401  0.43858568  1  0  -0.319938  0  3.255463  0  0  -0.280974  0  3.514387  0  0  -0.288609  0  3.529761  0  0  -0.32969  -0.275474  0  3.504166  0
N  N33  1  0.43858882  0.42734057  0.10328310  1  0  -0.320036  0  3.255793  0  0  -0.281047  0  3.514738  0  0  -0.288687  0  3.530117  0  0  -0.329638  -0.275539  0  3.504517  0
N  N34  1  0.10327279  0.43858850  0.42733585  1  0  -0.320004  0  3.25587  0  0  -0.281079  0  3.51484  0  0  -0.28871  0  3.53021  0  0  -0.329695  -0.275572  0  3.504624  0
N  N35  1  0.57265552  0.89672447  0.56141547  1  0  -0.320006  0  3.255461  0  0  -0.281026  0  3.514409  0  0  -0.288659  0  3.529781  0  0  -0.329677  -0.27554  0  3.504186  0
N  N36  1  0.56141465  0.57265724  0.89672759  1  0  -0.320094  0  3.255606  0  0  -0.281106  0  3.514581  0  0  -0.28874  0  3.529955  0  0  -0.329735  -0.275617  0  3.504363  0
N  N37  1  0.89671088  0.56142263  0.57264101  1  0  -0.31992  0  3.255567  0  0  -0.280923  0  3.514529  0  0  -0.288561  0  3.529902  0  0  -0.329594  -0.275434  0  3.504303  0
O  O38  1  0.34013633  0.32956397  0.56596565  1  0  -0.660885  0  2.056533  0  0  -0.616728  0  2.314557  0  0  -0.642126  0  2.306727  0  0  -0.369815  -0.598793  0  2.319266  0
O  O39  1  0.56596468  0.34015330  0.32957115  1  0  -0.660908  0  2.056683  0  0  -0.616741  0  2.314664  0  0  -0.64214  0  2.30685  0  0  -0.369777  -0.598788  0  2.319329  0
O  O40  1  0.32957982  0.56595179  0.34015626  1  0  -0.660884  0  2.056621  0  0  -0.616777  0  2.314617  0  0  -0.642166  0  2.306791  0  0  -0.369789  -0.598848  0  2.31934  0
O  O41  1  0.65985854  0.67043555  0.43403865  1  0  -0.660917  0  2.056582  0  0  -0.616782  0  2.314605  0  0  -0.642173  0  2.306766  0  0  -0.369822  -0.598883  0  2.319343  0
O  O42  1  0.43403869  0.65984023  0.67043739  1  0  -0.660882  0  2.056836  0  0  -0.616703  0  2.3148  0  0  -0.642108  0  2.306989  0  0  -0.369795  -0.598769  0  2.319456  0
O  O43  1  0.67042220  0.43404663  0.65983965  1  0  -0.66076  0  2.057032  0  0  -0.616635  0  2.314974  0  0  -0.642027  0  2.307156  0  0  -0.369721  -0.598709  0  2.319641  0
O  O44  1  0.39973237  0.25824356  0.78143688  1  0  -0.549069  0  2.03099  0  0  -0.499785  0  2.248228  0  0  -0.525787  0  2.237898  0  0  -0.288684  -0.481704  0  2.254816  0
O  O45  1  0.78143696  0.39974043  0.25823975  1  0  -0.549094  0  2.03065  0  0  -0.499797  0  2.247993  0  0  -0.525797  0  2.237669  0  0  -0.288714  -0.481714  0  2.254574  0
O  O46  1  0.25825899  0.78143150  0.39973799  1  0  -0.549006  0  2.030923  0  0  -0.499788  0  2.248196  0  0  -0.525783  0  2.237872  0  0  -0.288664  -0.481707  0  2.254777  0
O  O47  1  0.60027939  0.74175747  0.21856757  1  0  -0.549117  0  2.030841  0  0  -0.499855  0  2.248114  0  0  -0.525857  0  2.237782  0  0  -0.288702  -0.481767  0  2.254701  0
O  O48  1  0.21856624  0.60024770  0.74176452  1  0  -0.548979  0  2.030909  0  0  -0.499742  0  2.248245  0  0  -0.525739  0  2.237914  0  0  -0.288687  -0.481663  0  2.254826  0
O  O49  1  0.74174731  0.21857442  0.60025802  1  0  -0.54896  0  2.031055  0  0  -0.499728  0  2.248302  0  0  -0.525724  0  2.23798  0  0  -0.288727  -0.481648  0  2.254886  0
O  O50  1  0.63630259  0.88050788  0.82993348  1  0  -0.618134  0  2.024899  0  0  -0.575391  0  2.266653  0  0  -0.598124  0  2.256093  0  0  -0.348981  -0.559536  0  2.273508  0
O  O51  1  0.82993322  0.63630474  0.88048693  1  0  -0.618098  0  2.024827  0  0  -0.575372  0  2.266574  0  0  -0.598108  0  2.256023  0  0  -0.348957  -0.559512  0  2.273425  0
O  O52  1  0.88050379  0.82994050  0.63630825  1  0  -0.618115  0  2.024757  0  0  -0.575399  0  2.26649  0  0  -0.598131  0  2.255932  0  0  -0.349002  -0.559544  0  2.273344  0
O  O53  1  0.36369121  0.11949369  0.17006977  1  0  -0.618152  0  2.024587  0  0  -0.57542  0  2.266349  0  0  -0.598154  0  2.255793  0  0  -0.349  -0.559544  0  2.273212  0
O  O54  1  0.17007216  0.36369606  0.11951535  1  0  -0.617964  0  2.025228  0  0  -0.575233  0  2.266953  0  0  -0.597967  0  2.256401  0  0  -0.348848  -0.559355  0  2.273817  0
O  O55  1  0.11950145  0.17005807  0.36368980  1  0  -0.618064  0  2.024982  0  0  -0.575411  0  2.2666  0  0  -0.59814  0  2.256052  0  0  -0.349038  -0.559532  0  2.273465  0
O  O56  1  0.55504039  0.09113166  0.88765494  1  0  -0.486068  0  2.079346  0  0  -0.441551  0  2.286368  0  0  -0.464046  0  2.269782  0  0  -0.293773  -0.426188  0  2.297455  0
O  O57  1  0.88765791  0.55503561  0.09110574  1  0  -0.486081  0  2.079367  0  0  -0.441509  0  2.286505  0  0  -0.464001  0  2.269916  0  0  -0.293788  -0.426146  0  2.297595  0
O  O58  1  0.09112224  0.88765663  0.55503413  1  0  -0.486109  0  2.079435  0  0  -0.441526  0  2.286431  0  0  -0.464021  0  2.269848  0  0  -0.293761  -0.426164  0  2.297517  0
O  O59  1  0.44497131  0.90887245  0.11234638  1  0  -0.485994  0  2.079344  0  0  -0.441413  0  2.28639  0  0  -0.46391  0  2.26981  0  0  -0.2937  -0.426051  0  2.297476  0
O  O60  1  0.11234648  0.44495687  0.90890175  1  0  -0.486242  0  2.079411  0  0  -0.441718  0  2.286518  0  0  -0.464213  0  2.269925  0  0  -0.293822  -0.426356  0  2.297614  0
O  O61  1  0.90886682  0.11234221  0.44495111  1  0  -0.48584  0  2.079374  0  0  -0.441384  0  2.286375  0  0  -0.463875  0  2.269801  0  0  -0.293722  -0.426019  0  2.29746  0
