# generated using pymatgen
data_Cu3H10C9I3N4
_symmetry_space_group_name_H-M   'P 1'
_cell_length_a   9.25821526
_cell_length_b   11.50923934
_cell_length_c   14.79860864
_cell_angle_alpha   89.99994002
_cell_angle_beta   95.15332520
_cell_angle_gamma   90.00002929
_symmetry_Int_Tables_number   1
_chemical_formula_structural   Cu3H10C9I3N4
_chemical_formula_sum   'Cu12 H40 C36 I12 N16'
_cell_volume   1570.49212076
_cell_formula_units_Z   4
loop_
 _symmetry_equiv_pos_site_id
 _symmetry_equiv_pos_as_xyz
  1  'x, y, z'
loop_
 _atom_site_type_symbol
 _atom_site_label
 _atom_site_symmetry_multiplicity
 _atom_site_fract_x
 _atom_site_fract_y
 _atom_site_fract_z
 _atom_site_occupancy
 _atom_site_pbe_bader_spin_density
 _atom_site_pbe_cm5_charge
 _atom_site_pbe_ddec_charge
 _atom_site_pbe_ddec_spin_density
 _atom_site_pbe_ddec_sum_bond_order
 _atom_site_pbe_magmom
Cu  Cu0  1  0.21683390  0.27992194  0.24588347  1  0  0.249715  0.105695  0  2.811134  0
Cu  Cu1  1  0.28316624  0.77992111  0.25411590  1  0  0.249665  0.105648  0  2.811178  0
Cu  Cu2  1  0.78316391  0.72007939  0.75411560  1  0  0.249705  0.105643  0  2.811212  0
Cu  Cu3  1  0.71683483  0.22007848  0.74588470  1  0  0.249711  0.105626  0  2.811294  0
Cu  Cu4  1  0.21227340  0.56621541  0.23482508  1  0  0.246088  0.125162  0  2.760925  0
Cu  Cu5  1  0.28772771  0.06621625  0.26517452  1  0  0.246069  0.125127  0  2.761031  0
Cu  Cu6  1  0.78772658  0.43378244  0.76517479  1  0  0.246121  0.125222  0  2.761017  0
Cu  Cu7  1  0.71227228  0.93378421  0.73482602  1  0  0.246077  0.125132  0  2.76104  0
Cu  Cu8  1  0.45807125  0.41904673  0.25637779  1  0  0.271436  0.245288  0  2.735058  0
Cu  Cu9  1  0.04193763  0.91904668  0.24362127  1  0  0.271456  0.245307  0  2.735175  0
Cu  Cu10  1  0.54193089  0.58095199  0.74362017  1  0  0.271416  0.245317  0  2.735029  0
Cu  Cu11  1  0.95806561  0.08095378  0.75637945  1  0  0.271487  0.245394  0  2.735008  0
H  H12  1  0.74545693  0.36448177  0.48883270  1  0  0.091458  0.11158  0  1.042972  0
H  H13  1  0.75454483  0.86448213  0.01116751  1  0  0.091468  0.111567  0  1.042975  0
H  H14  1  0.25454414  0.63551695  0.51116790  1  0  0.091479  0.111588  0  1.042933  0
H  H15  1  0.24545625  0.13551833  0.98883309  1  0  0.091476  0.111576  0  1.042925  0
H  H16  1  0.67729609  0.56558451  0.52823126  1  0  0.078047  0.089615  0  1.062576  0
H  H17  1  0.82270473  0.06558508  0.97176793  1  0  0.078041  0.08961  0  1.062569  0
H  H18  1  0.32270281  0.43441421  0.47176855  1  0  0.078043  0.089608  0  1.062556  0
H  H19  1  0.17729416  0.93441624  0.02823121  1  0  0.078026  0.089597  0  1.062597  0
H  H20  1  0.78830410  0.73566272  0.46262247  1  0  0.092687  0.096429  0  1.026317  0
H  H21  1  0.71169433  0.23566296  0.03737632  1  0  0.092712  0.096496  0  1.026229  0
H  H22  1  0.21169155  0.26433687  0.53737717  1  0  0.092711  0.096487  0  1.026235  0
H  H23  1  0.28830349  0.76433837  0.96262411  1  0  0.092681  0.096432  0  1.02628  0
H  H24  1  0.97662837  0.71413143  0.35104610  1  0  0.088888  0.098797  0  1.075868  0
H  H25  1  0.52337112  0.21413058  0.14895208  1  0  0.088875  0.098813  0  1.07591  0
H  H26  1  0.02336944  0.28586989  0.64895365  1  0  0.088886  0.098791  0  1.075909  0
H  H27  1  0.47662452  0.78586988  0.85104688  1  0  0.088883  0.09881  0  1.075938  0
H  H28  1  0.85285149  0.18006398  0.33364357  1  0  0.106014  0.134902  0  0.983047  0
H  H29  1  0.64715126  0.68006234  0.16635618  1  0  0.106002  0.134895  0  0.983023  0
H  H30  1  0.14715282  0.81993648  0.66635451  1  0  0.10601  0.134925  0  0.983004  0
H  H31  1  0.35284766  0.31993725  0.83364566  1  0  0.105992  0.134864  0  0.983079  0
H  H32  1  0.91686629  0.20198630  0.45064701  1  0  0.099604  0.13172  0  1.019418  0
H  H33  1  0.58313430  0.70198827  0.04935260  1  0  0.099617  0.131703  0  1.019462  0
H  H34  1  0.08313043  0.79801242  0.54935134  1  0  0.099608  0.131717  0  1.019434  0
H  H35  1  0.41687003  0.29801306  0.95064885  1  0  0.099623  0.131728  0  1.019481  0
H  H36  1  0.04147405  0.16309568  0.36947117  1  0  0.095818  0.113534  0  1.063736  0
H  H37  1  0.45852819  0.66309596  0.13052909  1  0  0.095832  0.113516  0  1.063762  0
H  H38  1  0.95852703  0.83690565  0.63053079  1  0  0.095827  0.113543  0  1.063716  0
H  H39  1  0.54147286  0.33690537  0.86946949  1  0  0.095795  0.113494  0  1.063759  0
H  H40  1  0.93634874  0.34788756  0.12434828  1  0  0.092897  0.154699  0  1.043546  0
H  H41  1  0.56366166  0.84788735  0.37564836  1  0  0.092947  0.154787  0  1.043482  0
H  H42  1  0.06365341  0.65211289  0.87565103  1  0  0.092909  0.154735  0  1.04358  0
H  H43  1  0.43634265  0.15211224  0.62434972  1  0  0.092912  0.154733  0  1.043536  0
H  H44  1  0.93157218  0.50318627  0.12450316  1  0  0.09157  0.156355  0  1.039125  0
H  H45  1  0.56843155  0.00318600  0.37549542  1  0  0.09162  0.156429  0  1.039117  0
H  H46  1  0.06842456  0.49681505  0.87549721  1  0  0.091539  0.156343  0  1.039133  0
H  H47  1  0.43156952  0.99681272  0.62450383  1  0  0.091573  0.156374  0  1.039117  0
H  H48  1  0.82816162  0.42445478  0.03718021  1  0  0.093475  0.162077  0  1.019225  0
H  H49  1  0.67184340  0.92445710  0.46281742  1  0  0.093505  0.162154  0  1.019161  0
H  H50  1  0.17184051  0.57554307  0.96281775  1  0  0.093494  0.162131  0  1.019186  0
H  H51  1  0.32815873  0.07554249  0.53717986  1  0  0.093507  0.1621  0  1.019212  0
C  C52  1  0.90067612  0.42824977  0.39706329  1  0  0.108085  0.068496  0  4.015499  0
C  C53  1  0.59932567  0.92825080  0.10293620  1  0  0.108087  0.068499  0  4.015497  0
C  C54  1  0.09932386  0.57174809  0.60293590  1  0  0.108113  0.068565  0  4.015363  0
C  C55  1  0.40067323  0.07174966  0.89706429  1  0  0.108102  0.068553  0  4.015345  0
C  C56  1  0.79480367  0.43912879  0.45834668  1  0  -0.094355  -0.150603  0  3.976491  0
C  C57  1  0.70519705  0.93912908  0.04165410  1  0  -0.094349  -0.150531  0  3.976422  0
C  C58  1  0.20519523  0.56086993  0.54165381  1  0  -0.09435  -0.150577  0  3.976469  0
C  C59  1  0.29480187  0.06087225  0.95834842  1  0  -0.094422  -0.150586  0  3.976437  0
C  C60  1  0.75761881  0.55180520  0.47971766  1  0  -0.095906  -0.053928  0  3.977711  0
C  C61  1  0.74237952  0.05180460  0.02028128  1  0  -0.095975  -0.054043  0  3.977738  0
C  C62  1  0.24237792  0.44819526  0.52028204  1  0  -0.09595  -0.053983  0  3.977846  0
C  C63  1  0.25761829  0.94819585  0.97971848  1  0  -0.096017  -0.054149  0  3.977853  0
C  C64  1  0.82197199  0.64984734  0.44155094  1  0  -0.100666  -0.086705  0  3.992797  0
C  C65  1  0.67802748  0.14984667  0.05844730  1  0  -0.100673  -0.086739  0  3.992806  0
C  C66  1  0.17802582  0.35015225  0.55844814  1  0  -0.100676  -0.086744  0  3.992805  0
C  C67  1  0.32196818  0.85015379  0.94155369  1  0  -0.100663  -0.08661  0  3.99279  0
C  C68  1  0.92577005  0.63929414  0.38019426  1  0  -0.091439  -0.136698  0  3.955317  0
C  C69  1  0.57422942  0.13929421  0.11980466  1  0  -0.091388  -0.136697  0  3.955403  0
C  C70  1  0.07422776  0.36070458  0.61980482  1  0  -0.09144  -0.136734  0  3.955336  0
C  C71  1  0.42576948  0.86070538  0.88019447  1  0  -0.091419  -0.136742  0  3.95535  0
C  C72  1  0.96504969  0.52559507  0.35838478  1  0  0.09422  0.115002  0  4.050377  0
C  C73  1  0.53495080  0.02559510  0.14161497  1  0  0.094268  0.115077  0  4.050402  0
C  C74  1  0.03494812  0.47440538  0.64161498  1  0  0.094231  0.115069  0  4.050322  0
C  C75  1  0.46504919  0.97440622  0.85838558  1  0  0.094187  0.114984  0  4.05031  0
C  C76  1  0.94304745  0.21227461  0.38021660  1  0  -0.128328  -0.296742  0  3.858848  0
C  C77  1  0.55695422  0.71227473  0.11978306  1  0  -0.128325  -0.296664  0  3.858942  0
C  C78  1  0.05695361  0.78772498  0.61978265  1  0  -0.128335  -0.296727  0  3.858853  0
C  C79  1  0.44304685  0.28772746  0.88021755  1  0  -0.128312  -0.296637  0  3.858907  0
C  C80  1  0.74499854  0.42170732  0.16384903  1  0  0.209436  0.405713  0  3.899445  0
C  C81  1  0.75500219  0.92171592  0.33615446  1  0  0.209402  0.405665  0  3.898874  0
C  C82  1  0.25499817  0.57828705  0.83614864  1  0  0.209432  0.405672  0  3.899286  0
C  C83  1  0.24499457  0.07828801  0.66384929  1  0  0.209313  0.405596  0  3.899433  0
C  C84  1  0.86661176  0.42423752  0.10973933  1  0  -0.225951  -0.441241  0  3.97404  0
C  C85  1  0.63339544  0.92424079  0.39025910  1  0  -0.226058  -0.441415  0  3.974224  0
C  C86  1  0.13338606  0.57576120  0.89026042  1  0  -0.225952  -0.4413  0  3.974113  0
C  C87  1  0.36660779  0.07575967  0.60973959  1  0  -0.225974  -0.441273  0  3.974075  0
I  I88  1  0.27821480  0.41495095  0.10532604  1  0  -0.175273  -0.284051  0  2.089048  0
I  I89  1  0.22179734  0.91495078  0.39467387  1  0  -0.175348  -0.284161  0  2.089167  0
I  I90  1  0.72178626  0.58504777  0.89467253  1  0  -0.175215  -0.284001  0  2.089094  0
I  I91  1  0.77820916  0.08504708  0.60532703  1  0  -0.175307  -0.284097  0  2.089097  0
I  I92  1  0.43683207  0.61513260  0.34667557  1  0  -0.140894  -0.243497  0  2.319332  0
I  I93  1  0.06317123  0.11513523  0.15332411  1  0  -0.140857  -0.243423  0  2.31935  0
I  I94  1  0.56316900  0.38486525  0.65332503  1  0  -0.140844  -0.243436  0  2.319369  0
I  I95  1  0.93683092  0.88486522  0.84667520  1  0  -0.140884  -0.243495  0  2.319391  0
I  I96  1  0.43756667  0.23416041  0.36254779  1  0  -0.158286  -0.258347  0  2.13926  0
I  I97  1  0.06243669  0.73416225  0.13745112  1  0  -0.15837  -0.258415  0  2.139276  0
I  I98  1  0.56243006  0.76583918  0.63745191  1  0  -0.158366  -0.258422  0  2.139244  0
I  I99  1  0.93756655  0.26584081  0.86254960  1  0  -0.158385  -0.258451  0  2.139291  0
N  N100  1  0.96849528  0.33431310  0.36358348  1  0  -0.128125  0.180793  0  3.665907  0
N  N101  1  0.53150538  0.83431232  0.13641737  1  0  -0.12815  0.180733  0  3.665955  0
N  N102  1  0.03150145  0.66568649  0.63641622  1  0  -0.128129  0.180674  0  3.665918  0
N  N103  1  0.46849787  0.16568727  0.86358537  1  0  -0.128187  0.180647  0  3.665834  0
N  N104  1  0.06793162  0.37021454  0.30803209  1  0  -0.137324  -0.019521  0  3.45815  0
N  N105  1  0.43207183  0.87021472  0.19197009  1  0  -0.137377  -0.019595  0  3.45819  0
N  N106  1  0.93206946  0.62978592  0.69196919  1  0  -0.137295  -0.019408  0  3.458091  0
N  N107  1  0.56792815  0.12978487  0.80802978  1  0  -0.13728  -0.019404  0  3.458096  0
N  N108  1  0.06649364  0.48480335  0.30409920  1  0  -0.252306  -0.142924  0  3.57383  0
N  N109  1  0.43350879  0.98480353  0.19590148  1  0  -0.252263  -0.14288  0  3.573846  0
N  N110  1  0.93350526  0.51519624  0.69589993  1  0  -0.252304  -0.14298  0  3.573885  0
N  N111  1  0.56649229  0.01519519  0.80409980  1  0  -0.252307  -0.142975  0  3.573876  0
N  N112  1  0.64512106  0.41933787  0.20645908  1  0  -0.380457  -0.381482  0  3.385537  0
N  N113  1  0.85489914  0.91934918  0.29353937  1  0  -0.38047  -0.381512  0  3.384848  0
N  N114  1  0.35487998  0.58065477  0.79353747  1  0  -0.380475  -0.381511  0  3.385333  0
N  N115  1  0.14511385  0.08065823  0.70646119  1  0  -0.380466  -0.381503  0  3.385484  0
