# generated using pymatgen
data_CuH14C12(NO)6
_symmetry_space_group_name_H-M   'P 1'
_cell_length_a   7.94271071
_cell_length_b   10.14381226
_cell_length_c   10.03596818
_cell_angle_alpha   106.12098009
_cell_angle_beta   89.99781680
_cell_angle_gamma   90.00017543
_symmetry_Int_Tables_number   1
_chemical_formula_structural   CuH14C12(NO)6
_chemical_formula_sum   'Cu2 H28 C24 N12 O12'
_cell_volume   776.79578904
_cell_formula_units_Z   2
loop_
 _symmetry_equiv_pos_site_id
 _symmetry_equiv_pos_as_xyz
  1  'x, y, z'
loop_
 _atom_site_type_symbol
 _atom_site_label
 _atom_site_symmetry_multiplicity
 _atom_site_fract_x
 _atom_site_fract_y
 _atom_site_fract_z
 _atom_site_occupancy
 _atom_site_pbe_cm5_charge
 _atom_site_pbe_ddec_charge
 _atom_site_pbe_ddec_spin_density
 _atom_site_pbe_ddec_sum_bond_order
 _atom_site_pbe_magmom
Cu  Cu0  1  0.99999991  0.00000246  0.00000231  1  0.702865  0.76073  0.712356  2.123096  0.533
Cu  Cu1  1  0.49999732  0.49999980  0.49999670  1  0.702873  0.760778  -0.712352  2.123021  -0.533
H  H2  1  0.84184478  0.25516635  0.02179227  1  0.126293  0.102868  0.00105  0.995001  0.002
H  H3  1  0.65814730  0.75515843  0.52178515  1  0.126286  0.102836  -0.001049  0.995108  -0.002
H  H4  1  0.15816623  0.74484016  0.97821223  1  0.12628  0.102914  0.00105  0.995035  0.002
H  H5  1  0.34184860  0.24484413  0.47821314  1  0.126315  0.102906  -0.00105  0.995056  -0.002
H  H6  1  0.75053986  0.28463184  0.60769102  1  0.11517  0.092771  0.000358  1.016302  0.0
H  H7  1  0.74946719  0.78462839  0.10768314  1  0.115165  0.09267  -0.000358  1.016349  0.0
H  H8  1  0.24947115  0.71537667  0.39231609  1  0.115175  0.092726  0.000358  1.016308  0.0
H  H9  1  0.25054004  0.21537312  0.89231583  1  0.115186  0.092741  -0.000358  1.016203  0.0
H  H10  1  0.73694535  0.39611058  0.87029315  1  0.108687  0.127618  0.000165  1.037854  0.0
H  H11  1  0.76305483  0.89610390  0.37028585  1  0.108629  0.127417  -0.000165  1.037994  0.0
H  H12  1  0.26307069  0.60389796  0.12971297  1  0.108574  0.127402  0.000165  1.037978  0.0
H  H13  1  0.23694232  0.10390071  0.62971308  1  0.108617  0.12741  -0.000165  1.038007  0.0
H  H14  1  0.05554768  0.90977156  0.55773518  1  0.291622  0.287019  0.000237  1.031419  0.0
H  H15  1  0.44444840  0.40976567  0.05772889  1  0.291599  0.286963  -0.000237  1.031433  0.0
H  H16  1  0.94444319  0.09022880  0.44226742  1  0.29163  0.287061  0.000237  1.031378  0.0
H  H17  1  0.55556009  0.59023384  0.94226747  1  0.291619  0.287041  -0.000237  1.031387  0.0
H  H18  1  0.95337450  0.71177957  0.81835454  1  0.277663  0.364756  -0.000448  0.98597  0.0
H  H19  1  0.54661487  0.21177757  0.31835075  1  0.277676  0.364793  0.000448  0.985973  0.0
H  H20  1  0.04662644  0.28821273  0.18164059  1  0.277655  0.36469  -0.000448  0.986037  0.0
H  H21  1  0.45337725  0.78821769  0.68164929  1  0.277635  0.364708  0.000448  0.986022  0.0
H  H22  1  0.09955266  0.89279063  0.72383305  1  0.305594  0.310473  0.00021  0.986352  0.0
H  H23  1  0.40043935  0.39279012  0.22383078  1  0.305591  0.310482  -0.00021  0.986372  0.0
H  H24  1  0.90043694  0.10720454  0.27616994  1  0.305622  0.310518  0.00021  0.986335  0.0
H  H25  1  0.59956536  0.60721253  0.77616455  1  0.305611  0.310504  -0.00021  0.986436  0.0
H  H26  1  0.79296585  0.80682270  0.82282987  1  0.279089  0.361232  5.2e-05  0.991345  0.0
H  H27  1  0.70703372  0.30681478  0.32281133  1  0.279092  0.361168  -5.2e-05  0.991396  0.0
H  H28  1  0.20703634  0.19317344  0.17717542  1  0.279057  0.361172  5.2e-05  0.991424  0.0
H  H29  1  0.29295714  0.69318286  0.67717847  1  0.279079  0.361193  -5.2e-05  0.991367  0.0
C  C30  1  0.37847853  0.98115206  0.95908687  1  0.101644  0.165143  0.006494  4.10805  0.004
C  C31  1  0.12150655  0.48113815  0.45908207  1  0.101569  0.165083  -0.006493  4.108458  -0.004
C  C32  1  0.62151737  0.01884630  0.04091313  1  0.101559  0.165068  0.006494  4.108221  0.004
C  C33  1  0.87848431  0.51885010  0.54090982  1  0.101564  0.165039  -0.006493  4.108288  -0.004
C  C34  1  0.44988703  0.05070205  0.09761270  1  0.104005  0.16427  0.014269  4.12896  0.016
C  C35  1  0.05010715  0.55069890  0.59761138  1  0.103958  0.164198  -0.01427  4.128861  -0.016
C  C36  1  0.55011012  0.94929728  0.90238958  1  0.103957  0.164202  0.014268  4.128974  0.016
C  C37  1  0.94988371  0.44929663  0.40237977  1  0.103976  0.164104  -0.014268  4.128851  -0.016
C  C38  1  0.93988784  0.04700962  0.71747188  1  0.349581  0.566954  0.001169  4.072897  0.001
C  C39  1  0.56010693  0.54700444  0.21746432  1  0.349599  0.566889  -0.001169  4.073211  -0.001
C  C40  1  0.06011058  0.95299376  0.28253364  1  0.349555  0.566784  0.001169  4.073194  0.001
C  C41  1  0.43989401  0.45299917  0.78253330  1  0.349537  0.566862  -0.001169  4.073207  -0.001
C  C42  1  0.85170217  0.21841385  0.90945410  1  0.06159  0.158501  -0.000507  3.938171  -0.001
C  C43  1  0.64829177  0.71840908  0.40944594  1  0.061598  0.158492  0.000507  3.938039  0.001
C  C44  1  0.14829499  0.78158956  0.09055044  1  0.061646  0.158469  -0.000507  3.938397  -0.001
C  C45  1  0.35170539  0.28159348  0.59055236  1  0.061515  0.158409  0.000507  3.937994  0.001
C  C46  1  0.80201037  0.23520815  0.68269467  1  0.06486  0.15863  -0.001632  3.957345  -0.002
C  C47  1  0.69798670  0.73520306  0.18268488  1  0.064925  0.158852  0.001632  3.957243  0.002
C  C48  1  0.19799182  0.76479828  0.31731279  1  0.064915  0.158752  -0.001632  3.957286  -0.002
C  C49  1  0.30201927  0.26479847  0.81731310  1  0.064895  0.158789  0.001632  3.95709  0.002
C  C50  1  0.79094416  0.29526460  0.82549684  1  -0.108392  -0.22413  0.003367  3.97958  0.004
C  C51  1  0.70905273  0.79526044  0.32548799  1  -0.10843  -0.224007  -0.003367  3.979556  -0.004
C  C52  1  0.20906685  0.70474393  0.17450928  1  -0.108375  -0.224043  0.003367  3.979651  0.004
C  C53  1  0.29094569  0.20474308  0.67451260  1  -0.108385  -0.223996  -0.003367  3.979636  -0.004
N  N54  1  0.92401095  0.09462007  0.85829436  1  -0.358837  -0.386318  0.047538  3.513749  0.058
N  N55  1  0.57598242  0.59461476  0.35828726  1  -0.358756  -0.386178  -0.047536  3.513697  -0.058
N  N56  1  0.07598998  0.90538437  0.14171050  1  -0.358767  -0.386124  0.047538  3.513912  0.058
N  N57  1  0.42401851  0.40538574  0.64171040  1  -0.358686  -0.386141  -0.047539  3.513628  -0.058
N  N58  1  0.87559208  0.11397404  0.62911484  1  -0.318015  -0.379677  0.007601  3.278721  0.009
N  N59  1  0.62440832  0.61396943  0.12910746  1  -0.31801  -0.379697  -0.007601  3.278733  -0.009
N  N60  1  0.12440759  0.88603241  0.37089163  1  -0.318041  -0.379659  0.007601  3.278722  0.009
N  N61  1  0.37560268  0.38602903  0.87088957  1  -0.317997  -0.379691  -0.007602  3.27865  -0.009
N  N62  1  0.02234252  0.92913467  0.66119923  1  -0.573241  -0.640955  -5.9e-05  3.342154  0.0
N  N63  1  0.47765256  0.42913065  0.16119150  1  -0.573274  -0.640937  5.9e-05  3.342229  0.0
N  N64  1  0.97764835  0.07086460  0.33880503  1  -0.573308  -0.641049  -5.9e-05  3.342231  0.0
N  N65  1  0.52235467  0.57087094  0.83880450  1  -0.573313  -0.641095  5.9e-05  3.342404  0.0
O  O66  1  0.87654294  0.77751933  0.88176847  1  -0.606509  -0.797725  -0.000582  2.082465  0.0
O  O67  1  0.62345503  0.27751186  0.38175563  1  -0.606527  -0.797728  0.000579  2.082452  0.0
O  O68  1  0.12346051  0.22247071  0.11823294  1  -0.606463  -0.797618  -0.000581  2.082693  0.0
O  O69  1  0.37654087  0.72248457  0.61823978  1  -0.606463  -0.797623  0.000578  2.082604  0.0
O  O70  1  0.23514458  0.95504097  0.90394020  1  -0.287938  -0.410666  0.063729  2.46069  0.085
O  O71  1  0.26484677  0.45502688  0.40394090  1  -0.287886  -0.410685  -0.063731  2.460922  -0.085
O  O72  1  0.76485132  0.04495742  0.09605880  1  -0.287883  -0.410642  0.063731  2.460805  0.085
O  O73  1  0.73514535  0.54496032  0.59605166  1  -0.287909  -0.410644  -0.063733  2.460819  -0.085
O  O74  1  0.39278551  0.11295547  0.21474527  1  -0.284274  -0.401064  0.013906  2.295436  0.018
O  O75  1  0.10719586  0.61296420  0.71474785  1  -0.284226  -0.400985  -0.013902  2.295273  -0.018
O  O76  1  0.60721417  0.88704175  0.78525836  1  -0.284261  -0.401064  0.013905  2.295315  0.018
O  O77  1  0.89279374  0.38703337  0.28524393  1  -0.28423  -0.400906  -0.013903  2.295183  -0.018
