# generated using pymatgen
data_Li2H10C2(N2O)5
_symmetry_space_group_name_H-M   'P 1'
_cell_length_a   8.65782450
_cell_length_b   8.61887306
_cell_length_c   9.07002437
_cell_angle_alpha   86.91115696
_cell_angle_beta   81.74771856
_cell_angle_gamma   60.57317280
_symmetry_Int_Tables_number   1
_chemical_formula_structural   Li2H10C2(N2O)5
_chemical_formula_sum   'Li4 H20 C4 N20 O10'
_cell_volume   583.27943998
_cell_formula_units_Z   2
loop_
 _symmetry_equiv_pos_site_id
 _symmetry_equiv_pos_as_xyz
  1  'x, y, z'
loop_
 _atom_site_type_symbol
 _atom_site_label
 _atom_site_symmetry_multiplicity
 _atom_site_fract_x
 _atom_site_fract_y
 _atom_site_fract_z
 _atom_site_occupancy
 _atom_site_hle17_bader_spin_density
 _atom_site_hle17_ddec_charge
 _atom_site_hle17_ddec_spin_density
 _atom_site_hle17_ddec_sum_bond_order
 _atom_site_hle17_magmom
 _atom_site_hse06_10hf_bader_spin_density
 _atom_site_hse06_10hf_ddec_charge
 _atom_site_hse06_10hf_ddec_spin_density
 _atom_site_hse06_10hf_ddec_sum_bond_order
 _atom_site_hse06_10hf_magmom
 _atom_site_hse06_bader_spin_density
 _atom_site_hse06_ddec_charge
 _atom_site_hse06_ddec_spin_density
 _atom_site_hse06_ddec_sum_bond_order
 _atom_site_hse06_magmom
 _atom_site_pbe_bader_spin_density
 _atom_site_pbe_cm5_charge
 _atom_site_pbe_ddec_charge
 _atom_site_pbe_ddec_spin_density
 _atom_site_pbe_ddec_sum_bond_order
 _atom_site_pbe_magmom
Li  Li0  1  0.27939455  0.30075600  0.37360378  1  0  0.837785  0  0.421527  0  0  0.789004  0  0.540019  0  0  0.798191  0  0.52387  0  0  0.517544  0.782393  0  0.551611  0
Li  Li1  1  0.72060446  0.69924411  0.62639664  1  0  0.837773  0  0.42153  0  0  0.789002  0  0.540006  0  0  0.798189  0  0.523858  0  0  0.51755  0.782391  0  0.551598  0
Li  Li2  1  0.11913214  0.36466457  0.07739927  1  0  0.861762  0  0.382244  0  0  0.833924  0  0.464964  0  0  0.841237  0  0.450902  0  0  0.497318  0.828624  0  0.475086  0
Li  Li3  1  0.88086739  0.63533686  0.92260213  1  0  0.861758  0  0.382254  0  0  0.833918  0  0.464981  0  0  0.841232  0  0.450919  0  0  0.497318  0.828617  0  0.475104  0
H  H4  1  0.21035216  0.24052713  0.62899669  1  0  0.391059  0  0.930247  0  0  0.352919  0  1.00663  0  0  0.363487  0  0.991378  0  0  0.299973  0.345509  0  1.017318  0
H  H5  1  0.78964736  0.75947431  0.37100360  1  0  0.391035  0  0.930273  0  0  0.352903  0  1.006649  0  0  0.363471  0  0.991397  0  0  0.299985  0.345494  0  1.017337  0
H  H6  1  0.31430002  0.34806202  0.64782479  1  0  0.398118  0  0.914566  0  0  0.357261  0  0.997565  0  0  0.36743  0  0.982836  0  0  0.298982  0.350074  0  1.007982  0
H  H7  1  0.68569834  0.65193942  0.35217566  1  0  0.398091  0  0.914587  0  0  0.357245  0  0.997571  0  0  0.367414  0  0.982842  0  0  0.298966  0.35006  0  1.007987  0
H  H8  1  0.40628020  0.95880903  0.38228779  1  0  0.394243  0  0.912142  0  0  0.351451  0  1.002187  0  0  0.362512  0  0.985613  0  0  0.293069  0.343597  0  1.013953  0
H  H9  1  0.59371997  0.04119108  0.61771247  1  0  0.394217  0  0.912179  0  0  0.351419  0  1.002235  0  0  0.362481  0  0.985662  0  0  0.293061  0.343566  0  1.014001  0
H  H10  1  0.56536807  0.00137694  0.33806612  1  0  0.395795  0  0.912616  0  0  0.36047  0  0.990324  0  0  0.370195  0  0.975842  0  0  0.29983  0.353563  0  1.000653  0
H  H11  1  0.43463261  0.99862456  0.66192961  1  0  0.395785  0  0.912617  0  0  0.36046  0  0.990348  0  0  0.370184  0  0.975867  0  0  0.299814  0.353553  0  1.000675  0
H  H12  1  0.96014234  0.46466856  0.33930909  1  0  0.440357  0  0.856348  0  0  0.414841  0  0.909575  0  0  0.425132  0  0.894419  0  0  0.306294  0.407524  0  0.920374  0
H  H13  1  0.03985602  0.53533286  0.66069246  1  0  0.440306  0  0.85642  0  0  0.414814  0  0.909603  0  0  0.425104  0  0.894448  0  0  0.306302  0.407499  0  0.920396  0
H  H14  1  0.02601796  0.25888943  0.31170167  1  0  0.405501  0  0.911873  0  0  0.360947  0  0.998442  0  0  0.3725  0  0.9818  0  0  0.296272  0.352893  0  1.010022  0
H  H15  1  0.97398156  0.74111201  0.68829863  1  0  0.405515  0  0.911841  0  0  0.360966  0  0.998402  0  0  0.372518  0  0.981762  0  0  0.296277  0.352911  0  1.009982  0
H  H16  1  0.41169121  0.22488693  0.88774973  1  0  0.419266  0  0.877325  0  0  0.382965  0  0.950486  0  0  0.392853  0  0.935714  0  0  0.307376  0.375983  0  0.960914  0
H  H17  1  0.58830663  0.77511321  0.11224864  1  0  0.419261  0  0.87733  0  0  0.382957  0  0.950495  0  0  0.392846  0  0.935723  0  0  0.307372  0.375976  0  0.960922  0
H  H18  1  0.38118250  0.06498968  0.93608339  1  0  0.440589  0  0.818415  0  0  0.418611  0  0.879481  0  0  0.427114  0  0.866688  0  0  0.32858  0.412461  0  0.888794  0
H  H19  1  0.61880870  0.93501454  0.06390908  1  0  0.440578  0  0.818445  0  0  0.418603  0  0.879494  0  0  0.427103  0  0.866707  0  0  0.328547  0.412453  0  0.888806  0
H  H20  1  0.04049771  0.70457132  0.09351433  1  0  0.398349  0  0.922012  0  0  0.354061  0  1.007521  0  0  0.365128  0  0.991527  0  0  0.295854  0.346324  0  1.018685  0
H  H21  1  0.95950363  0.29542881  0.90648357  1  0  0.398267  0  0.922108  0  0  0.354001  0  1.007606  0  0  0.365069  0  0.99161  0  0  0.295824  0.346263  0  1.01877  0
H  H22  1  0.19121262  0.58930629  0.95744026  1  0  0.394973  0  0.925763  0  0  0.351131  0  1.010353  0  0  0.362306  0  0.994253  0  0  0.296138  0.343295  0  1.021627  0
H  H23  1  0.80878756  0.41069384  0.04255891  1  0  0.394959  0  0.925779  0  0  0.351125  0  1.010356  0  0  0.362299  0  0.994256  0  0  0.296129  0.34329  0  1.021628  0
C  C24  1  0.16734946  0.92358161  0.61279941  1  0  0.37269  0  3.841346  0  0  0.325925  0  4.142896  0  0  0.333689  0  4.162899  0  0  0.31587  0.321043  0  4.129105  0
C  C25  1  0.83265371  0.07641716  0.38720051  1  0  0.372499  0  3.841483  0  0  0.325715  0  4.143063  0  0  0.333478  0  4.163069  0  0  0.315798  0.320834  0  4.12927  0
C  C26  1  0.40089636  0.59190450  0.33589952  1  0  0.378983  0  3.842271  0  0  0.340016  0  4.141623  0  0  0.345903  0  4.161612  0  0  0.317114  0.335997  0  4.128299  0
C  C27  1  0.59910811  0.40809160  0.66410034  1  0  0.378919  0  3.84214  0  0  0.340043  0  4.141406  0  0  0.345932  0  4.161393  0  0  0.317071  0.336014  0  4.128094  0
N  N28  1  0.28977956  0.82908403  0.49055851  1  0  -0.179375  0  3.019332  0  0  -0.13943  0  3.298091  0  0  -0.13986  0  3.301671  0  0  -0.118745  -0.138896  0  3.295639  0
N  N29  1  0.71022491  0.17091208  0.50944135  1  0  -0.179285  0  3.019297  0  0  -0.139274  0  3.298023  0  0  -0.139705  0  3.301608  0  0  -0.11865  -0.138741  0  3.295569  0
N  N30  1  0.03453882  0.89853208  0.68658629  1  0  -0.313601  0  3.050801  0  0  -0.271057  0  3.331148  0  0  -0.284884  0  3.347378  0  0  -0.184625  -0.262084  0  3.320335  0
N  N31  1  0.96546252  0.10146801  0.31341492  1  0  -0.313453  0  3.050729  0  0  -0.27089  0  3.33106  0  0  -0.284716  0  3.347292  0  0  -0.184558  -0.261917  0  3.320246  0
N  N32  1  0.95605673  0.02085207  0.79603034  1  0  -0.054678  0  2.889729  0  0  -0.061069  0  3.175893  0  0  -0.0599  0  3.188793  0  0  -0.079249  -0.061866  0  3.167523  0
N  N33  1  0.04394396  0.97914935  0.20397091  1  0  -0.054658  0  2.889708  0  0  -0.061056  0  3.175873  0  0  -0.059888  0  3.188776  0  0  -0.079246  -0.061852  0  3.167504  0
N  N34  1  0.03860297  0.11711487  0.78928524  1  0  -0.077225  0  3.052098  0  0  -0.044826  0  3.330179  0  0  -0.049874  0  3.344234  0  0  -0.067285  -0.041325  0  3.320975  0
N  N35  1  0.96139837  0.88288524  0.21071487  1  0  -0.077278  0  3.052107  0  0  -0.044875  0  3.330182  0  0  -0.049924  0  3.344238  0  0  -0.067292  -0.041375  0  3.320981  0
N  N36  1  0.17146584  0.05986324  0.67542092  1  0  -0.350823  0  3.062773  0  0  -0.299466  0  3.318652  0  0  -0.313619  0  3.334779  0  0  -0.192819  -0.289955  0  3.307758  0
N  N37  1  0.82853551  0.94013686  0.32457919  1  0  -0.350776  0  3.062735  0  0  -0.299418  0  3.318617  0  0  -0.313568  0  3.334742  0  0  -0.192827  -0.289907  0  3.307723  0
N  N38  1  0.27875759  0.69446195  0.45369894  1  0  -0.127507  0  2.956304  0  0  -0.115246  0  3.245807  0  0  -0.109715  0  3.249479  0  0  -0.120192  -0.118831  0  3.243519  0
N  N39  1  0.72124623  0.30553547  0.54630205  1  0  -0.12752  0  2.956171  0  0  -0.115364  0  3.245732  0  0  -0.109835  0  3.249406  0  0  -0.120271  -0.118946  0  3.243447  0
N  N40  1  0.53832885  0.60633358  0.25674477  1  0  -0.353656  0  3.022516  0  0  -0.304137  0  3.272918  0  0  -0.317067  0  3.288955  0  0  -0.195316  -0.295318  0  3.262186  0
N  N41  1  0.46167198  0.39366520  0.74325436  1  0  -0.353641  0  3.022378  0  0  -0.304139  0  3.272756  0  0  -0.317068  0  3.288793  0  0  -0.195311  -0.295318  0  3.262024  0
N  N42  1  0.61923082  0.46560914  0.16322490  1  0  -0.063273  0  3.042889  0  0  -0.027801  0  3.317721  0  0  -0.032593  0  3.331906  0  0  -0.061615  -0.024475  0  3.308372  0
N  N43  1  0.38076819  0.53439098  0.83677441  1  0  -0.063253  0  3.042862  0  0  -0.027775  0  3.317696  0  0  -0.03257  0  3.331883  0  0  -0.061588  -0.024444  0  3.308341  0
N  N44  1  0.53622234  0.36933628  0.18258699  1  0  -0.051317  0  2.91567  0  0  -0.058412  0  3.212907  0  0  -0.057483  0  3.22515  0  0  -0.078293  -0.058508  0  3.204547  0
N  N45  1  0.46377732  0.63066249  0.81741340  1  0  -0.051324  0  2.915711  0  0  -0.058425  0  3.212957  0  0  -0.057495  0  3.225202  0  0  -0.078307  -0.058523  0  3.204595  0
N  N46  1  0.39913568  0.44550866  0.29094672  1  0  -0.39745  0  3.023765  0  0  -0.363892  0  3.317017  0  0  -0.374973  0  3.331043  0  0  -0.272012  -0.356056  0  3.307451  0
N  N47  1  0.60086515  0.55449011  0.70905352  1  0  -0.39744  0  3.023733  0  0  -0.363894  0  3.316947  0  0  -0.374976  0  3.330973  0  0  -0.271995  -0.356055  0  3.307384  0
O  O48  1  0.22521750  0.34435283  0.59197203  1  0  -0.875045  0  1.929896  0  0  -0.817701  0  2.117992  0  0  -0.835453  0  2.084756  0  0  -0.617669  -0.805238  0  2.141305  0
O  O49  1  0.77478085  0.65564862  0.40802731  1  0  -0.875008  0  1.929948  0  0  -0.817673  0  2.11804  0  0  -0.835425  0  2.084806  0  0  -0.617666  -0.805209  0  2.141352  0
O  O50  1  0.43800363  0.04640868  0.33266077  1  0  -0.870038  0  1.84966  0  0  -0.818941  0  2.038095  0  0  -0.833848  0  2.004736  0  0  -0.638847  -0.808261  0  2.061894  0
O  O51  1  0.56199538  0.95359143  0.66733965  1  0  -0.870009  0  1.84967  0  0  -0.818921  0  2.038118  0  0  -0.833829  0  2.004758  0  0  -0.63883  -0.80824  0  2.06192  0
O  O52  1  0.06500411  0.35247835  0.29471231  1  0  -0.964921  0  1.803207  0  0  -0.913402  0  1.988229  0  0  -0.929494  0  1.95385  0  0  -0.709479  -0.902174  0  2.012352  0
O  O53  1  0.93499476  0.64752440  0.70528913  1  0  -0.964877  0  1.803237  0  0  -0.913364  0  1.988237  0  0  -0.929459  0  1.953865  0  0  -0.709491  -0.902137  0  2.012359  0
O  O54  1  0.34409966  0.18737759  0.96332500  1  0  -0.869533  0  1.76221  0  0  -0.825227  0  1.923582  0  0  -0.839791  0  1.893152  0  0  -0.621732  -0.815038  0  1.945238  0
O  O55  1  0.65590169  0.81262252  0.03667511  1  0  -0.869503  0  1.762208  0  0  -0.8252  0  1.923584  0  0  -0.839766  0  1.893149  0  0  -0.621707  -0.81501  0  1.945238  0
O  O56  1  0.08148771  0.60198074  0.02264488  1  0  -0.981027  0  1.888706  0  0  -0.932934  0  2.09342  0  0  -0.949135  0  2.058574  0  0  -0.712315  -0.921277  0  2.117564  0
O  O57  1  0.91851182  0.39802070  0.97735542  1  0  -0.980942  0  1.888839  0  0  -0.932882  0  2.093483  0  0  -0.949085  0  2.058636  0  0  -0.712294  -0.921225  0  2.117626  0
