# generated using pymatgen
data_MnH8CS(N2O3)2
_symmetry_space_group_name_H-M   'P 1'
_cell_length_a   7.10684233
_cell_length_b   7.84365699
_cell_length_c   14.03892909
_cell_angle_alpha   90.00007445
_cell_angle_beta   90.90730261
_cell_angle_gamma   89.99948776
_symmetry_Int_Tables_number   1
_chemical_formula_structural   MnH8CS(N2O3)2
_chemical_formula_sum   'Mn4 H32 C4 S4 N16 O24'
_cell_volume   782.48280095
_cell_formula_units_Z   4
loop_
 _symmetry_equiv_pos_site_id
 _symmetry_equiv_pos_as_xyz
  1  'x, y, z'
loop_
 _atom_site_type_symbol
 _atom_site_label
 _atom_site_symmetry_multiplicity
 _atom_site_fract_x
 _atom_site_fract_y
 _atom_site_fract_z
 _atom_site_occupancy
 _atom_site_hle17_ddec_charge
 _atom_site_hle17_ddec_spin_density
 _atom_site_hle17_ddec_sum_bond_order
 _atom_site_hle17_magmom
 _atom_site_hse06_10hf_ddec_charge
 _atom_site_hse06_10hf_ddec_spin_density
 _atom_site_hse06_10hf_ddec_sum_bond_order
 _atom_site_hse06_10hf_magmom
 _atom_site_hse06_ddec_charge
 _atom_site_hse06_ddec_spin_density
 _atom_site_hse06_ddec_sum_bond_order
 _atom_site_hse06_magmom
 _atom_site_pbe_cm5_charge
 _atom_site_pbe_ddec_charge
 _atom_site_pbe_ddec_spin_density
 _atom_site_pbe_ddec_sum_bond_order
 _atom_site_pbe_magmom
Mn  Mn0  1  0.55234124  0.59165618  0.62036719  1  1.21636  4.79695  1.724394  4.699  1.050062  4.727818  2.211563  4.57  1.107047  4.763597  2.144437  4.622  0.586119  1.004218  4.69378  2.261167  4.522
Mn  Mn1  1  0.94765288  0.09165085  0.87963042  1  1.21645  4.796953  1.724325  4.699  1.050135  4.727821  2.21151  4.57  1.107136  4.763601  2.14437  4.622  0.586159  1.004293  4.693782  2.261113  4.522
Mn  Mn2  1  0.44766158  0.40834259  0.37963001  1  1.216448  4.796927  1.724296  4.699  1.050141  4.727792  2.211505  4.57  1.10715  4.763572  2.144335  4.622  0.586154  1.004297  4.693752  2.261125  4.522
Mn  Mn3  1  0.05234437  0.90834919  0.12037316  1  1.216437  4.796933  1.724412  4.699  1.050132  4.727801  2.211577  4.57  1.107118  4.763582  2.144463  4.622  0.586165  1.004267  4.69376  2.261215  4.522
H  H4  1  0.35202275  0.86050854  0.53801092  1  0.436882  -3.6e-05  0.858311  0.001  0.404386  0.000672  0.922727  0.002  0.415582  0.000375  0.906439  0.002  0.294506  0.396355  0.00096  0.934399  0.002
H  H5  1  0.14797304  0.36051099  0.96199217  1  0.436854  -3.7e-05  0.858323  0.001  0.404336  0.000673  0.922756  0.002  0.41553  0.000376  0.906473  0.002  0.294529  0.396308  0.00096  0.93442  0.002
H  H6  1  0.64797447  0.13949278  0.46198910  1  0.436882  -3.7e-05  0.858299  0.001  0.404395  0.000672  0.922691  0.002  0.415589  0.000375  0.906408  0.002  0.29454  0.39636  0.00096  0.934369  0.002
H  H7  1  0.85202280  0.63948650  0.03801211  1  0.436872  -3.7e-05  0.858326  0.001  0.404372  0.000673  0.922752  0.002  0.41557  0.000376  0.906461  0.002  0.294524  0.396342  0.00096  0.934422  0.002
H  H8  1  0.46143565  0.93722114  0.62931741  1  0.42496  0.000154  0.874522  0.001  0.392862  0.000918  0.94057  0.002  0.403467  0.000614  0.925056  0.002  0.29593  0.385198  0.001208  0.951768  0.002
H  H9  1  0.03856645  0.43721790  0.87068649  1  0.42496  0.000154  0.874521  0.001  0.392846  0.000918  0.940601  0.002  0.403452  0.000614  0.925084  0.002  0.29592  0.385189  0.001208  0.951789  0.002
H  H10  1  0.53856581  0.06278145  0.37068478  1  0.425002  0.000153  0.874462  0.001  0.392897  0.000918  0.940518  0.002  0.403502  0.000614  0.925004  0.002  0.295951  0.385235  0.001208  0.951712  0.002
H  H11  1  0.96143078  0.56277704  0.12931496  1  0.424944  0.000153  0.87454  0.001  0.392833  0.000918  0.940606  0.002  0.403437  0.000614  0.925093  0.002  0.295925  0.385174  0.001207  0.951797  0.002
H  H12  1  0.83829414  0.86521743  0.60733212  1  0.289426  -0.000286  0.931017  0.0  0.272086  0.000352  0.999072  0.001  0.278618  0.000153  0.993331  0.001  0.29872  0.267317  0.000545  1.003276  0.001
H  H13  1  0.66170442  0.36521832  0.89267068  1  0.289329  -0.000281  0.931188  0.0  0.271981  0.000352  0.999234  0.001  0.27851  0.000154  0.993504  0.001  0.298697  0.267217  0.000545  1.003428  0.001
H  H14  1  0.16170307  0.13478389  0.39266718  1  0.289381  -0.000283  0.931116  0.0  0.272027  0.000352  0.999183  0.001  0.278557  0.000153  0.993448  0.001  0.298706  0.267263  0.000545  1.003379  0.001
H  H15  1  0.33829704  0.63477790  0.10733150  1  0.289363  -0.000278  0.931091  0.0  0.272012  0.000352  0.999156  0.001  0.278543  0.000153  0.993417  0.001  0.298691  0.267245  0.000545  1.003355  0.001
H  H16  1  0.94089864  0.67887667  0.64083842  1  0.284908  -0.000439  0.907068  0.0  0.269834  0.000217  0.973908  0.001  0.275645  4.6e-05  0.969062  0.0  0.303171  0.265585  0.000387  0.97745  0.001
H  H17  1  0.55909889  0.17887833  0.85916355  1  0.284947  -0.000436  0.907008  0.0  0.269863  0.000217  0.973851  0.001  0.275676  4.6e-05  0.969001  0.0  0.303198  0.26561  0.000386  0.977398  0.001
H  H18  1  0.05909996  0.32112337  0.35915876  1  0.284908  -0.000437  0.907079  0.0  0.269823  0.000216  0.97394  0.001  0.275633  4.5e-05  0.969095  0.0  0.303186  0.265572  0.000386  0.977483  0.001
H  H19  1  0.44090256  0.82112426  0.14083792  1  0.284924  -0.000433  0.907086  0.0  0.269841  0.000217  0.973932  0.001  0.275652  4.5e-05  0.969084  0.0  0.303195  0.265588  0.000386  0.977476  0.001
H  H20  1  0.02615770  0.78106345  0.47662296  1  0.291398  0.000284  0.936452  0.001  0.269706  0.00058  1.002279  0.001  0.278288  0.000399  0.995359  0.001  0.310913  0.263625  0.000766  1.007291  0.001
H  H21  1  0.47384245  0.28106085  0.02338081  1  0.291395  0.000284  0.936487  0.001  0.269696  0.00058  1.002326  0.001  0.278279  0.000399  0.995403  0.001  0.310897  0.263628  0.000766  1.007319  0.001
H  H22  1  0.97383810  0.21894296  0.52337563  1  0.291399  0.000284  0.936504  0.001  0.269718  0.00058  1.002319  0.001  0.278299  0.000399  0.9954  0.001  0.310915  0.263645  0.000766  1.007317  0.001
H  H23  1  0.52616887  0.71893537  0.97662215  1  0.291358  0.000282  0.936499  0.001  0.269661  0.00058  1.002336  0.001  0.278247  0.000399  0.995413  0.001  0.310868  0.263595  0.000766  1.007325  0.001
H  H24  1  0.94279185  0.68229941  0.31650844  1  0.293122  -0.000257  0.934178  0.0  0.272302  1.7e-05  1.000807  0.001  0.280194  -0.000171  0.994863  0.001  0.316157  0.266693  0.000216  1.005108  0.001
H  H25  1  0.55721063  0.18228662  0.18349212  1  0.293096  -0.000254  0.93422  0.001  0.27228  1.7e-05  1.000863  0.001  0.28017  -0.00017  0.994921  0.001  0.316129  0.266674  0.000216  1.005166  0.001
H  H26  1  0.05720676  0.31771721  0.68348945  1  0.293233  -0.000253  0.934069  0.001  0.27236  1.7e-05  1.000784  0.001  0.280257  -0.000171  0.994836  0.001  0.316149  0.266747  0.000215  1.005101  0.001
H  H27  1  0.44279925  0.81771087  0.81650727  1  0.293113  -0.000252  0.934152  0.001  0.272288  1.7e-05  1.000825  0.001  0.280177  -0.00017  0.994881  0.001  0.316131  0.266678  0.000216  1.005132  0.001
H  H28  1  0.63318365  0.61752979  0.24712719  1  0.279301  -0.000566  0.89559  0.0  0.266903  0.000132  0.96084  0.001  0.272503  -6.1e-05  0.955927  0.0  0.306647  0.262725  0.000328  0.964569  0.001
H  H29  1  0.86682086  0.11752482  0.25287334  1  0.279329  -0.000564  0.895611  0.0  0.26692  0.000132  0.960867  0.001  0.272525  -6.1e-05  0.95594  0.0  0.306642  0.262744  0.000329  0.964596  0.001
H  H30  1  0.36681495  0.38247790  0.75286927  1  0.279397  -0.000572  0.895459  0.0  0.267008  0.000132  0.960688  0.001  0.272605  -6.1e-05  0.95578  0.0  0.306701  0.262831  0.000328  0.964417  0.001
H  H31  1  0.13318480  0.88247522  0.74712674  1  0.279324  -0.000568  0.895601  0.0  0.266931  0.000132  0.960835  0.001  0.272529  -6.1e-05  0.955926  0.0  0.30666  0.262755  0.000328  0.964563  0.001
H  H32  1  0.77228603  0.44834538  0.24555603  1  0.294609  -0.000179  0.902014  0.0  0.283024  0.000391  0.962259  0.001  0.288452  0.000194  0.958008  0.001  0.309495  0.279035  0.000586  0.965416  0.001
H  H33  1  0.72771530  0.94834066  0.25444469  1  0.294639  -0.00018  0.902015  0.0  0.283055  0.000391  0.96224  0.001  0.288483  0.000193  0.95799  0.001  0.309501  0.279065  0.000586  0.9654  0.001
H  H34  1  0.22771681  0.55165849  0.75444188  1  0.294625  -0.000189  0.902057  0.0  0.283042  0.000391  0.962301  0.001  0.288469  0.000194  0.958051  0.001  0.309512  0.279054  0.000586  0.965455  0.001
H  H35  1  0.27228617  0.05165810  0.74555820  1  0.294598  -0.000184  0.902052  0.0  0.283012  0.000391  0.962302  0.001  0.288442  0.000194  0.958047  0.001  0.309476  0.279021  0.000586  0.965463  0.001
C  C36  1  0.79147166  0.63161337  0.43990584  1  0.686361  0.001794  3.886915  0.003  0.607363  0.005398  4.193368  0.006  0.642438  0.003664  4.190486  0.004  0.351255  0.583258  0.007036  4.19462  0.007
C  C37  1  0.70852426  0.13160667  0.06009322  1  0.686106  0.001793  3.887481  0.003  0.607275  0.005393  4.19372  0.006  0.642352  0.00366  4.190835  0.004  0.351192  0.583172  0.007035  4.194966  0.007
C  C38  1  0.20852414  0.36838922  0.56009203  1  0.686268  0.001791  3.887073  0.003  0.607221  0.005397  4.193549  0.006  0.642296  0.003663  4.190665  0.004  0.35115  0.583119  0.007036  4.194798  0.007
C  C39  1  0.29146733  0.86839082  0.93990748  1  0.686104  0.001799  3.887393  0.003  0.607292  0.005394  4.193644  0.006  0.642368  0.00366  4.190753  0.004  0.351173  0.583189  0.007036  4.194892  0.007
S  S40  1  0.72304148  0.18602585  0.65899947  1  1.582439  0.007976  5.821537  0.008  1.453471  0.012751  6.362947  0.011  1.510254  0.009855  6.327441  0.01  0.580376  1.413698  0.015552  6.38625  0.013
S  S41  1  0.77696441  0.68602860  0.84099971  1  1.581596  0.007987  5.820693  0.008  1.452617  0.012766  6.362143  0.011  1.509406  0.009874  6.326657  0.01  0.580194  1.412884  0.015572  6.385411  0.013
S  S42  1  0.27696137  0.81397546  0.34100059  1  1.582429  0.007973  5.820906  0.008  1.453462  0.012756  6.362309  0.011  1.510254  0.009858  6.326803  0.01  0.580468  1.41371  0.015558  6.385598  0.013
S  S43  1  0.22303984  0.31396762  0.15899893  1  1.581712  0.008002  5.820781  0.008  1.452705  0.012765  6.362259  0.011  1.509492  0.009874  6.326773  0.01  0.580213  1.412958  0.015574  6.385534  0.013
N  N44  1  0.84881480  0.73656054  0.59413503  1  -0.486036  0.023838  3.082636  0.017  -0.464611  0.029783  3.349011  0.019  -0.477027  0.026217  3.346052  0.016  -0.500991  -0.454726  0.033137  3.350646  0.022
N  N45  1  0.65118359  0.23656283  0.90586698  1  -0.485981  0.023828  3.08284  0.017  -0.464549  0.029783  3.349236  0.019  -0.476958  0.026219  3.346257  0.016  -0.501009  -0.454663  0.033137  3.350869  0.022
N  N46  1  0.15117960  0.26343950  0.40586497  1  -0.48604  0.023831  3.082829  0.017  -0.464616  0.029783  3.3492  0.019  -0.477033  0.026219  3.346247  0.016  -0.501024  -0.454726  0.033137  3.350828  0.022
N  N47  1  0.34882068  0.76343593  0.09413451  1  -0.485945  0.023821  3.082727  0.017  -0.464488  0.029782  3.349054  0.019  -0.476906  0.026219  3.346104  0.016  -0.500969  -0.454601  0.033136  3.350687  0.022
N  N48  1  0.90947423  0.71572041  0.49982620  1  -0.307026  0.000574  3.300873  0.001  -0.260469  0.002662  3.563709  0.003  -0.277518  0.001663  3.570236  0.002  -0.338979  -0.249009  0.003687  3.559015  0.004
N  N49  1  0.59052794  0.21571581  0.00017580  1  -0.306943  0.00058  3.30122  0.001  -0.260441  0.002662  3.564006  0.003  -0.277486  0.001659  3.570529  0.002  -0.338934  -0.248994  0.003686  3.559296  0.004
N  N50  1  0.09052157  0.28428473  0.50017239  1  -0.30694  0.000575  3.301066  0.001  -0.260353  0.002662  3.56386  0.003  -0.277399  0.001661  3.570387  0.002  -0.338917  -0.248908  0.003686  3.559156  0.004
N  N51  1  0.40947912  0.78428295  0.99982356  1  -0.307049  0.00058  3.300996  0.001  -0.260543  0.002663  3.563763  0.003  -0.277588  0.001658  3.570283  0.002  -0.338992  -0.249092  0.003687  3.559049  0.004
N  N52  1  0.83627544  0.61337668  0.34712138  1  -0.32083  0.00047  3.310519  0.001  -0.273851  0.002343  3.573964  0.002  -0.290695  0.001394  3.580493  0.002  -0.343403  -0.26252  0.003313  3.569334  0.003
N  N53  1  0.66372491  0.11336931  0.15288126  1  -0.320657  0.000464  3.310698  0.001  -0.273769  0.002344  3.574097  0.002  -0.290608  0.001387  3.580622  0.002  -0.343395  -0.262438  0.003312  3.56946  0.003
N  N54  1  0.16372177  0.38663101  0.65287650  1  -0.320823  0.000463  3.310666  0.001  -0.273765  0.002343  3.57405  0.002  -0.290619  0.001388  3.580584  0.002  -0.343304  -0.262437  0.003312  3.569418  0.003
N  N55  1  0.33627935  0.88662818  0.84711952  1  -0.320629  0.000453  3.310514  0.001  -0.273745  0.002344  3.573934  0.002  -0.290579  0.001387  3.580458  0.002  -0.343345  -0.262415  0.003312  3.569297  0.003
N  N56  1  0.70151363  0.52981410  0.28924421  1  -0.470885  0.022873  3.085302  0.016  -0.453723  0.028943  3.349611  0.019  -0.465606  0.02555  3.347382  0.016  -0.500579  -0.444292  0.032137  3.350883  0.021
N  N57  1  0.79848470  0.02981214  0.21075765  1  -0.47106  0.022871  3.08561  0.016  -0.45386  0.028945  3.349928  0.019  -0.46574  0.025553  3.347692  0.016  -0.500616  -0.444428  0.03214  3.351205  0.021
N  N58  1  0.29847934  0.47018722  0.71075222  1  -0.471058  0.022889  3.085477  0.016  -0.453869  0.028941  3.349678  0.019  -0.465748  0.025551  3.347448  0.016  -0.500677  -0.444437  0.032135  3.350947  0.021
N  N59  1  0.20151675  0.97018663  0.78924382  1  -0.470992  0.022881  3.085438  0.016  -0.453816  0.028942  3.349767  0.019  -0.465696  0.025549  3.347529  0.016  -0.500605  -0.444385  0.032136  3.351044  0.021
O  O60  1  0.64129627  0.56640465  0.47042055  1  -0.653269  0.054704  2.21296  0.037  -0.571625  0.066577  2.489233  0.045  -0.603536  0.060205  2.476515  0.039  -0.285653  -0.547467  0.072454  2.496787  0.05
O  O61  1  0.85870033  0.06639919  0.02958346  1  -0.653203  0.0547  2.213231  0.037  -0.571613  0.066579  2.489428  0.045  -0.603533  0.060211  2.476723  0.039  -0.285583  -0.547459  0.072454  2.496981  0.05
O  O62  1  0.35870236  0.43359412  0.52957947  1  -0.653268  0.054704  2.212944  0.037  -0.571619  0.066573  2.489225  0.045  -0.603537  0.060202  2.476524  0.039  -0.285632  -0.547463  0.072451  2.496777  0.05
O  O63  1  0.14128705  0.93359065  0.97041722  1  -0.653139  0.054696  2.213235  0.037  -0.571566  0.066574  2.489399  0.045  -0.603516  0.060208  2.476763  0.039  -0.285581  -0.547413  0.072448  2.496955  0.05
O  O64  1  0.40198273  0.83255334  0.60302930  1  -0.844068  0.029999  1.861549  0.016  -0.783414  0.039959  2.070917  0.021  -0.805854  0.035749  2.033943  0.019  -0.576686  -0.766567  0.043792  2.097083  0.024
O  O65  1  0.09801474  0.33254840  0.89697450  1  -0.844084  0.029996  1.861499  0.016  -0.783365  0.039953  2.070911  0.021  -0.805805  0.035742  2.033936  0.019  -0.576686  -0.766524  0.043786  2.097065  0.024
O  O66  1  0.59801871  0.16744925  0.39697146  1  -0.844112  0.030004  1.861533  0.016  -0.783418  0.03996  2.070924  0.021  -0.805862  0.03575  2.033948  0.019  -0.576709  -0.766573  0.043794  2.097097  0.024
O  O67  1  0.90197970  0.66744782  0.10303049  1  -0.844064  0.029996  1.861515  0.016  -0.783404  0.039953  2.070935  0.021  -0.805842  0.035742  2.033962  0.019  -0.576697  -0.766557  0.043786  2.097094  0.024
O  O68  1  0.71843633  0.37241850  0.64438796  1  -0.74997  0.031478  2.108834  0.018  -0.68831  0.03891  2.41422  0.022  -0.71511  0.034767  2.394528  0.019  -0.3537  -0.668117  0.042821  2.426886  0.026
O  O69  1  0.78156214  0.87243909  0.85561129  1  -0.749747  0.031495  2.108583  0.018  -0.688057  0.038917  2.41396  0.022  -0.714876  0.034769  2.394284  0.019  -0.353586  -0.667859  0.042831  2.426607  0.026
O  O70  1  0.28156229  0.62757516  0.35561064  1  -0.749991  0.031472  2.108683  0.018  -0.688338  0.038916  2.414076  0.022  -0.715153  0.034771  2.394393  0.019  -0.353719  -0.668141  0.042825  2.426733  0.026
O  O71  1  0.21844063  0.12755840  0.14437879  1  -0.749839  0.031496  2.108661  0.018  -0.688114  0.038922  2.414026  0.022  -0.71492  0.034771  2.394336  0.019  -0.353659  -0.667916  0.042834  2.426682  0.026
O  O72  1  0.88479297  0.14889335  0.72560956  1  -0.763088  0.028257  2.030743  0.016  -0.694029  0.03711  2.311022  0.022  -0.720208  0.033043  2.291328  0.019  -0.351264  -0.674617  0.040971  2.3241  0.025
O  O73  1  0.61519493  0.64888579  0.77438307  1  -0.762864  0.028245  2.030595  0.016  -0.693832  0.037115  2.310843  0.022  -0.72001  0.033049  2.291147  0.019  -0.351276  -0.674426  0.040974  2.323911  0.025
O  O74  1  0.11519721  0.85111306  0.27439042  1  -0.763034  0.028258  2.030546  0.016  -0.694024  0.037117  2.310832  0.022  -0.7202  0.033046  2.291132  0.019  -0.351323  -0.674606  0.040977  2.323899  0.025
O  O75  1  0.38480372  0.35110150  0.22562052  1  -0.762879  0.028238  2.030537  0.016  -0.693855  0.037117  2.310826  0.022  -0.720034  0.033051  2.29113  0.019  -0.351281  -0.67446  0.040977  2.323906  0.025
O  O76  1  0.54234811  0.12117042  0.69653481  1  -0.737957  -0.000258  1.929855  0.001  -0.674834  0.000307  2.169629  0.002  -0.696687  -0.000197  2.15228  0.001  -0.351658  -0.659425  0.000867  2.181468  0.002
O  O77  1  0.95767529  0.62116265  0.80346372  1  -0.737633  -0.000258  1.929571  0.001  -0.674564  0.000309  2.169437  0.002  -0.696408  -0.000196  2.152077  0.001  -0.351572  -0.659194  0.000869  2.181282  0.002
O  O78  1  0.45766319  0.87883727  0.30346672  1  -0.737899  -0.000253  1.929764  0.001  -0.674798  0.000306  2.169557  0.002  -0.696654  -0.000196  2.152213  0.001  -0.351628  -0.65939  0.000867  2.181388  0.002
O  O79  1  0.04232614  0.37882974  0.19653419  1  -0.737678  -0.000257  1.929757  0.001  -0.674552  0.000309  2.169558  0.002  -0.696405  -0.000196  2.152218  0.001  -0.351519  -0.659165  0.000869  2.181399  0.002
O  O80  1  0.76461448  0.09874485  0.56619055  1  -0.746741  0.002665  1.95451  0.004  -0.677286  0.004152  2.182339  0.005  -0.700403  0.002939  2.164764  0.004  -0.350453  -0.661088  0.005446  2.19446  0.007
O  O81  1  0.73538390  0.59874434  0.93382063  1  -0.746489  0.002677  1.954044  0.004  -0.67692  0.004156  2.181772  0.005  -0.700031  0.002944  2.164196  0.004  -0.350358  -0.660778  0.005452  2.193912  0.007
O  O82  1  0.23539123  0.90125647  0.43381593  1  -0.746798  0.002676  1.954352  0.004  -0.677216  0.004152  2.182071  0.005  -0.700331  0.002942  2.16449  0.004  -0.350457  -0.661067  0.005448  2.194227  0.007
O  O83  1  0.26462320  0.40126080  0.06618301  1  -0.746479  0.002679  1.954035  0.004  -0.676956  0.004157  2.181823  0.005  -0.70007  0.002945  2.164254  0.004  -0.350381  -0.660792  0.005453  2.193951  0.007
