# generated using pymatgen
data_Zn4H46C69N16O
_symmetry_space_group_name_H-M   'P 1'
_cell_length_a   16.93624229
_cell_length_b   17.09766904
_cell_length_c   18.72329732
_cell_angle_alpha   106.79114792
_cell_angle_beta   115.24311966
_cell_angle_gamma   101.69536517
_symmetry_Int_Tables_number   1
_chemical_formula_structural   Zn4H46C69N16O
_chemical_formula_sum   'Zn4 H46 C69 N16 O1'
_cell_volume   4349.68859202
_cell_formula_units_Z   1
loop_
 _symmetry_equiv_pos_site_id
 _symmetry_equiv_pos_as_xyz
  1  'x, y, z'
loop_
 _atom_site_type_symbol
 _atom_site_label
 _atom_site_symmetry_multiplicity
 _atom_site_fract_x
 _atom_site_fract_y
 _atom_site_fract_z
 _atom_site_occupancy
 _atom_site_pbe_bader_charge
 _atom_site_pbe_bader_spin_density
 _atom_site_pbe_cm5_charge
 _atom_site_pbe_ddec_charge
 _atom_site_pbe_ddec_spin_density
 _atom_site_pbe_ddec_sum_bond_order
 _atom_site_pbe_magmom
Zn  Zn0  1  0.60444561  0.09476863  0.99817093  1  1.189096  0  0.740103  0.606189  0  2.439759  0
Zn  Zn1  1  0.39153807  0.88912555  0.00555680  1  1.18641  0  0.74318  0.599056  0  2.483399  0
Zn  Zn2  1  0.61942214  0.98562934  0.11695791  1  1.189626  0  0.741058  0.609362  0  2.437576  0
Zn  Zn3  1  0.37435672  0.99762258  0.88498594  1  1.187023  0  0.743399  0.607306  0  2.458244  0
H  H4  1  0.65710377  0.98048559  0.86761600  1  0.091777  0  0.115886  0.102169  0  1.007081  0
H  H5  1  0.33994003  0.01700324  0.13131199  1  0.068533  0  0.116738  0.103772  0  1.006055  0
H  H6  1  0.83315157  0.11744372  0.29185337  1  0.072328  0  0.115707  0.103191  0  1.00168  0
H  H7  1  0.14102568  0.95567556  0.79121393  1  0.123456  0  0.113635  0.101362  0  1.033597  0
H  H8  1  0.17044398  0.81984524  0.95782904  1  0.065283  0  0.115512  0.101733  0  1.005588  0
H  H9  1  0.81721364  0.26607017  0.13767192  1  0.062336  0  0.115524  0.103294  0  0.999622  0
H  H10  1  0.32271110  0.15343010  0.98045450  1  0.107322  0  0.115786  0.102627  0  1.004199  0
H  H11  1  0.64460968  0.14570099  0.27920737  1  0.074982  0  0.114684  0.101092  0  1.010735  0
H  H12  1  0.33999018  0.07169273  0.46901154  1  0.069374  0  0.098045  0.095959  0  1.014277  0
H  H13  1  0.34086832  0.04503112  0.59095872  1  0.052975  0  0.095489  0.09293  0  1.010654  0
H  H14  1  0.60698494  0.26350407  0.77041859  1  0.045177  0  0.097095  0.09634  0  1.005134  0
H  H15  1  0.39083445  0.71187254  0.88376629  1  0.09412  0  0.115297  0.101043  0  1.010245  0
H  H16  1  0.60624930  0.29020022  0.64792037  1  0.046685  0  0.099763  0.098267  0  1.004046  0
H  H17  1  0.63091999  0.23061280  0.53844617  1  0.042443  0  0.096853  0.094192  0  1.013971  0
H  H18  1  0.63851111  0.19818133  0.40602690  1  0.03569  0  0.096587  0.095937  0  1.007517  0
H  H19  1  0.33578897  0.10769638  0.25156610  1  0.055282  0  0.098784  0.099109  0  1.002761  0
H  H20  1  0.32864746  0.14134814  0.38455764  1  0.024685  0  0.099667  0.09732  0  1.005661  0
H  H21  1  0.23564243  0.44440189  0.62905827  1  0.049235  0  0.099315  0.097223  0  1.006309  0
H  H22  1  0.34199725  0.58170516  0.76143382  1  0.07276  0  0.09874  0.09902  0  1.00169  0
H  H23  1  0.30324816  0.72838771  0.60479436  1  0.026536  0  0.097356  0.096573  0  1.00738  0
H  H24  1  0.19547844  0.59140311  0.47313008  1  0.022263  0  0.097481  0.094787  0  1.012602  0
H  H25  1  0.14615982  0.45596413  0.36681557  1  0.04902  0  0.099305  0.098009  0  1.005563  0
H  H26  1  0.67396855  0.83604783  0.19278811  1  0.112376  0  0.115022  0.101562  0  1.005039  0
H  H27  1  0.00031872  0.33509467  0.24115968  1  0.038227  0  0.096592  0.096149  0  1.003802  0
H  H28  1  0.93319131  0.26215942  0.41618422  1  0.034443  0  0.095205  0.0935  0  1.008941  0
H  H29  1  0.07865499  0.38247909  0.54145966  1  0.073042  0  0.097992  0.095633  0  1.012511  0
H  H30  1  0.38350634  0.59346538  0.08552109  1  0.03587  0  0.095838  0.097074  0  1.014485  0
H  H31  1  0.68424772  0.70513204  0.19672948  1  0.024318  0  0.095685  0.094578  0  1.012143  0
H  H32  1  0.30786246  0.43850065  0.05776057  1  0.057116  0  0.097082  0.096774  0  1.000564  0
H  H33  1  0.69667428  0.56622564  0.20317160  1  0.053052  0  0.098719  0.09859  0  0.998383  0
H  H34  1  0.31789135  0.29379617  0.04349900  1  0.046392  0  0.098021  0.09846  0  1.003829  0
H  H35  1  0.61874823  0.40799579  0.15701577  1  0.034815  0  0.097456  0.099537  0  1.013224  0
H  H36  1  0.02859117  0.80136729  0.93137570  1  0.041441  0  0.097175  0.097624  0  1.016741  0
H  H37  1  0.32924558  0.04933291  0.71497594  1  0.090625  0  0.116384  0.103796  0  1.000823  0
H  H38  1  0.91337781  0.76211529  0.97561858  1  0.043794  0  0.096013  0.094718  0  1.002304  0
H  H39  1  0.82120630  0.91097971  0.73841596  1  0.03079  0  0.098748  0.109987  0  1.037191  0
H  H40  1  0.78291761  0.78790936  0.99190291  1  0.043024  0  0.095893  0.096974  0  1.011365  0
H  H41  1  0.72389676  0.90044437  0.80497009  1  0.033523  0  0.096339  0.101459  0  1.008899  0
H  H42  1  0.36987667  0.70880091  0.04344848  1  0.085318  0  0.116305  0.103139  0  1.000137  0
H  H43  1  0.63317212  0.17665375  0.86331289  1  0.113742  0  0.115391  0.102429  0  1.001472  0
H  H44  1  0.37556361  0.85922156  0.72777276  1  0.068744  0  0.115672  0.102092  0  1.006589  0
H  H45  1  0.67259493  0.83086922  0.02154703  1  0.098665  0  0.114631  0.1004  0  1.009874  0
H  H46  1  0.62798900  0.27234479  0.13377116  1  0.119523  0  0.115457  0.101639  0  1.012005  0
H  H47  1  0.90861051  0.00386323  0.71342503  1  0.063439  0  0.098697  0.093797  0  0.989849  0
H  H48  1  0.85271460  0.89347279  0.62903517  1  0.080204  0  0.102498  0.100482  0  0.982437  0
H  H49  1  0.95729035  0.96886186  0.64713285  1  0.061293  0  0.109217  0.11173  0  0.973475  0
C  C50  1  0.65350584  0.95071739  0.91066855  1  0.399317  0  0.008151  -0.047629  0  3.964317  0
C  C51  1  0.37103054  0.74949900  0.77247727  1  0.045539  0  -0.035866  -0.04248  0  4.071028  0
C  C52  1  0.52510342  0.73826173  0.12610715  1  -0.016449  0  -0.03934  -0.042553  0  4.100164  0
C  C53  1  0.47951934  0.12627222  0.75995798  1  0.033973  0  -0.0402  -0.043002  0  4.107738  0
C  C54  1  0.55385304  0.23044489  0.09028675  1  0.341239  0  0.007791  -0.046668  0  3.960009  0
C  C55  1  0.41517214  0.04070307  0.15633115  1  0.43575  0  0.007663  -0.048727  0  3.962796  0
C  C56  1  0.81429048  0.14346514  0.24300163  1  0.396443  0  0.001143  -0.06723  0  4.017076  0
C  C57  1  0.16383303  0.92583088  0.83626603  1  0.425533  0  0.002199  -0.057194  0  3.996707  0
C  C58  1  0.17832557  0.85640318  0.92097642  1  0.435885  0  0.003546  -0.060886  0  4.004054  0
C  C59  1  0.80689663  0.21844859  0.16388976  1  0.423765  0  0.002372  -0.063382  0  4.004163  0
C  C60  1  0.39828514  0.16970955  0.01261560  1  0.35773  0  0.007633  -0.0492  0  3.963998  0
C  C61  1  0.39124728  0.76008796  0.85667832  1  0.384407  0  0.008339  -0.043869  0  3.956709  0
C  C62  1  0.57054742  0.10577906  0.23198641  1  0.431235  0  0.006902  -0.047469  0  3.962446  0
C  C63  1  0.47324931  0.25145196  0.07258082  1  0.086313  0  -0.036617  -0.041272  0  4.071034  0
C  C64  1  0.49061034  0.10472862  0.23872589  1  -0.019061  0  -0.035355  -0.0404  0  4.066611  0
C  C65  1  0.86519766  0.22138895  0.24587244  1  0.03306  0  -0.040035  -0.041915  0  4.108754  0
C  C66  1  0.11127635  0.87828391  0.86212344  1  -0.031361  0  -0.038484  -0.025637  0  4.078297  0
C  C67  1  0.39788593  0.11559948  0.53519797  1  -0.053904  0  -0.095732  -0.129901  0  4.012619  0
C  C68  1  0.39856207  0.10024488  0.60427057  1  -0.083777  0  -0.099725  -0.136063  0  4.015053  0
C  C69  1  0.47527554  0.15052495  0.69011284  1  0.042344  0  -0.013757  0.081288  0  4.05965  0
C  C70  1  0.54844467  0.22063049  0.70408323  1  -0.039962  0  -0.099452  -0.139015  0  4.00904  0
C  C71  1  0.54783669  0.23580788  0.63471866  1  -0.050671  0  -0.095715  -0.130448  0  4.007431  0
C  C72  1  0.59817651  0.81668255  0.15351866  1  0.37389  0  0.001873  -0.062059  0  4.004047  0
C  C73  1  0.47393911  0.18178644  0.54815054  1  -0.03815  0  -0.01296  0.063163  0  4.010795  0
C  C74  1  0.56572596  0.20507930  0.47578645  1  -0.058719  0  -0.095528  -0.129291  0  4.013458  0
C  C75  1  0.56990721  0.18622635  0.40038617  1  -0.035939  0  -0.098023  -0.13502  0  4.002332  0
C  C76  1  0.48740454  0.14531108  0.31727291  1  0.013497  0  -0.010405  0.086048  0  4.044122  0
C  C77  1  0.40118656  0.13451926  0.31430020  1  -0.01336  0  -0.097274  -0.136312  0  4.001531  0
C  C78  1  0.39704997  0.15326253  0.38970154  1  -0.04836  0  -0.096181  -0.129968  0  4.013904  0
C  C79  1  0.47884339  0.18411501  0.47194415  1  0.017413  0  -0.014935  0.055671  0  4.017755  0
C  C80  1  0.24950504  0.50682173  0.62340532  1  -0.051249  0  -0.095455  -0.131015  0  4.015546  0
C  C81  1  0.31024728  0.58463721  0.69835647  1  -0.065065  0  -0.096809  -0.134807  0  3.998767  0
C  C82  1  0.32762600  0.66697105  0.69442508  1  -0.060394  0  -0.008986  0.08857  0  4.044594  0
C  C83  1  0.40443365  0.07551933  0.76172193  1  0.354659  0  0.003927  -0.062106  0  4.010424  0
C  C84  1  0.28965341  0.66626514  0.61098347  1  0.035792  0  -0.098885  -0.136622  0  4.002659  0
C  C85  1  0.22890172  0.58845328  0.53609448  1  -0.01298  0  -0.095507  -0.12922  0  4.014633  0
C  C86  1  0.20348125  0.50734525  0.54082751  1  -0.045514  0  -0.015923  0.056376  0  4.021024  0
C  C87  1  0.09944146  0.41392524  0.37821640  1  -0.121871  0  -0.095448  -0.130717  0  4.010392  0
C  C88  1  0.01694471  0.34577990  0.30715031  1  0.020697  0  -0.098069  -0.137894  0  4.009142  0
C  C89  1  0.95492937  0.28987746  0.31895623  1  -0.008776  0  -0.015207  0.081269  0  4.059582  0
C  C90  1  0.98081108  0.30328533  0.40489716  1  -0.067364  0  -0.099691  -0.138867  0  4.015598  0
C  C91  1  0.06321622  0.37109797  0.47569717  1  -0.056944  0  -0.096238  -0.128922  0  4.01205  0
C  C92  1  0.12381397  0.42918653  0.46428361  1  0.053084  0  -0.012778  0.062679  0  4.01477  0
C  C93  1  0.53192787  0.65875467  0.13829660  1  -0.001162  0  -0.015937  0.082789  0  4.077115  0
C  C94  1  0.44337826  0.75226814  0.07813154  1  0.41448  0  0.00346  -0.059382  0  4.002193  0
C  C95  1  0.46949668  0.33936758  0.09694057  1  0.047466  0  -0.010935  0.090048  0  4.059307  0
C  C96  1  0.37603780  0.43172500  0.07953219  1  -0.071535  0  -0.096513  -0.138749  0  4.025306  0
C  C97  1  0.38187576  0.35079349  0.07160437  1  -0.038285  0  -0.096049  -0.13443  0  4.006354  0
C  C98  1  0.55034897  0.41397685  0.13635413  1  -0.053802  0  -0.094643  -0.189519  0  3.951113  0
C  C99  1  0.54664046  0.49760542  0.14445476  1  -0.024749  0  -0.012224  0.078711  0  4.028132  0
C  C100  1  0.45718201  0.50693438  0.11275829  1  -0.032556  0  -0.012391  0.078484  0  4.023543  0
C  C101  1  0.45245535  0.58812186  0.11135691  1  -0.03887  0  -0.096387  -0.191732  0  3.95307  0
C  C102  1  0.62092390  0.64989451  0.17387458  1  0.005629  0  -0.100666  -0.141448  0  4.025776  0
C  C103  1  0.62810042  0.57228564  0.17738933  1  -0.055135  0  -0.095537  -0.133864  0  4.028322  0
C  C104  1  0.01481100  0.86203152  0.84341622  1  0.032577  0  -0.018505  -0.008595  0  4.036231  0
C  C105  1  0.55913697  0.14152847  0.83794164  1  0.379813  0  0.002674  -0.06099  0  4.002844  0
C  C106  1  0.74626445  0.85025698  0.90221259  1  0.011677  0  -0.01071  0.091059  0  4.062845  0
C  C107  1  0.87172559  0.79250477  0.93832397  1  -0.045671  0  -0.09747  -0.131866  0  4.034251  0
C  C108  1  0.79848838  0.80667416  0.94700255  1  -0.04767  0  -0.103118  -0.147593  0  4.021976  0
C  C109  1  0.76456241  0.86953411  0.84222269  1  0.001364  0  -0.100193  -0.196731  0  3.93968  0
C  C110  1  0.84064600  0.85767504  0.83340357  1  -0.015898  0  -0.01114  0.108933  0  4.050083  0
C  C111  1  0.89831925  0.82188936  0.88533587  1  0.002331  0  -0.021413  0.057438  0  4.052645  0
C  C112  1  0.98333720  0.82472287  0.88786910  1  -0.046321  0  -0.095035  -0.174604  0  3.981066  0
C  C113  1  0.95147073  0.88964822  0.78522881  1  0.433145  0  0.078881  0.207509  0  4.043362  0
C  C114  1  0.86711909  0.88696727  0.78034864  1  -0.003992  0  -0.123566  -0.298872  0  4.026503  0
C  C115  1  0.38319229  0.83515202  0.77709944  1  0.412778  0  0.007458  -0.045891  0  3.961679  0
C  C116  1  0.66233998  0.87498748  0.98969873  1  0.418309  0  0.006366  -0.04842  0  3.96134  0
C  C117  1  0.68580635  0.88487004  0.92826182  1  -0.015694  0  -0.036342  -0.040507  0  4.067422  0
C  C118  1  0.92087636  0.94801896  0.67868758  1  0.359191  0  -0.13348  -0.170205  0  3.943803  0
N  N119  1  0.61589482  0.97807981  0.95892993  1  -0.777323  0  -0.281278  -0.175226  0  3.635966  0
N  N120  1  0.44861213  0.00602008  0.10644058  1  -0.805043  0  -0.282408  -0.177103  0  3.64151  0
N  N121  1  0.73300821  0.09809844  0.16583877  1  -0.792309  0  -0.269644  -0.170285  0  3.553057  0
N  N122  1  0.25379725  0.93174517  0.87678392  1  -0.787267  0  -0.272763  -0.174642  0  3.54619  0
N  N123  1  0.26254128  0.88825551  0.92937032  1  -0.81797  0  -0.274021  -0.169398  0  3.570549  0
N  N124  1  0.72798264  0.14489603  0.11658602  1  -0.820251  0  -0.268983  -0.174248  0  3.539084  0
N  N125  1  0.43248476  0.10656840  0.99524276  1  -0.810214  0  -0.283334  -0.181533  0  3.627796  0
N  N126  1  0.54399008  0.04592074  0.15287371  1  -0.783042  0  -0.281639  -0.181576  0  3.642893  0
N  N127  1  0.41148669  0.84460748  0.90570617  1  -0.791066  0  -0.283719  -0.182648  0  3.641195  0
N  N128  1  0.56262309  0.87228658  0.12443078  1  -0.754071  0  -0.270262  -0.174424  0  3.54152  0
N  N129  1  0.43674785  0.06201218  0.83450630  1  -0.802886  0  -0.271154  -0.173397  0  3.552992  0
N  N130  1  0.46613144  0.83199360  0.07746044  1  -0.826508  0  -0.270583  -0.169473  0  3.554414  0
N  N131  1  0.53322853  0.10286724  0.88199771  1  -0.781719  0  -0.268621  -0.170831  0  3.538456  0
N  N132  1  0.40648903  0.89073833  0.85683993  1  -0.773345  0  -0.28372  -0.186305  0  3.642778  0
N  N133  1  0.62118149  0.93154760  0.00754431  1  -0.802826  0  -0.281499  -0.180133  0  3.625515  0
N  N134  1  0.52815900  0.14402413  0.04294108  1  -0.771893  0  -0.282114  -0.181013  0  3.627125  0
O  O135  1  0.98171438  0.92035675  0.73763906  1  -1.079574  0  -0.184823  -0.156628  0  2.600111  0
