# generated using pymatgen
data_CdH13C20N2O5
_symmetry_space_group_name_H-M   'P 1'
_cell_length_a   13.26264056
_cell_length_b   17.76746642
_cell_length_c   20.97797862
_cell_angle_alpha   83.25427913
_cell_angle_beta   71.61640897
_cell_angle_gamma   68.10408029
_symmetry_Int_Tables_number   1
_chemical_formula_structural   CdH13C20N2O5
_chemical_formula_sum   'Cd8 H104 C160 N16 O40'
_cell_volume   4352.64980956
_cell_formula_units_Z   8
loop_
 _symmetry_equiv_pos_site_id
 _symmetry_equiv_pos_as_xyz
  1  'x, y, z'
loop_
 _atom_site_type_symbol
 _atom_site_label
 _atom_site_symmetry_multiplicity
 _atom_site_fract_x
 _atom_site_fract_y
 _atom_site_fract_z
 _atom_site_occupancy
 _atom_site_pbe_bader_charge
 _atom_site_pbe_bader_spin_density
 _atom_site_pbe_cm5_charge
 _atom_site_pbe_ddec_charge
 _atom_site_pbe_ddec_spin_density
 _atom_site_pbe_ddec_sum_bond_order
 _atom_site_pbe_magmom
Cd  Cd0  1  0.05159513  0.38921186  0.52222843  1  1.32939  0  0.790888  0.975396  0  2.197653  0
Cd  Cd1  1  0.42631076  0.11078966  0.52221385  1  1.331796  0  0.790835  0.975397  0  2.196922  0
Cd  Cd2  1  0.55898172  0.38923328  0.97782599  1  1.332069  0  0.790799  0.975492  0  2.19895  0
Cd  Cd3  1  0.46297357  0.11076498  0.97768414  1  1.32963  0  0.791068  0.975296  0  2.198432  0
Cd  Cd4  1  0.94840962  0.61078957  0.47776939  1  1.329074  0  0.790875  0.975354  0  2.197663  0
Cd  Cd5  1  0.57367578  0.88921480  0.47778867  1  1.33181  0  0.790804  0.975355  0  2.196903  0
Cd  Cd6  1  0.44101488  0.61076633  0.02217370  1  1.332211  0  0.790778  0.975477  0  2.199043  0
Cd  Cd7  1  0.53702164  0.88923463  0.02231220  1  1.329767  0  0.791072  0.975271  0  2.198484  0
H  H8  1  0.21850974  0.58406197  0.61750342  1  0.136531  0  0.118594  0.137037  0  0.983294  0
H  H9  1  0.32886849  0.50120651  0.69729952  1  0.089898  0  0.105457  0.103131  0  1.020998  0
H  H10  1  0.38595583  0.34965416  0.69494434  1  0.083571  0  0.111924  0.118393  0  1.005644  0
H  H11  1  0.24630929  0.26199842  0.71595250  1  0.046359  0  0.090155  0.114568  0  1.064239  0
H  H12  1  0.28787552  0.20015553  0.80499974  1  0.051172  0  0.093416  0.087648  0  1.047882  0
H  H13  1  0.11960119  0.44781758  0.36754031  1  0.155447  0  0.118113  0.099542  0  1.018855  0
H  H14  1  0.19964964  0.39334419  0.25252177  1  0.084933  0  0.106474  0.111077  0  1.030837  0
H  H15  1  0.23526715  0.15414505  0.33884494  1  0.078969  0  0.107028  0.110944  0  1.027178  0
H  H16  1  0.15700346  0.21872821  0.45110937  1  0.178455  0  0.118393  0.101454  0  1.027861  0
H  H17  1  0.18344195  0.01502737  0.92675673  1  0.054232  0  0.10024  0.097919  0  0.99839  0
H  H18  1  0.26775173  0.00609182  0.71060089  1  0.074798  0  0.095249  0.092172  0  1.039769  0
H  H19  1  0.20464844  0.94671665  0.82360449  1  0.054472  0  0.096763  0.091982  0  1.003994  0
H  H20  1  0.22514320  0.14163977  0.91722857  1  0.13482  0  0.104358  0.119672  0  1.020018  0
H  H21  1  0.16417534  0.91597688  0.61725589  1  0.09757  0  0.118708  0.136733  0  0.983297  0
H  H22  1  0.97411527  0.99878434  0.69704613  1  0.090936  0  0.105765  0.103407  0  1.021094  0
H  H23  1  0.91927651  0.15036462  0.69475993  1  0.089454  0  0.111821  0.118176  0  1.005766  0
H  H24  1  0.03780062  0.23802853  0.71598894  1  0.044495  0  0.090216  0.1148  0  1.064356  0
H  H25  1  0.90705353  0.29987564  0.80491833  1  0.059342  0  0.093383  0.087369  0  1.047179  0
H  H26  1  0.51286696  0.05208221  0.36738740  1  0.154883  0  0.118288  0.099398  0  1.01992  0
H  H27  1  0.54808379  0.10662775  0.25240083  1  0.12378  0  0.10657  0.111911  0  1.029751  0
H  H28  1  0.42558357  0.34579372  0.33899589  1  0.080677  0  0.106674  0.109947  0  1.027472  0
H  H29  1  0.39121522  0.28116695  0.45120166  1  0.180027  0  0.118254  0.101914  0  1.027797  0
H  H30  1  0.88970177  0.48483729  0.92700554  1  0.073431  0  0.100428  0.098617  0  0.999271  0
H  H31  1  0.02158634  0.49393709  0.71087854  1  0.093561  0  0.095228  0.092412  0  1.039449  0
H  H32  1  0.97152889  0.55326817  0.82399140  1  0.041591  0  0.097002  0.091447  0  1.003257  0
H  H33  1  0.85758935  0.35826112  0.91725163  1  0.131528  0  0.104313  0.119021  0  1.019997  0
H  H34  1  0.19713545  0.58399124  0.88251463  1  0.140467  0  0.118485  0.136271  0  0.983786  0
H  H35  1  0.16999399  0.50099158  0.80261929  1  0.081213  0  0.104775  0.102143  0  1.022491  0
H  H36  1  0.26455701  0.34945895  0.80495164  1  0.085587  0  0.111557  0.117457  0  1.006233  0
H  H37  1  0.49162767  0.26193209  0.78392220  1  0.050736  0  0.090534  0.114867  0  1.063475  0
H  H38  1  0.51179698  0.20006891  0.69493107  1  0.061019  0  0.092937  0.086339  0  1.049579  0
H  H39  1  0.43216231  0.44787927  0.13256377  1  0.122788  0  0.118372  0.098998  0  1.020228  0
H  H40  1  0.40661196  0.39338173  0.24756436  1  0.11832  0  0.106619  0.111562  0  1.030417  0
H  H41  1  0.61061481  0.15429211  0.16109765  1  0.087319  0  0.106902  0.110538  0  1.027166  0
H  H42  1  0.62400428  0.21885240  0.04887326  1  0.168735  0  0.118482  0.102092  0  1.027616  0
H  H43  1  0.80113319  0.01486436  0.57316168  1  0.071197  0  0.100158  0.098035  0  0.998867  0
H  H44  1  0.72599962  0.00616293  0.78931165  1  0.080389  0  0.095117  0.092168  0  1.038483  0
H  H45  1  0.84833565  0.94666667  0.67628572  1  0.039263  0  0.097201  0.091822  0  1.003863  0
H  H46  1  0.63303586  0.14157953  0.58268067  1  0.12943  0  0.104404  0.119322  0  1.020516  0
H  H47  1  0.91981395  0.91606571  0.88262573  1  0.11093  0  0.118719  0.136784  0  0.983832  0
H  H48  1  0.02702088  0.99895264  0.80287688  1  0.086453  0  0.104835  0.102429  0  1.020722  0
H  H49  1  0.93021482  0.15051158  0.80521284  1  0.08546  0  0.111597  0.117703  0  1.005967  0
H  H50  1  0.72379538  0.23816749  0.78406950  1  0.049387  0  0.08996  0.114211  0  1.065317  0
H  H51  1  0.79287280  0.30008273  0.69522191  1  0.069501  0  0.093017  0.086755  0  1.049428  0
H  H52  1  0.43510448  0.05219160  0.13240026  1  0.161439  0  0.118192  0.098864  0  1.019406  0
H  H53  1  0.34550024  0.10661034  0.24742387  1  0.086597  0  0.106319  0.110809  0  1.031403  0
H  H54  1  0.22825780  0.34581320  0.16107038  1  0.107175  0  0.107232  0.111266  0  1.026311  0
H  H55  1  0.32703700  0.28128372  0.04880075  1  0.171683  0  0.118559  0.101832  0  1.028305  0
H  H56  1  0.62552578  0.48513535  0.57320219  1  0.081134  0  0.099955  0.097728  0  0.999162  0
H  H57  1  0.48420621  0.49400024  0.78932196  1  0.068487  0  0.095249  0.09248  0  1.03831  0
H  H58  1  0.47508740  0.55339503  0.67622281  1  0.051137  0  0.096738  0.091622  0  1.004105  0
H  H59  1  0.78408858  0.35852529  0.58291884  1  0.136  0  0.104217  0.119292  0  1.018691  0
H  H60  1  0.78149512  0.41593825  0.38249726  1  0.136543  0  0.118587  0.137  0  0.983274  0
H  H61  1  0.67113541  0.49879371  0.30270211  1  0.090006  0  0.105413  0.103078  0  1.020992  0
H  H62  1  0.61404963  0.65034545  0.30505762  1  0.083686  0  0.111903  0.118353  0  1.005677  0
H  H63  1  0.75369224  0.73800241  0.28405040  1  0.046402  0  0.090137  0.114547  0  1.064175  0
H  H64  1  0.71212278  0.79984409  0.19500458  1  0.051107  0  0.093396  0.08759  0  1.047926  0
H  H65  1  0.88039995  0.55217900  0.63245955  1  0.155476  0  0.118183  0.099643  0  1.018774  0
H  H66  1  0.80035233  0.60665421  0.74747794  1  0.084912  0  0.106471  0.111079  0  1.030819  0
H  H67  1  0.76473768  0.84585274  0.66115303  1  0.079049  0  0.107083  0.110936  0  1.02718  0
H  H68  1  0.84300007  0.78126837  0.54888811  1  0.178561  0  0.11839  0.101463  0  1.027806  0
H  H69  1  0.81655618  0.98497042  0.07324551  1  0.054207  0  0.100214  0.097885  0  0.998335  0
H  H70  1  0.73224759  0.99390962  0.28940152  1  0.074767  0  0.095275  0.092193  0  1.039724  0
H  H71  1  0.79534832  0.05328357  0.17639711  1  0.054493  0  0.09674  0.091931  0  1.003926  0
H  H72  1  0.77485523  0.85835803  0.08277494  1  0.134761  0  0.104336  0.119652  0  1.020074  0
H  H73  1  0.83582234  0.08402213  0.38274699  1  0.097558  0  0.118727  0.136785  0  0.983269  0
H  H74  1  0.02587893  0.00121466  0.30295466  1  0.090988  0  0.10577  0.103459  0  1.021088  0
H  H75  1  0.08071389  0.84963439  0.30523989  1  0.089636  0  0.111788  0.118051  0  1.005603  0
H  H76  1  0.96219705  0.76197048  0.28401394  1  0.044579  0  0.090226  0.114786  0  1.064361  0
H  H77  1  0.09294500  0.70012518  0.19508201  1  0.059319  0  0.093378  0.087369  0  1.047181  0
H  H78  1  0.48713177  0.94792043  0.63261262  1  0.154822  0  0.118268  0.099388  0  1.019907  0
H  H79  1  0.45191381  0.89337368  0.74759934  1  0.123718  0  0.106561  0.111889  0  1.029751  0
H  H80  1  0.57441246  0.65420893  0.66100523  1  0.080664  0  0.106697  0.109931  0  1.027548  0
H  H81  1  0.60878316  0.71883388  0.54879804  1  0.180041  0  0.118238  0.101851  0  1.027743  0
H  H82  1  0.11030228  0.51516233  0.07299546  1  0.073156  0  0.10041  0.098583  0  0.999314  0
H  H83  1  0.97841988  0.50606010  0.28912150  1  0.091571  0  0.095231  0.092404  0  1.039372  0
H  H84  1  0.02847878  0.44672963  0.17600849  1  0.041289  0  0.097006  0.091412  0  1.003293  0
H  H85  1  0.14241077  0.64174032  0.08274919  1  0.131508  0  0.104307  0.119015  0  1.020014  0
H  H86  1  0.80286488  0.41601141  0.11748461  1  0.140346  0  0.118511  0.136356  0  0.983806  0
H  H87  1  0.83000861  0.49901289  0.19737837  1  0.080928  0  0.104749  0.102058  0  1.022518  0
H  H88  1  0.73543922  0.65054431  0.19504662  1  0.085422  0  0.111524  0.117435  0  1.006269  0
H  H89  1  0.50837228  0.73806813  0.21607782  1  0.050728  0  0.090536  0.114915  0  1.063448  0
H  H90  1  0.48819689  0.79993556  0.30506734  1  0.060971  0  0.092924  0.086363  0  1.049691  0
H  H91  1  0.56783625  0.55212217  0.86743545  1  0.122823  0  0.118358  0.098958  0  1.020235  0
H  H92  1  0.59338816  0.60661850  0.75243391  1  0.118294  0  0.106621  0.111602  0  1.030345  0
H  H93  1  0.38938258  0.84570751  0.83890283  1  0.0873  0  0.106926  0.110573  0  1.02722  0
H  H94  1  0.37599471  0.78114722  0.95112644  1  0.168961  0  0.118436  0.102023  0  1.027651  0
H  H95  1  0.19885767  0.98514011  0.42683656  1  0.07126  0  0.100132  0.098005  0  0.998809  0
H  H96  1  0.27399721  0.99383850  0.21068533  1  0.080525  0  0.095091  0.092124  0  1.038534  0
H  H97  1  0.15166151  0.05333476  0.32371016  1  0.038951  0  0.097182  0.09181  0  1.003959  0
H  H98  1  0.36695624  0.85842372  0.41731773  1  0.129583  0  0.104356  0.119298  0  1.020416  0
H  H99  1  0.08018329  0.08393390  0.11737412  1  0.110948  0  0.118705  0.136764  0  0.983788  0
H  H100  1  0.97297919  0.00104576  0.19712235  1  0.086411  0  0.104816  0.102389  0  1.020743  0
H  H101  1  0.06978634  0.84948682  0.19478845  1  0.085442  0  0.111558  0.117661  0  1.006005  0
H  H102  1  0.27620588  0.76182849  0.21593211  1  0.048974  0  0.089977  0.114232  0  1.065309  0
H  H103  1  0.20712808  0.69991446  0.30477317  1  0.069576  0  0.093009  0.086736  0  1.049495  0
H  H104  1  0.56490146  0.94780559  0.86759612  1  0.161534  0  0.118219  0.098916  0  1.019393  0
H  H105  1  0.65450838  0.89338624  0.75257252  1  0.086594  0  0.106322  0.110797  0  1.031422  0
H  H106  1  0.77174941  0.65418459  0.83892760  1  0.10716  0  0.107185  0.111207  0  1.026376  0
H  H107  1  0.67297085  0.71871468  0.95119867  1  0.17156  0  0.11855  0.101879  0  1.028187  0
H  H108  1  0.37446844  0.51486427  0.42679749  1  0.081419  0  0.099943  0.0977  0  0.999073  0
H  H109  1  0.51580034  0.50599755  0.21067824  1  0.068426  0  0.095271  0.092519  0  1.038313  0
H  H110  1  0.52491235  0.44660398  0.32377880  1  0.051014  0  0.096763  0.09166  0  1.004034  0
H  H111  1  0.21590709  0.64147372  0.41707813  1  0.136033  0  0.104162  0.119218  0  1.018847  0
C  C112  1  0.14824377  0.53745991  0.53297050  1  1.630213  0  0.202917  0.547607  0  4.27154  0
C  C113  1  0.21912517  0.48162470  0.57567523  1  0.359844  0  0.101148  -0.010863  0  3.835887  0
C  C114  1  0.24666892  0.51813398  0.61991322  1  -0.035673  0  -0.076228  -0.121715  0  3.997873  0
C  C115  1  0.30655608  0.47266161  0.66338301  1  -0.027806  0  -0.084826  -0.065573  0  4.038329  0
C  C116  1  0.33813332  0.38859421  0.66227770  1  0.048413  0  -0.074661  -0.128592  0  3.987442  0
C  C117  1  0.31124013  0.35189763  0.61846697  1  0.343432  0  0.110536  0.051062  0  3.829865  0
C  C118  1  0.34717447  0.26113015  0.61439277  1  0.818816  0  0.116923  0.368742  0  4.120219  0
C  C119  1  0.30422170  0.22276429  0.67346990  1  -0.047731  0  -0.157909  -0.449544  0  4.012846  0
C  C120  1  0.32469429  0.13843133  0.68188035  1  0.778394  0  0.123209  0.400517  0  4.053607  0
C  C121  1  0.27977296  0.10774181  0.75035551  1  -0.069487  0  -0.021723  -0.002896  0  3.961067  0
C  C122  1  0.26647283  0.14589934  0.80894419  1  -0.06222  0  -0.086322  -0.096341  0  3.946504  0
C  C123  1  0.14707356  0.38270481  0.35927114  1  0.472089  0  0.048426  0.093016  0  3.934159  0
C  C124  1  0.19128449  0.35149131  0.29439978  1  -0.035635  0  -0.082592  -0.172371  0  3.941353  0
C  C125  1  0.22542253  0.26776362  0.28415662  1  -0.058392  0  0.009107  0.096571  0  3.974971  0
C  C126  1  0.21147671  0.21954923  0.34201569  1  -0.027498  0  -0.080639  -0.16878  0  3.925469  0
C  C127  1  0.16716377  0.25497547  0.40537500  1  0.467452  0  0.054459  0.112224  0  3.905676  0
C  C128  1  0.20998971  0.04105033  0.87737150  1  -0.089191  0  -0.087721  -0.06869  0  3.990928  0
C  C129  1  0.25702138  0.03565831  0.75623941  1  -0.024059  0  -0.095335  -0.115963  0  3.994713  0
C  C130  1  0.22221315  0.00273139  0.81937593  1  -0.100653  0  -0.102461  -0.111891  0  4.073745  0
C  C131  1  0.23236271  0.11275596  0.87211491  1  0.030393  0  -0.087952  -0.072971  0  3.964331  0
C  C132  1  0.31886463  0.96263066  0.53291344  1  1.624088  0  0.202463  0.546656  0  4.270543  0
C  C133  1  0.20524913  0.01842665  0.57552099  1  0.368044  0  0.101476  -0.009169  0  3.830742  0
C  C134  1  0.13353816  0.98190657  0.61967364  1  0.042323  0  -0.075276  -0.119965  0  3.994033  0
C  C135  1  0.03020353  0.02738054  0.66313216  1  -0.068055  0  -0.086072  -0.068064  0  4.038153  0
C  C136  1  0.99970727  0.11144330  0.66208723  1  0.036484  0  -0.074799  -0.128042  0  3.986637  0
C  C137  1  0.07038776  0.14815286  0.61836470  1  0.338277  0  0.110865  0.051944  0  3.829235  0
C  C138  1  0.03860506  0.23892498  0.61434602  1  0.804143  0  0.116904  0.367483  0  4.124201  0
C  C139  1  0.02252290  0.27725512  0.67347061  1  -0.034467  0  -0.157817  -0.449323  0  4.011859  0
C  C140  1  0.99363802  0.36158541  0.68193649  1  0.764999  0  0.122831  0.400833  0  4.053872  0
C  C141  1  0.96983648  0.39228601  0.75046666  1  -0.028269  0  -0.022428  -0.004096  0  3.960162  0
C  C142  1  0.92451682  0.35410294  0.80896956  1  -0.012635  0  -0.085876  -0.095938  0  3.944838  0
C  C143  1  0.49354922  0.11721025  0.35918284  1  0.465239  0  0.048397  0.093473  0  3.935185  0
C  C144  1  0.51436482  0.14844801  0.29434306  1  -0.065929  0  -0.083026  -0.174243  0  3.941487  0
C  C145  1  0.49031183  0.23218995  0.28419746  1  -0.024289  0  0.00912  0.09648  0  3.975511  0
C  C146  1  0.44624075  0.28037745  0.34210965  1  -0.016111  0  -0.080263  -0.167287  0  3.925781  0
C  C147  1  0.42698915  0.24493939  0.40542402  1  0.457629  0  0.054556  0.111336  0  3.907494  0
C  C148  1  0.91246665  0.45889512  0.87757960  1  -0.163637  0  -0.08928  -0.073032  0  3.99358  0
C  C149  1  0.98663837  0.46437013  0.75647011  1  -0.083976  0  -0.095013  -0.116606  0  3.991419  0
C  C150  1  0.95823634  0.49726215  0.81966471  1  -0.032308  0  -0.10197  -0.108681  0  4.070449  0
C  C151  1  0.89542897  0.38719203  0.87219286  1  -0.022084  0  -0.087155  -0.069709  0  3.961503  0
C  C152  1  0.31410838  0.53755793  0.96695549  1  1.646428  0  0.20418  0.549225  0  4.26975  0
C  C153  1  0.29906381  0.48165013  0.92430739  1  0.359101  0  0.103038  -0.007531  0  3.832138  0
C  C154  1  0.23499071  0.51806129  0.88008580  1  -0.03366  0  -0.075544  -0.119961  0  3.995047  0
C  C155  1  0.22074479  0.47250366  0.83656950  1  -0.026511  0  -0.085121  -0.067149  0  4.039662  0
C  C156  1  0.27331836  0.38845277  0.83764811  1  0.025673  0  -0.075131  -0.128055  0  3.987497  0
C  C157  1  0.33689428  0.35186555  0.88145854  1  0.342453  0  0.11115  0.052748  0  3.829668  0
C  C158  1  0.39181378  0.26110864  0.88553443  1  0.847095  0  0.116833  0.36788  0  4.119303  0
C  C159  1  0.47300274  0.22271980  0.82643130  1  -0.08275  0  -0.157964  -0.448936  0  4.011006  0
C  C160  1  0.53678379  0.13839520  0.81801251  1  0.772638  0  0.12298  0.399189  0  4.055008  0
C  C161  1  0.61233061  0.10768995  0.74953004  1  -0.052779  0  -0.021462  -0.001834  0  3.961279  0
C  C162  1  0.58742001  0.14581880  0.69096962  1  -0.085542  0  -0.085244  -0.094271  0  3.947261  0
C  C163  1  0.46980216  0.38277065  0.14079727  1  0.510726  0  0.048223  0.094819  0  3.934544  0
C  C164  1  0.45686671  0.35154790  0.20566085  1  -0.059876  0  -0.082826  -0.173721  0  3.942072  0
C  C165  1  0.50663816  0.26784152  0.21584866  1  -0.023304  0  0.009768  0.09765  0  3.975254  0
C  C166  1  0.56886865  0.21968070  0.15796122  1  -0.077724  0  -0.080609  -0.168781  0  3.926824  0
C  C167  1  0.57762557  0.25509493  0.09461916  1  0.481729  0  0.054008  0.11155  0  3.907915  0
C  C168  1  0.74861264  0.04092572  0.62253480  1  -0.053387  0  -0.089373  -0.072394  0  3.993003  0
C  C169  1  0.70710743  0.03562308  0.74366758  1  -0.068474  0  -0.095783  -0.118273  0  3.991634  0
C  C170  1  0.77480417  0.00267440  0.68051685  1  -0.04725  0  -0.10134  -0.107812  0  4.068668  0
C  C171  1  0.65465833  0.11265166  0.62779097  1  -0.015708  0  -0.08793  -0.071712  0  3.963867  0
C  C172  1  0.71852617  0.96261352  0.96703147  1  1.6383  0  0.202259  0.546273  0  4.271636  0
C  C173  1  0.77622704  0.01844629  0.92435595  1  0.369483  0  0.102139  -0.007455  0  3.83286  0
C  C174  1  0.88449885  0.98198971  0.88019988  1  -0.004011  0  -0.075656  -0.121216  0  3.994757  0
C  C175  1  0.94231439  0.02749885  0.83676210  1  0.04084  0  -0.08469  -0.065753  0  4.035092  0
C  C176  1  0.88868129  0.11155907  0.83782743  1  -0.021526  0  -0.07448  -0.127695  0  3.986475  0
C  C177  1  0.78131887  0.14821537  0.88156259  1  0.350493  0  0.110216  0.051075  0  3.830413  0
C  C178  1  0.72232044  0.23897131  0.88566746  1  0.813766  0  0.1168  0.36776  0  4.12086  0
C  C179  1  0.69995148  0.27736187  0.82660527  1  -0.04331  0  -0.15783  -0.448646  0  4.013711  0
C  C180  1  0.64468334  0.36171387  0.81818878  1  0.765552  0  0.123486  0.399931  0  4.056785  0
C  C181  1  0.63767128  0.39243228  0.74969271  1  -0.046431  0  -0.021527  -0.002356  0  3.962804  0
C  C182  1  0.72122916  0.35430653  0.69118487  1  -0.034139  0  -0.086409  -0.097369  0  3.950108  0
C  C183  1  0.38920865  0.11729767  0.14065569  1  0.46652  0  0.048596  0.094265  0  3.933139  0
C  C184  1  0.33724665  0.14847315  0.20553273  1  -0.04293  0  -0.083191  -0.17307  0  3.941978  0
C  C185  1  0.27742090  0.23218165  0.21575979  1  -0.029562  0  0.010179  0.097494  0  3.975175  0
C  C186  1  0.27307864  0.28040999  0.15789493  1  -0.032506  0  -0.080962  -0.169408  0  3.926453  0
C  C187  1  0.32765397  0.24501363  0.09453638  1  0.487244  0  0.054344  0.111172  0  3.908898  0
C  C188  1  0.62856894  0.45913695  0.62261948  1  -0.063509  0  -0.08813  -0.070436  0  3.992464  0
C  C189  1  0.54874386  0.46445970  0.74372877  1  -0.025924  0  -0.095006  -0.115893  0  3.990928  0
C  C190  1  0.54432177  0.49738748  0.68054692  1  -0.117587  0  -0.102102  -0.110578  0  4.0714  0
C  C191  1  0.71726877  0.38744365  0.62797857  1  -0.077396  0  -0.087164  -0.070134  0  3.961553  0
C  C192  1  0.85176591  0.46253606  0.46702908  1  1.629985  0  0.202812  0.547503  0  4.271766  0
C  C193  1  0.78088344  0.51837310  0.42432609  1  0.35993  0  0.10114  -0.010979  0  3.836168  0
C  C194  1  0.75333657  0.48186624  0.38008762  1  -0.035831  0  -0.076072  -0.121429  0  3.997806  0
C  C195  1  0.69345018  0.52733740  0.33661847  1  -0.027818  0  -0.084847  -0.06565  0  4.038373  0
C  C196  1  0.66187149  0.61140419  0.33772393  1  0.048483  0  -0.074635  -0.128563  0  3.987434  0
C  C197  1  0.68876516  0.64810077  0.38153418  1  0.343426  0  0.110542  0.051177  0  3.829593  0
C  C198  1  0.65283080  0.73886826  0.38561077  1  0.816429  0  0.116831  0.368745  0  4.120159  0
C  C199  1  0.69578121  0.77723533  0.32653379  1  -0.045439  0  -0.157888  -0.449594  0  4.01272  0
C  C200  1  0.67530356  0.86156889  0.31812332  1  0.778044  0  0.123206  0.400512  0  4.053431  0
C  C201  1  0.72022459  0.89225902  0.24964817  1  -0.069657  0  -0.021708  -0.002979  0  3.961214  0
C  C202  1  0.73352310  0.85410088  0.19106139  1  -0.062271  0  -0.086222  -0.096091  0  3.946541  0
C  C203  1  0.85293091  0.61729055  0.64072523  1  0.472059  0  0.048366  0.092992  0  3.934142  0
C  C204  1  0.80871953  0.64850588  0.70559850  1  -0.035616  0  -0.082548  -0.172399  0  3.941083  0
C  C205  1  0.77457990  0.73223356  0.71584246  1  -0.058277  0  0.00917  0.096589  0  3.974875  0
C  C206  1  0.78853062  0.78044735  0.65798277  1  -0.027632  0  -0.080734  -0.168677  0  3.925393  0
C  C207  1  0.83283834  0.74502172  0.59462280  1  0.467555  0  0.054483  0.112159  0  3.905593  0
C  C208  1  0.79000779  0.95894807  0.12263185  1  -0.089087  0  -0.087679  -0.068644  0  3.990943  0
C  C209  1  0.74297457  0.96434191  0.24376378  1  -0.024165  0  -0.095338  -0.115899  0  3.994752  0
C  C210  1  0.77778295  0.99726822  0.18062662  1  -0.100567  0  -0.102491  -0.111919  0  4.073718  0
C  C211  1  0.76763539  0.88724184  0.12788972  1  0.030703  0  -0.087977  -0.073061  0  3.964535  0
C  C212  1  0.68113282  0.03737260  0.46708993  1  1.624696  0  0.202462  0.546599  0  4.270202  0
C  C213  1  0.79474589  0.98157478  0.42448331  1  0.367762  0  0.101477  -0.009189  0  3.830856  0
C  C214  1  0.86645400  0.01809487  0.38033113  1  0.042325  0  -0.075308  -0.119982  0  3.994036  0
C  C215  1  0.96979240  0.97261847  0.33687087  1  -0.067843  0  -0.086122  -0.06827  0  4.038243  0
C  C216  1  0.00028000  0.88855813  0.33791449  1  0.036364  0  -0.074799  -0.127855  0  3.986566  0
C  C217  1  0.92960501  0.85184676  0.38163880  1  0.338201  0  0.1109  0.052007  0  3.829283  0
C  C218  1  0.96139122  0.76107524  0.38565606  1  0.804052  0  0.116837  0.367374  0  4.124202  0
C  C219  1  0.97747619  0.72274328  0.32653196  1  -0.034448  0  -0.157796  -0.449308  0  4.011872  0
C  C220  1  0.00636524  0.63841360  0.31806243  1  0.764959  0  0.122891  0.40095  0  4.053777  0
C  C221  1  0.03016712  0.60771421  0.24953369  1  -0.028356  0  -0.022418  -0.004081  0  3.960059  0
C  C222  1  0.07548092  0.64589850  0.19103126  1  -0.012508  0  -0.085881  -0.095994  0  3.945055  0
C  C223  1  0.50644821  0.88279118  0.64081908  1  0.465185  0  0.048403  0.093499  0  3.935128  0
C  C224  1  0.48563280  0.85155403  0.70565601  1  -0.065841  0  -0.083013  -0.17419  0  3.941555  0
C  C225  1  0.50968511  0.76781027  0.71580239  1  -0.024389  0  0.009071  0.096417  0  3.975541  0
C  C226  1  0.55375525  0.71962398  0.65789131  1  -0.015986  0  -0.080257  -0.167268  0  3.925879  0
C  C227  1  0.57300989  0.75506265  0.59457600  1  0.457658  0  0.054632  0.111532  0  3.907299  0
C  C228  1  0.08753601  0.54110571  0.12242060  1  -0.163562  0  -0.089324  -0.0731  0  3.993678  0
C  C229  1  0.01336709  0.53562828  0.24352930  1  -0.081715  0  -0.094981  -0.116576  0  3.99128  0
C  C230  1  0.04176819  0.50273746  0.18033581  1  -0.032067  0  -0.101944  -0.108589  0  4.07055  0
C  C231  1  0.10457181  0.61281001  0.12780701  1  -0.022057  0  -0.087135  -0.069633  0  3.961656  0
C  C232  1  0.68589089  0.46244654  0.03304310  1  1.647131  0  0.204096  0.549078  0  4.270035  0
C  C233  1  0.70093490  0.51835131  0.07569247  1  0.35906  0  0.103054  -0.007362  0  3.832036  0
C  C234  1  0.76501171  0.48194197  0.11991106  1  -0.033143  0  -0.075587  -0.120217  0  3.995069  0
C  C235  1  0.77925496  0.52750080  0.16342862  1  -0.026442  0  -0.085044  -0.066883  0  4.039533  0
C  C236  1  0.72668166  0.61155049  0.16235112  1  0.025798  0  -0.075161  -0.128169  0  3.987559  0
C  C237  1  0.66310448  0.64813770  0.11854037  1  0.342357  0  0.111181  0.052836  0  3.829674  0
C  C238  1  0.60818435  0.73889462  0.11446431  1  0.84715  0  0.116838  0.367829  0  4.119439  0
C  C239  1  0.52699374  0.77728102  0.17356791  1  -0.082723  0  -0.158002  -0.449106  0  4.011012  0
C  C240  1  0.46321269  0.86160502  0.18198543  1  0.772636  0  0.123075  0.399403  0  4.054746  0
C  C241  1  0.38766622  0.89231209  0.25046822  1  -0.052535  0  -0.021443  -0.001843  0  3.961196  0
C  C242  1  0.41257430  0.85418385  0.30902927  1  -0.084943  0  -0.085307  -0.094378  0  3.947542  0
C  C243  1  0.53019797  0.61722957  0.85920100  1  0.510677  0  0.048162  0.094777  0  3.934681  0
C  C244  1  0.54313245  0.64845232  0.79433837  1  -0.059886  0  -0.082786  -0.17366  0  3.942163  0
C  C245  1  0.49336001  0.73215748  0.78415135  1  -0.023297  0  0.009797  0.097588  0  3.975281  0
C  C246  1  0.43112828  0.78031952  0.84203863  1  -0.077309  0  -0.080599  -0.168748  0  3.926769  0
C  C247  1  0.42237215  0.74490530  0.90538149  1  0.48108  0  0.054018  0.111594  0  3.907767  0
C  C248  1  0.25138267  0.95907936  0.37746346  1  -0.053419  0  -0.089292  -0.072301  0  3.993061  0
C  C249  1  0.29288765  0.96437835  0.25632956  1  -0.069113  0  -0.09579  -0.118253  0  3.991515  0
C  C250  1  0.22519213  0.99733189  0.31948063  1  -0.047079  0  -0.101331  -0.107829  0  4.068838  0
C  C251  1  0.34533537  0.88735159  0.37220665  1  -0.016004  0  -0.087851  -0.071652  0  3.96379  0
C  C252  1  0.28146935  0.03738731  0.03296870  1  1.638363  0  0.202338  0.546333  0  4.27158  0
C  C253  1  0.22377319  0.98155271  0.07564519  1  0.36951  0  0.10214  -0.007479  0  3.832845  0
C  C254  1  0.11549725  0.01800930  0.11980139  1  -0.00397  0  -0.075624  -0.121152  0  3.994561  0
C  C255  1  0.05768472  0.97249955  0.16323807  1  0.040823  0  -0.084667  -0.065657  0  4.035202  0
C  C256  1  0.11131675  0.88844055  0.16217083  1  -0.021499  0  -0.074467  -0.127721  0  3.986625  0
C  C257  1  0.21868244  0.85178242  0.11843807  1  0.350452  0  0.110209  0.051032  0  3.830455  0
C  C258  1  0.27768186  0.76102831  0.11433369  1  0.813617  0  0.116866  0.367942  0  4.120901  0
C  C259  1  0.30005143  0.72263593  0.17339460  1  -0.042818  0  -0.157861  -0.448732  0  4.013724  0
C  C260  1  0.35532191  0.63828211  0.18180966  1  0.765623  0  0.123444  0.399889  0  4.056804  0
C  C261  1  0.36233488  0.60756187  0.25030574  1  -0.046288  0  -0.021553  -0.002385  0  3.962795  0
C  C262  1  0.27877091  0.64569066  0.30881180  1  -0.033951  0  -0.086421  -0.097375  0  3.950165  0
C  C263  1  0.61079967  0.88269952  0.85934070  1  0.46761  0  0.04865  0.0943  0  3.933015  0
C  C264  1  0.66276194  0.85152222  0.79446350  1  -0.043711  0  -0.083254  -0.17315  0  3.942151  0
C  C265  1  0.72259038  0.76781372  0.78423772  1  -0.029779  0  0.010186  0.097561  0  3.975397  0
C  C266  1  0.72692918  0.71958720  0.84210433  1  -0.032494  0  -0.080931  -0.169384  0  3.92652  0
C  C267  1  0.67235387  0.75498417  0.90546176  1  0.476566  0  0.054322  0.111101  0  3.908773  0
C  C268  1  0.37142797  0.54086145  0.37737894  1  -0.06373  0  -0.088148  -0.070407  0  3.992383  0
C  C269  1  0.45126175  0.53553809  0.25627000  1  -0.026098  0  -0.094967  -0.115874  0  3.991006  0
C  C270  1  0.45567754  0.50261335  0.31945421  1  -0.117508  0  -0.102102  -0.110575  0  4.071373  0
C  C271  1  0.28272930  0.61255657  0.37201858  1  -0.077572  0  -0.087074  -0.070049  0  3.961687  0
N  N272  1  0.25396335  0.39809089  0.57423247  1  -0.572763  0  -0.083721  0.297693  0  3.896811  0
N  N273  1  0.13559308  0.33532434  0.41407451  1  -1.219878  0  -0.321057  -0.234353  0  3.483835  0
N  N274  1  0.17183556  0.10197290  0.57414231  1  -0.56307  0  -0.084565  0.295593  0  3.896227  0
N  N275  1  0.44998981  0.16456744  0.41403459  1  -1.219449  0  -0.320993  -0.233817  0  3.484914  0
N  N276  1  0.34786259  0.39813019  0.92572281  1  -0.55179  0  -0.08484  0.294565  0  3.896684  0
N  N277  1  0.52871325  0.33542885  0.08597826  1  -1.227906  0  -0.320654  -0.234613  0  3.484614  0
N  N278  1  0.72607646  0.10197866  0.92577062  1  -0.579442  0  -0.083958  0.29552  0  3.897326  0
N  N279  1  0.38519389  0.16467670  0.08585465  1  -1.235464  0  -0.321262  -0.23381  0  3.484656  0
N  N280  1  0.74604588  0.60190629  0.42576774  1  -0.57282  0  -0.083679  0.29763  0  3.896746  0
N  N281  1  0.86441180  0.66466982  0.58592600  1  -1.220069  0  -0.321133  -0.234456  0  3.4841  0
N  N282  1  0.82815799  0.89802732  0.42586326  1  -0.562894  0  -0.084521  0.295659  0  3.896312  0
N  N283  1  0.55000872  0.83543278  0.58596447  1  -1.219426  0  -0.321033  -0.233943  0  3.484867  0
N  N284  1  0.65213806  0.60187307  0.07427659  1  -0.551734  0  -0.084844  0.294533  0  3.896509  0
N  N285  1  0.47128480  0.66457137  0.91402127  1  -1.22785  0  -0.320623  -0.234598  0  3.48452  0
N  N286  1  0.27392367  0.89802216  0.07422893  1  -0.579377  0  -0.083996  0.295462  0  3.897522  0
N  N287  1  0.61481112  0.83532170  0.91414285  1  -1.224942  0  -0.321258  -0.233808  0  3.48463  0
O  O288  1  0.09552795  0.50885137  0.50530901  1  -1.158442  0  -0.338932  -0.578636  0  2.414953  0
O  O289  1  0.14109712  0.60952048  0.52970044  1  -1.142472  0  -0.311044  -0.517717  0  2.112591  0
O  O290  1  0.23600034  0.35998171  0.53190891  1  -0.590806  0  -0.22003  -0.448902  0  2.085275  0
O  O291  1  0.41622464  0.22917535  0.55870709  1  -1.112176  0  -0.303943  -0.471217  0  2.287664  0
O  O292  1  0.37905651  0.08517939  0.63534674  1  -1.150198  0  -0.30716  -0.491836  0  2.272928  0
O  O293  1  0.39916312  0.99125775  0.50526974  1  -1.159882  0  -0.338808  -0.578699  0  2.416833  0
O  O294  1  0.32943973  0.89052334  0.52966419  1  -1.140081  0  -0.311002  -0.517899  0  2.111125  0
O  O295  1  0.23212879  0.14006851  0.53190508  1  -0.592339  0  -0.219115  -0.446746  0  2.083861  0
O  O296  1  0.02528380  0.27089983  0.55864066  1  -1.109308  0  -0.303806  -0.470897  0  2.292168  0
O  O297  1  0.98609521  0.41483021  0.63539140  1  -1.137977  0  -0.306982  -0.492198  0  2.273411  0
O  O298  1  0.39573150  0.50907421  0.99435854  1  -1.165518  0  -0.340922  -0.581755  0  2.416224  0
O  O299  1  0.24895320  0.60954338  0.97040185  1  -1.148683  0  -0.310637  -0.517463  0  2.111602  0
O  O300  1  0.40391706  0.36008825  0.96804800  1  -0.595357  0  -0.219474  -0.446845  0  2.084351  0
O  O301  1  0.35489093  0.22917141  0.94126434  1  -1.110989  0  -0.303935  -0.471217  0  2.289558  0
O  O302  1  0.53562983  0.08515045  0.86454705  1  -1.144319  0  -0.307465  -0.491711  0  2.27343  0
O  O303  1  0.60960074  0.99119453  0.99459709  1  -1.174166  0  -0.339171  -0.578883  0  2.417253  0
O  O304  1  0.78017562  0.89058204  0.97040665  1  -1.155394  0  -0.310759  -0.517766  0  2.111809  0
O  O305  1  0.62773782  0.14007058  0.96804121  1  -0.585728  0  -0.219732  -0.447236  0  2.084502  0
O  O306  1  0.70367528  0.27091703  0.94139254  1  -1.109376  0  -0.303924  -0.471123  0  2.289725  0
O  O307  1  0.59935323  0.41498096  0.86471595  1  -1.129007  0  -0.307345  -0.491835  0  2.274861  0
O  O308  1  0.90447857  0.49114521  0.49469103  1  -1.158502  0  -0.33889  -0.578582  0  2.41512  0
O  O309  1  0.85890751  0.39047671  0.47030039  1  -1.14247  0  -0.311002  -0.517662  0  2.112587  0
O  O310  1  0.76400877  0.64001669  0.46809083  1  -0.590803  0  -0.220084  -0.448915  0  2.085185  0
O  O311  1  0.58378033  0.77082306  0.44129518  1  -1.112127  0  -0.303902  -0.471188  0  2.287649  0
O  O312  1  0.62094215  0.91482144  0.36465662  1  -1.149866  0  -0.307209  -0.491836  0  2.272786  0
O  O313  1  0.60082907  0.00874611  0.49473773  1  -1.160233  0  -0.33887  -0.578749  0  2.41656  0
O  O314  1  0.67056001  0.10948173  0.47033520  1  -1.140173  0  -0.310914  -0.517765  0  2.110899  0
O  O315  1  0.76786798  0.85993353  0.46810035  1  -0.592548  0  -0.21907  -0.446751  0  2.084042  0
O  O316  1  0.97471504  0.72910099  0.44136095  1  -1.109311  0  -0.303772  -0.470841  0  2.292099  0
O  O317  1  0.01390709  0.58516819  0.36460720  1  -1.137933  0  -0.307042  -0.492265  0  2.273278  0
O  O318  1  0.60426481  0.49092662  0.00564243  1  -1.165722  0  -0.340914  -0.581739  0  2.416305  0
O  O319  1  0.75105168  0.39046230  0.02959295  1  -1.149259  0  -0.310546  -0.517358  0  2.111737  0
O  O320  1  0.59608403  0.63991197  0.03194932  1  -0.595406  0  -0.219524  -0.446911  0  2.084206  0
O  O321  1  0.64510451  0.77083245  0.05873440  1  -1.111159  0  -0.303944  -0.471181  0  2.28964  0
O  O322  1  0.46436460  0.91485037  0.13545104  1  -1.144434  0  -0.307505  -0.491784  0  2.27331  0
O  O323  1  0.39039589  0.00880569  0.00540149  1  -1.173971  0  -0.339246  -0.579022  0  2.417377  0
O  O324  1  0.21982373  0.10942061  0.02959592  1  -1.155511  0  -0.310793  -0.517771  0  2.111754  0
O  O325  1  0.37225785  0.85992964  0.03195832  1  -0.585777  0  -0.21974  -0.447217  0  2.084634  0
O  O326  1  0.29632705  0.72908380  0.05860877  1  -1.109304  0  -0.303972  -0.471195  0  2.289763  0
O  O327  1  0.40064891  0.58501683  0.13528073  1  -1.129162  0  -0.3073  -0.491787  0  2.274872  0
