# generated using pymatgen
data_ZnPH7C4N2O3
_symmetry_space_group_name_H-M   'P 1'
_cell_length_a   5.14678297
_cell_length_b   8.40995515
_cell_length_c   17.13098290
_cell_angle_alpha   90.00054180
_cell_angle_beta   93.73766662
_cell_angle_gamma   89.99976682
_symmetry_Int_Tables_number   1
_chemical_formula_structural   ZnPH7C4N2O3
_chemical_formula_sum   'Zn4 P4 H28 C16 N8 O12'
_cell_volume   739.92393937
_cell_formula_units_Z   4
loop_
 _symmetry_equiv_pos_site_id
 _symmetry_equiv_pos_as_xyz
  1  'x, y, z'
loop_
 _atom_site_type_symbol
 _atom_site_label
 _atom_site_symmetry_multiplicity
 _atom_site_fract_x
 _atom_site_fract_y
 _atom_site_fract_z
 _atom_site_occupancy
 _atom_site_hle17_bader_spin_density
 _atom_site_hle17_ddec_charge
 _atom_site_hle17_ddec_spin_density
 _atom_site_hle17_ddec_sum_bond_order
 _atom_site_hle17_magmom
 _atom_site_hse06_10hf_bader_spin_density
 _atom_site_hse06_10hf_ddec_charge
 _atom_site_hse06_10hf_ddec_spin_density
 _atom_site_hse06_10hf_ddec_sum_bond_order
 _atom_site_hse06_10hf_magmom
 _atom_site_hse06_bader_spin_density
 _atom_site_hse06_ddec_charge
 _atom_site_hse06_ddec_spin_density
 _atom_site_hse06_ddec_sum_bond_order
 _atom_site_hse06_magmom
 _atom_site_pbe_bader_spin_density
 _atom_site_pbe_cm5_charge
 _atom_site_pbe_ddec_charge
 _atom_site_pbe_ddec_spin_density
 _atom_site_pbe_ddec_sum_bond_order
 _atom_site_pbe_magmom
Zn  Zn0  1  0.81691918  0.64464525  0.57078544  1  0  1.147487  0  1.82852  0  0  0.970731  0  2.312483  0  0  1.013532  0  2.253226  0  0  0.709932  0.940698  0  2.35338  0
Zn  Zn1  1  0.18307697  0.14464678  0.92921271  1  0  1.147507  0  1.828556  0  0  0.970795  0  2.312573  0  0  1.01356  0  2.253292  0  0  0.70995  0.940751  0  2.353458  0
Zn  Zn2  1  0.18307940  0.35535299  0.42921259  1  0  1.147507  0  1.828542  0  0  0.970801  0  2.312544  0  0  1.01357  0  2.253264  0  0  0.709971  0.940755  0  2.353437  0
Zn  Zn3  1  0.81693329  0.85535740  0.07078555  1  0  1.147528  0  1.828504  0  0  0.970776  0  2.312527  0  0  1.013564  0  2.253258  0  0  0.709934  0.940745  0  2.353425  0
P  P4  1  0.29650189  0.71720539  0.47432300  1  0  1.55149  0  4.84308  0  0  1.404734  0  5.330982  0  0  1.453674  0  5.293422  0  0  0.329635  1.370575  0  5.356344  0
P  P5  1  0.70349020  0.21720983  0.02567585  1  0  1.551654  0  4.843219  0  0  1.404928  0  5.331083  0  0  1.453871  0  5.293519  0  0  0.329696  1.370773  0  5.356448  0
P  P6  1  0.70349280  0.28279284  0.52567671  1  0  1.55161  0  4.843056  0  0  1.404911  0  5.33091  0  0  1.453846  0  5.293349  0  0  0.329689  1.37075  0  5.356278  0
P  P7  1  0.29651812  0.78279435  0.97432120  1  0  1.551883  0  4.842899  0  0  1.405187  0  5.330773  0  0  1.454119  0  5.293204  0  0  0.329726  1.371033  0  5.356141  0
H  H8  1  0.25715625  0.00249289  0.46889898  1  0  0.163866  0  0.967671  0  0  0.183861  0  1.021331  0  0  0.186104  0  1.0215  0  0  0.101772  0.182177  0  1.021372  0
H  H9  1  0.74283320  0.50249554  0.03110056  1  0  0.163839  0  0.96768  0  0  0.183884  0  1.021267  0  0  0.186126  0  1.021435  0  0  0.1018  0.182199  0  1.021307  0
H  H10  1  0.74283649  0.99750653  0.53110127  1  0  0.16384  0  0.967666  0  0  0.183884  0  1.021269  0  0  0.186128  0  1.021435  0  0  0.1018  0.182201  0  1.02131  0
H  H11  1  0.25716927  0.49750626  0.96889755  1  0  0.163849  0  0.967634  0  0  0.183901  0  1.021233  0  0  0.186144  0  1.0214  0  0  0.101828  0.182216  0  1.021275  0
H  H12  1  0.97577705  0.90476158  0.42505995  1  0  0.164965  0  0.951409  0  0  0.183623  0  1.00573  0  0  0.186178  0  1.005597  0  0  0.101326  0.181764  0  1.005914  0
H  H13  1  0.02421589  0.40476266  0.07493921  1  0  0.165008  0  0.951383  0  0  0.183661  0  1.005703  0  0  0.186215  0  1.005572  0  0  0.101354  0.181801  0  1.005888  0
H  H14  1  0.02422154  0.09523904  0.57494101  1  0  0.164978  0  0.951398  0  0  0.183649  0  1.00571  0  0  0.186203  0  1.005579  0  0  0.101333  0.181788  0  1.005894  0
H  H15  1  0.97578658  0.59524628  0.92505773  1  0  0.164986  0  0.9514  0  0  0.183646  0  1.005728  0  0  0.1862  0  1.005598  0  0  0.101341  0.181786  0  1.005912  0
H  H16  1  0.26890729  0.91723050  0.37412162  1  0  0.147908  0  0.977433  0  0  0.163657  0  1.038996  0  0  0.165711  0  1.040167  0  0  0.093228  0.16217  0  1.038251  0
H  H17  1  0.73108557  0.41723679  0.12587759  1  0  0.147991  0  0.977332  0  0  0.16371  0  1.038932  0  0  0.165768  0  1.040098  0  0  0.093232  0.162223  0  1.038187  0
H  H18  1  0.73108935  0.08276654  0.62587871  1  0  0.147913  0  0.977416  0  0  0.163664  0  1.038993  0  0  0.165718  0  1.040163  0  0  0.093231  0.162179  0  1.038242  0
H  H19  1  0.26891106  0.58276858  0.87411982  1  0  0.147949  0  0.977389  0  0  0.163691  0  1.038976  0  0  0.165745  0  1.040147  0  0  0.093258  0.162206  0  1.038226  0
H  H20  1  0.38197067  0.85130524  0.65543303  1  0  0.116364  0  0.969851  0  0  0.12564  0  1.02711  0  0  0.128562  0  1.025695  0  0  0.118616  0.123491  0  1.028263  0
H  H21  1  0.61803403  0.35131361  0.84457443  1  0  0.116473  0  0.969616  0  0  0.125753  0  1.026879  0  0  0.128677  0  1.02546  0  0  0.118609  0.123601  0  1.028034  0
H  H22  1  0.61804156  0.14867873  0.34457052  1  0  0.116484  0  0.969621  0  0  0.125774  0  1.026867  0  0  0.128703  0  1.02544  0  0  0.118603  0.123622  0  1.028025  0
H  H23  1  0.38197234  0.64870365  0.15542609  1  0  0.116469  0  0.969798  0  0  0.125771  0  1.027007  0  0  0.128693  0  1.025593  0  0  0.118685  0.123622  0  1.028156  0
H  H24  1  0.49155317  0.96398731  0.80867547  1  0  0.119837  0  0.974784  0  0  0.125599  0  1.041064  0  0  0.128714  0  1.039472  0  0  0.120808  0.123326  0  1.042334  0
H  H25  1  0.50844113  0.46400491  0.69133056  1  0  0.119784  0  0.974677  0  0  0.125532  0  1.040999  0  0  0.128646  0  1.039413  0  0  0.120791  0.123259  0  1.042268  0
H  H26  1  0.50844931  0.03599784  0.19132498  1  0  0.119799  0  0.974657  0  0  0.125576  0  1.040955  0  0  0.128695  0  1.039357  0  0  0.120798  0.123301  0  1.042223  0
H  H27  1  0.49154382  0.53601235  0.30866662  1  0  0.119863  0  0.974749  0  0  0.125626  0  1.041025  0  0  0.128743  0  1.03943  0  0  0.120836  0.123351  0  1.042295  0
H  H28  1  0.11956250  0.68402247  0.74000934  1  0  0.080749  0  0.968587  0  0  0.088562  0  1.03778  0  0  0.090235  0  1.036561  0  0  0.131889  0.087295  0  1.038693  0
H  H29  1  0.88043731  0.18402502  0.75998848  1  0  0.080755  0  0.968493  0  0  0.088551  0  1.03771  0  0  0.090223  0  1.036493  0  0  0.131878  0.087268  0  1.038642  0
H  H30  1  0.88044776  0.31596744  0.25999009  1  0  0.08078  0  0.968585  0  0  0.088569  0  1.037794  0  0  0.090242  0  1.036574  0  0  0.131861  0.08728  0  1.038722  0
H  H31  1  0.11957101  0.81597202  0.24001265  1  0  0.08075  0  0.968494  0  0  0.088552  0  1.037704  0  0  0.090225  0  1.036483  0  0  0.131854  0.08728  0  1.038615  0
H  H32  1  0.95390781  0.85822081  0.84745266  1  0  0.321812  0  0.921246  0  0  0.301668  0  0.980231  0  0  0.310229  0  0.974112  0  0  0.311377  0.295659  0  0.984564  0
H  H33  1  0.04609295  0.35823283  0.65255124  1  0  0.321935  0  0.921172  0  0  0.301743  0  0.980161  0  0  0.310305  0  0.97404  0  0  0.311411  0.295735  0  0.984496  0
H  H34  1  0.04609857  0.14176791  0.15254902  1  0  0.321903  0  0.921139  0  0  0.301679  0  0.980166  0  0  0.310239  0  0.974048  0  0  0.311398  0.295671  0  0.984503  0
H  H35  1  0.95389395  0.64177135  0.34744948  1  0  0.321875  0  0.921245  0  0  0.301715  0  0.980231  0  0  0.310275  0  0.974112  0  0  0.311412  0.295703  0  0.984566  0
C  C36  1  0.18919356  0.90312168  0.43150308  1  0  -0.64758  0  3.627149  0  0  -0.698037  0  3.849224  0  0  -0.709829  0  3.852667  0  0  -0.259158  -0.689691  0  3.846906  0
C  C37  1  0.81079938  0.40312549  0.06849666  1  0  -0.647721  0  3.627083  0  0  -0.698183  0  3.849132  0  0  -0.709977  0  3.852569  0  0  -0.259234  -0.689838  0  3.846815  0
C  C38  1  0.81080502  0.09687775  0.56849788  1  0  -0.647605  0  3.627109  0  0  -0.698127  0  3.849167  0  0  -0.709919  0  3.852609  0  0  -0.259206  -0.689782  0  3.846845  0
C  C39  1  0.18920310  0.59687869  0.93150203  1  0  -0.647682  0  3.627005  0  0  -0.698211  0  3.849104  0  0  -0.710005  0  3.852545  0  0  -0.25927  -0.689865  0  3.846785  0
C  C40  1  0.55048231  0.83512103  0.69597877  1  0  -0.025546  0  3.760202  0  0  -0.055088  0  4.022547  0  0  -0.054514  0  4.043018  0  0  -0.007467  -0.055471  0  4.008824  0
C  C41  1  0.44949910  0.33513379  0.80402174  1  0  -0.025646  0  3.760557  0  0  -0.055177  0  4.022913  0  0  -0.054609  0  4.043388  0  0  -0.007461  -0.055557  0  4.009185  0
C  C42  1  0.44951433  0.16486412  0.30402215  1  0  -0.025778  0  3.760551  0  0  -0.055326  0  4.022935  0  0  -0.05476  0  4.043412  0  0  -0.007498  -0.055706  0  4.009209  0
C  C43  1  0.55048584  0.66488109  0.19597136  1  0  -0.025704  0  3.760055  0  0  -0.055264  0  4.022437  0  0  -0.054692  0  4.042908  0  0  -0.007577  -0.055644  0  4.008718  0
C  C44  1  0.60359801  0.89175813  0.77070691  1  0  -0.013543  0  3.672429  0  0  -0.050386  0  3.931982  0  0  -0.048981  0  3.950604  0  0  0.001002  -0.051304  0  3.919571  0
C  C45  1  0.39639478  0.39176007  0.72930517  1  0  -0.013421  0  3.672946  0  0  -0.050324  0  3.932464  0  0  -0.048919  0  3.951091  0  0  0.001101  -0.051237  0  3.920058  0
C  C46  1  0.39640838  0.10823773  0.22929945  1  0  -0.013342  0  3.672598  0  0  -0.050303  0  3.932069  0  0  -0.048901  0  3.950699  0  0  0.001149  -0.051205  0  3.919659  0
C  C47  1  0.60359214  0.60823935  0.27070022  1  0  -0.013511  0  3.672213  0  0  -0.050372  0  3.931752  0  0  -0.048967  0  3.950373  0  0  0.001041  -0.05129  0  3.919345  0
C  C48  1  0.93247236  0.74356637  0.73692722  1  0  0.215076  0  3.671698  0  0  0.159301  0  3.932097  0  0  0.173259  0  3.945573  0  0  0.143445  0.150345  0  3.922599  0
C  C49  1  0.06752516  0.24357808  0.76307433  1  0  0.215225  0  3.671457  0  0  0.159407  0  3.931822  0  0  0.173365  0  3.945291  0  0  0.143512  0.150466  0  3.922334  0
C  C50  1  0.06752623  0.25642235  0.26307489  1  0  0.215126  0  3.67131  0  0  0.159288  0  3.931631  0  0  0.173242  0  3.945103  0  0  0.143537  0.150362  0  3.922153  0
C  C51  1  0.93247342  0.75642967  0.23692720  1  0  0.215157  0  3.671661  0  0  0.159373  0  3.932042  0  0  0.173331  0  3.945518  0  0  0.143493  0.150421  0  3.922555  0
N  N52  1  0.75791252  0.74232104  0.67551488  1  0  -0.414544  0  3.301881  0  0  -0.333236  0  3.602029  0  0  -0.353644  0  3.613937  0  0  -0.361738  -0.319374  0  3.593665  0
N  N53  1  0.24207722  0.24233350  0.82448710  1  0  -0.414607  0  3.301935  0  0  -0.333344  0  3.602127  0  0  -0.353742  0  3.614018  0  0  -0.361803  -0.319478  0  3.593752  0
N  N54  1  0.24208996  0.25766055  0.32448906  1  0  -0.414538  0  3.302054  0  0  -0.333302  0  3.602288  0  0  -0.353699  0  3.614183  0  0  -0.361836  -0.319435  0  3.593908  0
N  N55  1  0.75792526  0.75768138  0.17551568  1  0  -0.414469  0  3.30187  0  0  -0.333158  0  3.602007  0  0  -0.353562  0  3.61391  0  0  -0.361694  -0.319297  0  3.593645  0
N  N56  1  0.84477211  0.83231542  0.79518587  1  0  -0.271042  0  3.431281  0  0  -0.20042  0  3.659565  0  0  -0.216958  0  3.675516  0  0  -0.372156  -0.189373  0  3.648594  0
N  N57  1  0.15523269  0.33232819  0.70481683  1  0  -0.271309  0  3.43128  0  0  -0.200497  0  3.659406  0  0  -0.217032  0  3.675352  0  0  -0.372272  -0.18947  0  3.648463  0
N  N58  1  0.15524010  0.16767092  0.20481242  1  0  -0.271238  0  3.430921  0  0  -0.200322  0  3.658928  0  0  -0.216851  0  3.674876  0  0  -0.372254  -0.189303  0  3.64799  0
N  N59  1  0.84476590  0.66768075  0.29518529  1  0  -0.271244  0  3.431227  0  0  -0.200564  0  3.659467  0  0  -0.217104  0  3.675417  0  0  -0.372237  -0.189517  0  3.648507  0
O  O60  1  0.59641036  0.72090072  0.48241343  1  0  -0.874161  0  1.981841  0  0  -0.77813  0  2.275051  0  0  -0.805792  0  2.249105  0  0  -0.389042  -0.758593  0  2.292406  0
O  O61  1  0.40358365  0.22090217  0.01758605  1  0  -0.874199  0  1.981937  0  0  -0.778214  0  2.275165  0  0  -0.805855  0  2.249193  0  0  -0.389086  -0.758673  0  2.292512  0
O  O62  1  0.40358433  0.27909989  0.51758627  1  0  -0.874214  0  1.981864  0  0  -0.778253  0  2.275106  0  0  -0.805887  0  2.249132  0  0  -0.389102  -0.758714  0  2.292455  0
O  O63  1  0.59642467  0.77910082  0.98241217  1  0  -0.874373  0  1.981963  0  0  -0.778335  0  2.275117  0  0  -0.805979  0  2.24915  0  0  -0.389105  -0.758798  0  2.29247  0
O  O64  1  0.18259585  0.69686493  0.55479990  1  0  -0.886437  0  1.976068  0  0  -0.793545  0  2.269721  0  0  -0.820594  0  2.243674  0  0  -0.391222  -0.774297  0  2.28698  0
O  O65  1  0.81739610  0.19686523  0.94519958  1  0  -0.886516  0  1.976181  0  0  -0.793669  0  2.269871  0  0  -0.820708  0  2.243805  0  0  -0.391254  -0.774404  0  2.287093  0
O  O66  1  0.81740079  0.30313212  0.44520043  1  0  -0.886503  0  1.976177  0  0  -0.793627  0  2.269828  0  0  -0.820683  0  2.243785  0  0  -0.391236  -0.774353  0  2.287028  0
O  O67  1  0.18260637  0.80313895  0.05479736  1  0  -0.886603  0  1.976194  0  0  -0.793782  0  2.269903  0  0  -0.820824  0  2.243844  0  0  -0.391286  -0.774519  0  2.287127  0
O  O68  1  0.19225715  0.58864897  0.41463730  1  0  -0.896689  0  2.057544  0  0  -0.798515  0  2.348617  0  0  -0.825857  0  2.322696  0  0  -0.382251  -0.779378  0  2.366201  0
O  O69  1  0.80773764  0.08865430  0.08536158  1  0  -0.896741  0  2.057669  0  0  -0.798536  0  2.348727  0  0  -0.825911  0  2.322833  0  0  -0.382223  -0.779413  0  2.366316  0
O  O70  1  0.80773170  0.41135046  0.58536230  1  0  -0.89673  0  2.05758  0  0  -0.798551  0  2.348651  0  0  -0.825906  0  2.322747  0  0  -0.382242  -0.779416  0  2.366237  0
O  O71  1  0.19227262  0.91134988  0.91463609  1  0  -0.89674  0  2.057538  0  0  -0.798577  0  2.348599  0  0  -0.825916  0  2.322678  0  0  -0.382232  -0.779456  0  2.366187  0
