# generated using pymatgen
data_CoH9C9(NO2)2
_symmetry_space_group_name_H-M   'P 1'
_cell_length_a   6.92613079
_cell_length_b   7.63772634
_cell_length_c   22.32474788
_cell_angle_alpha   89.99587487
_cell_angle_beta   90.00103651
_cell_angle_gamma   89.99860034
_symmetry_Int_Tables_number   1
_chemical_formula_structural   CoH9C9(NO2)2
_chemical_formula_sum   'Co4 H36 C36 N8 O16'
_cell_volume   1180.97673803
_cell_formula_units_Z   4
loop_
 _symmetry_equiv_pos_site_id
 _symmetry_equiv_pos_as_xyz
  1  'x, y, z'
loop_
 _atom_site_type_symbol
 _atom_site_label
 _atom_site_symmetry_multiplicity
 _atom_site_fract_x
 _atom_site_fract_y
 _atom_site_fract_z
 _atom_site_occupancy
 _atom_site_pbe_bader_charge
 _atom_site_pbe_bader_spin_density
 _atom_site_pbe_cm5_charge
 _atom_site_pbe_ddec_charge
 _atom_site_pbe_ddec_spin_density
 _atom_site_pbe_ddec_sum_bond_order
 _atom_site_pbe_magmom
Co  Co0  1  0.44041749  0.76071668  0.28904410  1  1.27751  2.617884  0.661301  0.898576  2.830314  2.428387  2.597
Co  Co1  1  0.55925540  0.76046378  0.71112624  1  1.276238  2.617606  0.660696  0.897999  2.829292  2.426425  2.597
Co  Co2  1  0.94077934  0.23955393  0.21118498  1  1.276105  2.61754  0.661093  0.899054  2.829274  2.426992  2.597
Co  Co3  1  0.05968407  0.23937131  0.78902963  1  1.27793  2.617839  0.66164  0.899244  2.830308  2.429086  2.597
H  H4  1  0.35382981  0.59616268  0.11238993  1  0.059649  0.000518  0.100422  0.116477  0.000107  0.998444  0.0
H  H5  1  0.14735585  0.72865885  0.11927290  1  0.088906  0.000616  0.10889  0.1361  0.000217  0.962782  0.0
H  H6  1  0.45276616  0.89863745  0.12298590  1  0.035204  0.002982  0.102875  0.063916  0.001218  0.973496  0.001
H  H7  1  0.66748911  0.86017670  0.20648489  1  0.481207  6.9e-05  0.288132  0.295655  6.8e-05  1.002061  0.0
H  H8  1  0.61282765  0.65135543  0.18936821  1  0.439811  0.001642  0.295726  0.29256  0.000953  0.951792  0.001
H  H9  1  0.02086429  0.70584886  0.32184086  1  0.11964  0.001343  0.12284  0.102465  0.000306  0.996212  0.001
H  H10  1  0.81658249  0.71236143  0.41245093  1  0.127834  0.000887  0.109713  0.121427  0.000385  1.027095  0.0
H  H11  1  0.32220282  0.87639592  0.51182918  1  0.087502  0.000635  0.105446  0.109314  0.00032  1.03872  0.0
H  H12  1  0.50455291  0.86503331  0.41465605  1  0.140744  0.001274  0.114249  0.084993  0.000194  1.053803  0.001
H  H13  1  0.64821778  0.59600490  0.88792873  1  0.057728  0.000517  0.100209  0.11606  0.000109  0.998461  0.0
H  H14  1  0.85361838  0.72965211  0.88078265  1  0.083633  0.000627  0.108807  0.135691  0.00022  0.96378  0.0
H  H15  1  0.54723670  0.89784744  0.87726927  1  0.034272  0.002929  0.10308  0.06422  0.001194  0.973951  0.001
H  H16  1  0.33258220  0.85899067  0.79388143  1  0.482893  5.4e-05  0.288108  0.296211  4.4e-05  1.001067  0.0
H  H17  1  0.38751108  0.65033297  0.81105838  1  0.435782  0.001686  0.295647  0.292685  0.000961  0.952526  0.001
H  H18  1  0.97878631  0.70772110  0.67782196  1  0.125439  0.001334  0.122918  0.102472  0.000301  0.996635  0.001
H  H19  1  0.18141628  0.71408939  0.58682919  1  0.091052  0.000902  0.109683  0.12199  0.000388  1.026934  0.0
H  H20  1  0.67240345  0.87051678  0.48780665  1  0.065557  0.000611  0.105094  0.10965  0.000306  1.04212  0.0
H  H21  1  0.49161862  0.85891177  0.58518657  1  0.124965  0.001258  0.11395  0.083918  0.000179  1.055311  0.001
H  H22  1  0.85156758  0.40391169  0.38800441  1  0.058231  0.000518  0.100187  0.115946  0.00011  0.998435  0.0
H  H23  1  0.64619110  0.27027907  0.38085156  1  0.081251  0.00063  0.108688  0.135156  0.000221  0.963848  0.0
H  H24  1  0.95254803  0.10206221  0.37733597  1  0.032806  0.002933  0.102929  0.064113  0.001195  0.973495  0.001
H  H25  1  0.16726265  0.14095752  0.29394783  1  0.483975  4.4e-05  0.28818  0.29615  4e-05  1.001192  0.0
H  H26  1  0.11246619  0.34956055  0.31119277  1  0.436439  0.001703  0.295591  0.292616  0.00097  0.952358  0.001
H  H27  1  0.52118004  0.29232978  0.17785156  1  0.124708  0.001334  0.122878  0.102524  0.0003  0.996347  0.001
H  H28  1  0.31860107  0.28595317  0.08684938  1  0.091202  0.000902  0.109703  0.121795  0.000389  1.027108  0.0
H  H29  1  0.82762463  0.12942867  0.98787477  1  0.065964  0.000611  0.105026  0.109444  0.000305  1.042106  0.0
H  H30  1  0.00838564  0.14102638  0.08524985  1  0.125578  0.001257  0.114032  0.084126  0.00018  1.05506  0.001
H  H31  1  0.14620351  0.40387323  0.61231900  1  0.059706  0.000518  0.100475  0.116632  0.000107  0.998351  0.0
H  H32  1  0.35256958  0.27136515  0.61916250  1  0.085188  0.000615  0.109128  0.136457  0.000215  0.963429  0.0
H  H33  1  0.04727356  0.10133732  0.62294611  1  0.03433  0.002987  0.102901  0.063916  0.001219  0.973237  0.001
H  H34  1  0.83267096  0.13981450  0.70647528  1  0.480292  7.2e-05  0.288052  0.295563  6.5e-05  1.002194  0.0
H  H35  1  0.88715237  0.34865245  0.68928205  1  0.440198  0.001655  0.295622  0.29281  0.000958  0.951597  0.001
H  H36  1  0.47921468  0.29421132  0.82184973  1  0.120263  0.001342  0.122753  0.102465  0.000305  0.99616  0.001
H  H37  1  0.68342379  0.28766001  0.91247447  1  0.127911  0.000886  0.109669  0.121401  0.000385  1.026986  0.0
H  H38  1  0.17778409  0.12362698  0.01182126  1  0.087687  0.000634  0.105428  0.109362  0.000319  1.038718  0.0
H  H39  1  0.99545783  0.13499684  0.91464880  1  0.141096  0.001276  0.114138  0.084772  0.000195  1.053646  0.001
C  C40  1  0.19683575  0.55812052  0.19327375  1  1.567253  0.003818  0.220059  0.655317  0.002954  4.098698  0.002
C  C41  1  0.27318768  0.67910942  0.14401502  1  -0.06695  0.005268  -0.16078  -0.342215  0.002505  3.910406  0.003
C  C42  1  0.39987688  0.83202913  0.16369387  1  0.321574  0.008446  -0.002521  0.07531  0.004391  3.897268  0.005
C  C43  1  0.27771196  0.96832329  0.19794576  1  1.578816  0.004673  0.218089  0.569801  0.003076  4.122948  0.003
C  C44  1  0.96887661  0.74615269  0.41647830  1  -0.088589  0.00099  -0.084142  -0.178969  -0.000829  3.949989  0.002
C  C45  1  0.05362087  0.79008811  0.47168751  1  0.004133  -0.020381  0.002433  0.092912  -0.022141  4.003411  -0.012
C  C46  1  0.25056741  0.83421731  0.47093050  1  -0.062603  -0.000386  -0.08959  -0.181365  -0.001779  3.964381  0.001
C  C47  1  0.35291162  0.82840670  0.41763798  1  0.449752  -0.010409  0.041479  0.087724  -0.011554  3.958677  -0.006
C  C48  1  0.08202066  0.74200203  0.36510467  1  0.474634  -0.011416  0.045918  0.091846  -0.012267  3.931276  -0.006
C  C49  1  0.80468253  0.55850234  0.80689131  1  1.553013  0.003912  0.219477  0.655583  0.003001  4.09992  0.002
C  C50  1  0.72798224  0.67917176  0.85616138  1  -0.054487  0.005229  -0.160191  -0.340733  0.002499  3.910683  0.003
C  C51  1  0.60036811  0.83147901  0.83655041  1  0.319787  0.008386  -0.003414  0.073736  0.00435  3.901115  0.004
C  C52  1  0.72174117  0.96808547  0.80217374  1  1.587572  0.004801  0.217932  0.570289  0.003176  4.123888  0.003
C  C53  1  0.02880257  0.74676423  0.58300615  1  0.010762  0.00103  -0.084693  -0.181597  -0.000808  3.95321  0.002
C  C54  1  0.94297046  0.78942266  0.52783931  1  -0.012962  -0.020246  0.002838  0.093138  -0.02222  4.004916  -0.012
C  C55  1  0.74531292  0.83059764  0.52872920  1  0.017928  -0.000226  -0.090022  -0.182777  -0.001702  3.96612  0.001
C  C56  1  0.64378023  0.82448582  0.58215535  1  0.44527  -0.01065  0.041994  0.090239  -0.01176  3.959008  -0.006
C  C57  1  0.91656964  0.74253932  0.63457339  1  0.403197  -0.01137  0.045496  0.0923  -0.012244  3.932721  -0.006
C  C58  1  0.69525250  0.44142988  0.30693742  1  1.552146  0.00393  0.219334  0.655676  0.003008  4.09882  0.002
C  C59  1  0.77184888  0.32074100  0.35622614  1  -0.054236  0.005233  -0.159997  -0.340154  0.002501  3.909768  0.003
C  C60  1  0.89952248  0.16847582  0.33661113  1  0.348766  0.008347  -0.003018  0.074162  0.004355  3.900298  0.004
C  C61  1  0.77830908  0.03190666  0.30220583  1  1.587086  0.004833  0.217584  0.569893  0.003202  4.124429  0.003
C  C62  1  0.47121456  0.25328567  0.08304367  1  0.010845  0.001023  -0.08444  -0.180768  -0.000815  3.952249  0.002
C  C63  1  0.55702595  0.21062031  0.02787964  1  -0.012777  -0.020247  0.002485  0.092423  -0.022223  4.004822  -0.012
C  C64  1  0.75468643  0.16937444  0.02878283  1  0.017672  -0.000242  -0.089798  -0.182236  -0.001715  3.966385  0.001
C  C65  1  0.85622518  0.17549341  0.08221029  1  0.445557  -0.010633  0.041581  0.089591  -0.011741  3.959602  -0.006
C  C66  1  0.58345188  0.25750881  0.13461494  1  0.403627  -0.011369  0.045464  0.092073  -0.01224  3.931895  -0.006
C  C67  1  0.30325723  0.44185134  0.69319468  1  1.563992  0.003825  0.21966  0.655146  0.002944  4.098335  0.002
C  C68  1  0.22682874  0.32089500  0.64394793  1  -0.063087  0.005272  -0.16114  -0.343038  0.002508  3.911018  0.003
C  C69  1  0.10015804  0.16797771  0.66365720  1  0.320895  0.008455  -0.002622  0.07555  0.004394  3.896664  0.005
C  C70  1  0.22230767  0.03173924  0.69792971  1  1.57806  0.004711  0.218228  0.569821  0.003103  4.123396  0.003
C  C71  1  0.53113279  0.25385613  0.91649377  1  -0.088477  0.000985  -0.084109  -0.178801  -0.000831  3.949742  0.002
C  C72  1  0.44640492  0.20991323  0.97171039  1  0.004908  -0.0204  0.002395  0.09286  -0.022164  4.003493  -0.012
C  C73  1  0.24944967  0.16579859  0.97092919  1  -0.063395  -0.000392  -0.089517  -0.181376  -0.001784  3.964443  0.001
C  C74  1  0.14710086  0.17162558  0.91763193  1  0.44983  -0.01041  0.041644  0.088091  -0.011557  3.958086  -0.006
C  C75  1  0.41799736  0.25804124  0.86510963  1  0.474084  -0.011418  0.046082  0.091723  -0.012273  3.931006  -0.006
N  N76  1  0.55752640  0.76980123  0.20201847  1  -1.153606  0.069842  -0.63419  -0.630283  0.036429  3.438448  0.054
N  N77  1  0.27213805  0.78063092  0.36517594  1  -1.235408  0.037202  -0.329769  -0.23747  0.019753  3.562229  0.032
N  N78  1  0.44267047  0.76877181  0.79835412  1  -1.148976  0.069355  -0.633775  -0.631186  0.036212  3.439093  0.054
N  N79  1  0.72604740  0.77946170  0.63469021  1  -1.214864  0.037011  -0.329378  -0.237436  0.019718  3.561689  0.032
N  N80  1  0.05722375  0.23122781  0.29841455  1  -1.177867  0.069455  -0.634119  -0.631455  0.03624  3.438805  0.054
N  N81  1  0.77397268  0.22056808  0.13473821  1  -1.216471  0.036974  -0.329308  -0.237533  0.019712  3.562229  0.032
N  N82  1  0.94255544  0.23027601  0.70199244  1  -1.152585  0.069882  -0.63411  -0.630642  0.036455  3.437283  0.054
N  N83  1  0.22787852  0.21939662  0.86516692  1  -1.235499  0.037183  -0.329841  -0.237576  0.019742  3.562134  0.032
O  O84  1  0.23127778  0.58380117  0.24841771  1  -1.158077  0.067344  -0.303227  -0.56305  0.034305  2.273905  0.058
O  O85  1  0.09823705  0.43064915  0.17245332  1  -1.169269  0.078423  -0.326207  -0.574639  0.040597  2.35677  0.063
O  O86  1  0.30945998  0.98050376  0.25428497  1  -1.162403  0.073579  -0.304745  -0.534332  0.037469  2.361714  0.061
O  O87  1  0.15530053  0.05669569  0.16903635  1  -1.176209  0.066137  -0.301654  -0.551042  0.034004  2.309927  0.057
O  O88  1  0.77043646  0.58454389  0.75175969  1  -1.157645  0.066766  -0.303327  -0.564264  0.034088  2.272289  0.058
O  O89  1  0.90306806  0.43089518  0.82776282  1  -1.163337  0.078278  -0.326092  -0.574481  0.040498  2.355729  0.063
O  O90  1  0.68885091  0.98074878  0.74590500  1  -1.16541  0.07349  -0.30464  -0.533997  0.03734  2.361774  0.061
O  O91  1  0.84459682  0.05622144  0.83097585  1  -1.178883  0.065771  -0.301335  -0.551303  0.033839  2.309313  0.056
O  O92  1  0.72941877  0.41525192  0.25180710  1  -1.156714  0.06668  -0.303199  -0.564306  0.034063  2.271703  0.058
O  O93  1  0.59704869  0.56911909  0.32782047  1  -1.161799  0.07818  -0.326061  -0.574463  0.040463  2.355012  0.063
O  O94  1  0.81138803  0.01930880  0.24594565  1  -1.165385  0.073527  -0.304513  -0.533912  0.037346  2.362215  0.061
O  O95  1  0.65541039  0.94378954  0.33100527  1  -1.178478  0.065879  -0.30108  -0.551059  0.033892  2.309772  0.057
O  O96  1  0.26884158  0.41604655  0.74833595  1  -1.157097  0.067251  -0.302752  -0.562803  0.034275  2.274536  0.058
O  O97  1  0.40188213  0.56927600  0.67233894  1  -1.166479  0.078373  -0.326199  -0.574502  0.040568  2.355257  0.063
O  O98  1  0.19050524  0.01968969  0.75427487  1  -1.162166  0.0736  -0.305005  -0.534507  0.037502  2.36231  0.061
O  O99  1  0.34469861  0.94343966  0.66899211  1  -1.175391  0.066176  -0.301552  -0.550865  0.034033  2.309533  0.057
