# generated using pymatgen
data_Zn3H16C28(NO7)2
_symmetry_space_group_name_H-M   'P 1'
_cell_length_a   8.92816185
_cell_length_b   9.84693375
_cell_length_c   9.96840452
_cell_angle_alpha   101.00522978
_cell_angle_beta   105.98631466
_cell_angle_gamma   118.76233270
_symmetry_Int_Tables_number   1
_chemical_formula_structural   Zn3H16C28(NO7)2
_chemical_formula_sum   'Zn3 H16 C28 N2 O14'
_cell_volume   681.98490896
_cell_formula_units_Z   1
loop_
 _symmetry_equiv_pos_site_id
 _symmetry_equiv_pos_as_xyz
  1  'x, y, z'
loop_
 _atom_site_type_symbol
 _atom_site_label
 _atom_site_symmetry_multiplicity
 _atom_site_fract_x
 _atom_site_fract_y
 _atom_site_fract_z
 _atom_site_occupancy
 _atom_site_hle17_bader_spin_density
 _atom_site_hle17_ddec_charge
 _atom_site_hle17_ddec_spin_density
 _atom_site_hle17_ddec_sum_bond_order
 _atom_site_hle17_magmom
 _atom_site_hse06_10hf_bader_spin_density
 _atom_site_hse06_10hf_ddec_charge
 _atom_site_hse06_10hf_ddec_spin_density
 _atom_site_hse06_10hf_ddec_sum_bond_order
 _atom_site_hse06_10hf_magmom
 _atom_site_hse06_bader_spin_density
 _atom_site_hse06_ddec_charge
 _atom_site_hse06_ddec_spin_density
 _atom_site_hse06_ddec_sum_bond_order
 _atom_site_hse06_magmom
 _atom_site_pbe_bader_spin_density
 _atom_site_pbe_cm5_charge
 _atom_site_pbe_ddec_charge
 _atom_site_pbe_ddec_spin_density
 _atom_site_pbe_ddec_sum_bond_order
 _atom_site_pbe_magmom
Zn  Zn0  1  0.99999481  0.50000035  0.49999405  1  0  1.244911  0  1.689878  0  0  1.09473  0  2.147253  0  0  1.141295  0  2.083489  0  0  0.70009  1.061944  0  2.191824  0
Zn  Zn1  1  0.20073291  0.60035995  0.16282266  1  0  1.119742  0  1.713519  0  0  0.932615  0  2.173978  0  0  0.985328  0  2.113886  0  0  0.687384  0.893002  0  2.218913  0
Zn  Zn2  1  0.79926485  0.39963983  0.83717849  1  0  1.119752  0  1.713469  0  0  0.932614  0  2.173919  0  0  0.9853  0  2.113878  0  0  0.687371  0.893  0  2.218852  0
H  H3  1  0.53484773  0.68465394  0.81792585  1  0  0.116288  0  0.957983  0  0  0.122005  0  1.026859  0  0  0.125379  0  1.024919  0  0  0.112067  0.119803  0  1.027827  0
H  H4  1  0.46514143  0.31534324  0.18207162  1  0  0.116299  0  0.95799  0  0  0.122028  0  1.026849  0  0  0.1254  0  1.024911  0  0  0.112056  0.119825  0  1.027816  0
H  H5  1  0.90912427  0.83201577  0.27798342  1  0  0.113663  0  0.952948  0  0  0.124558  0  1.010017  0  0  0.127022  0  1.010781  0  0  0.109372  0.122587  0  1.009652  0
H  H6  1  0.09087319  0.16797412  0.72201074  1  0  0.113651  0  0.952975  0  0  0.124547  0  1.010056  0  0  0.127002  0  1.010828  0  0  0.109374  0.122573  0  1.009691  0
H  H7  1  0.85823545  0.78881914  0.00845640  1  0  0.11308  0  0.942843  0  0  0.123329  0  1.000439  0  0  0.126402  0  0.998051  0  0  0.114195  0.120393  0  1.003219  0
H  H8  1  0.14175651  0.21116941  0.99153711  1  0  0.113078  0  0.942815  0  0  0.123337  0  1.000399  0  0  0.126407  0  0.99801  0  0  0.114204  0.120401  0  1.003176  0
H  H9  1  0.61349591  0.97082179  0.43424316  1  0  0.095797  0  0.973987  0  0  0.104675  0  1.040205  0  0  0.107875  0  1.037562  0  0  0.105431  0.102516  0  1.041843  0
H  H10  1  0.38650903  0.02917818  0.56575283  1  0  0.095845  0  0.97393  0  0  0.104713  0  1.040171  0  0  0.107925  0  1.037494  0  0  0.10544  0.10256  0  1.041805  0
H  H11  1  0.81312065  0.86695373  0.81885453  1  0  0.104026  0  0.964864  0  0  0.112185  0  1.032322  0  0  0.115421  0  1.029582  0  0  0.109843  0.109884  0  1.034369  0
H  H12  1  0.18687632  0.13304852  0.18114689  1  0  0.10405  0  0.964921  0  0  0.11221  0  1.032376  0  0  0.115447  0  1.029634  0  0  0.109871  0.10991  0  1.034421  0
H  H13  1  0.70654910  0.57810133  0.38006040  1  0  0.106448  0  0.974584  0  0  0.112255  0  1.046189  0  0  0.115793  0  1.043634  0  0  0.105477  0.109684  0  1.048  0
H  H14  1  0.29345648  0.42189979  0.61994400  1  0  0.106352  0  0.974626  0  0  0.112148  0  1.046232  0  0  0.11567  0  1.043713  0  0  0.105434  0.109577  0  1.048043  0
H  H15  1  0.18391070  0.77155501  0.45830284  1  0  0.436003  0  0.863369  0  0  0.400963  0  0.935472  0  0  0.41258  0  0.918651  0  0  0.292886  0.39262  0  0.947548  0
H  H16  1  0.81609540  0.22844869  0.54169516  1  0  0.435941  0  0.863424  0  0  0.400886  0  0.935574  0  0  0.412505  0  0.91875  0  0  0.292876  0.392542  0  0.947651  0
H  H17  1  0.25261686  0.80271558  0.63330969  1  0  0.43295  0  0.801726  0  0  0.417838  0  0.849451  0  0  0.425578  0  0.84162  0  0  0.32791  0.412215  0  0.855321  0
H  H18  1  0.74738605  0.19727561  0.36668811  1  0  0.432903  0  0.801778  0  0  0.417787  0  0.849497  0  0  0.425527  0  0.841669  0  0  0.327894  0.412163  0  0.855372  0
C  C19  1  0.42287841  0.67061439  0.98301563  1  0  0.094989  0  3.737659  0  0  0.100004  0  3.975086  0  0  0.100211  0  3.99573  0  0  0.110937  0.098943  0  3.962184  0
C  C20  1  0.57712129  0.32939038  0.01698798  1  0  0.095067  0  3.737545  0  0  0.10014  0  3.974867  0  0  0.100353  0  3.995511  0  0  0.110993  0.099079  0  3.961971  0
C  C21  1  0.62261122  0.75012674  0.23080582  1  0  0.237363  0  3.746967  0  0  0.23322  0  3.986786  0  0  0.241178  0  4.007631  0  0  0.132915  0.22761  0  3.973234  0
C  C22  1  0.37739206  0.24987438  0.76919498  1  0  0.237424  0  3.746986  0  0  0.233223  0  3.986871  0  0  0.241185  0  4.007706  0  0  0.132909  0.227612  0  3.97332  0
C  C23  1  0.56588569  0.70588707  0.93621309  1  0  -0.090125  0  3.677042  0  0  -0.117861  0  3.931203  0  0  -0.121349  0  3.950096  0  0  -0.068227  -0.11582  0  3.919204  0
C  C24  1  0.43410347  0.29409892  0.06378222  1  0  -0.090193  0  3.677083  0  0  -0.117943  0  3.931201  0  0  -0.121438  0  3.9501  0  0  -0.068219  -0.115901  0  3.919202  0
C  C25  1  0.77244560  0.78617564  0.19077669  1  0  -0.136754  0  3.666454  0  0  -0.156136  0  3.911647  0  0  -0.163195  0  3.93288  0  0  -0.074071  -0.151273  0  3.897214  0
C  C26  1  0.22755461  0.21382424  0.80921909  1  0  -0.136804  0  3.666463  0  0  -0.156198  0  3.911685  0  0  -0.163246  0  3.932919  0  0  -0.074113  -0.151331  0  3.897251  0
C  C27  1  0.74451214  0.76465250  0.04225359  1  0  0.020203  0  3.674777  0  0  -4e-06  0  3.93046  0  0  0.003704  0  3.946433  0  0  -0.058236  -0.002256  0  3.92048  0
C  C28  1  0.25548142  0.23534231  0.95773952  1  0  0.020286  0  3.674756  0  0  7.5e-05  0  3.930435  0  0  0.003789  0  3.946403  0  0  -0.058204  -0.002171  0  3.920445  0
C  C29  1  0.22295199  0.59108010  0.86994955  1  0  0.671346  0  3.851999  0  0  0.617  0  4.14197  0  0  0.652105  0  4.133103  0  0  0.23385  0.593213  0  4.14706  0
C  C30  1  0.77704608  0.40892585  0.13005687  1  0  0.671316  0  3.851817  0  0  0.617021  0  4.141712  0  0  0.652124  0  4.132855  0  0  0.233863  0.593229  0  4.146803  0
C  C31  1  0.65670227  0.77321573  0.38985871  1  0  0.005744  0  3.789622  0  0  0.025262  0  4.029362  0  0  0.021262  0  4.051417  0  0  -0.009563  0.027587  0  4.014412  0
C  C32  1  0.34330416  0.22678670  0.61014215  1  0  0.005668  0  3.789674  0  0  0.02526  0  4.029325  0  0  0.021261  0  4.051374  0  0  -0.009551  0.027586  0  4.014375  0
C  C33  1  0.71897122  0.93659797  0.63817021  1  0  -0.073637  0  3.76467  0  0  -0.046689  0  4.001544  0  0  -0.056106  0  4.023962  0  0  -0.021414  -0.041441  0  3.987125  0
C  C34  1  0.28103479  0.06340566  0.36183278  1  0  -0.073742  0  3.764834  0  0  -0.04678  0  4.001704  0  0  -0.056197  0  4.024128  0  0  -0.02147  -0.041532  0  3.987285  0
C  C35  1  0.65710663  0.89906249  0.48267556  1  0  -0.067301  0  3.687571  0  0  -0.106745  0  3.940347  0  0  -0.10269  0  3.956113  0  0  -0.074189  -0.108582  0  3.929478  0
C  C36  1  0.34290104  0.10093999  0.51732260  1  0  -0.067273  0  3.68771  0  0  -0.106744  0  3.940454  0  0  -0.102684  0  3.956222  0  0  -0.074172  -0.108582  0  3.929582  0
C  C37  1  0.76487913  0.83699706  0.69794545  1  0  -0.057302  0  3.684105  0  0  -0.09473  0  3.929342  0  0  -0.090811  0  3.947606  0  0  -0.068122  -0.097203  0  3.917721  0
C  C38  1  0.23511788  0.16300148  0.30205327  1  0  -0.057298  0  3.68411  0  0  -0.094736  0  3.929362  0  0  -0.09082  0  3.947627  0  0  -0.068117  -0.097208  0  3.917742  0
C  C39  1  0.75383682  0.70417905  0.60393201  1  0  -0.063009  0  3.756114  0  0  -0.035789  0  3.989114  0  0  -0.045996  0  4.012568  0  0  -0.016927  -0.029324  0  3.973336  0
C  C40  1  0.24616724  0.29582333  0.39606924  1  0  -0.062996  0  3.756133  0  0  -0.035799  0  3.989124  0  0  -0.046004  0  4.012576  0  0  -0.016923  -0.029334  0  3.973349  0
C  C41  1  0.70659857  0.67702164  0.45108527  1  0  -0.073903  0  3.674025  0  0  -0.110095  0  3.920819  0  0  -0.107461  0  3.938877  0  0  -0.072386  -0.110636  0  3.907565  0
C  C42  1  0.29340434  0.32297701  0.54891397  1  0  -0.073743  0  3.674015  0  0  -0.10992  0  3.920779  0  0  -0.107283  0  3.938838  0  0  -0.072321  -0.110462  0  3.907526  0
C  C43  1  0.78507553  0.58496837  0.65885763  1  0  0.676807  0  3.869502  0  0  0.624652  0  4.15622  0  0  0.660141  0  4.148733  0  0  0.218347  0.600542  0  4.160185  0
C  C44  1  0.21492655  0.41503273  0.34114387  1  0  0.676743  0  3.869645  0  0  0.624639  0  4.156314  0  0  0.660127  0  4.14883  0  0  0.218324  0.600529  0  4.160284  0
C  C45  1  0.74538303  0.08679801  0.74228639  1  0  0.627243  0  3.917012  0  0  0.577747  0  4.213459  0  0  0.610557  0  4.207623  0  0  0.197619  0.555448  0  4.21647  0
C  C46  1  0.25462298  0.91320937  0.25771631  1  0  0.62732  0  3.916902  0  0  0.577826  0  4.213347  0  0  0.61063  0  4.207519  0  0  0.197575  0.555527  0  4.216358  0
N  N47  1  0.45092262  0.69380483  0.12805594  1  0  -0.373503  0  3.253182  0  0  -0.307496  0  3.512092  0  0  -0.325611  0  3.5283  0  0  -0.306938  -0.295252  0  3.502577  0
N  N48  1  0.54907823  0.30619248  0.87194754  1  0  -0.373534  0  3.253143  0  0  -0.307545  0  3.51207  0  0  -0.325663  0  3.528277  0  0  -0.30693  -0.2953  0  3.502557  0
O  O49  1  0.09787374  0.53257432  0.92115424  1  0  -0.644552  0  2.170623  0  0  -0.558098  0  2.452902  0  0  -0.589294  0  2.435096  0  0  -0.299246  -0.535651  0  2.464461  0
O  O50  1  0.90212276  0.46742911  0.07885131  1  0  -0.644497  0  2.170352  0  0  -0.558087  0  2.452639  0  0  -0.589275  0  2.434819  0  0  -0.299234  -0.535614  0  2.464174  0
O  O51  1  0.19601886  0.58385426  0.73741738  1  0  -0.626952  0  2.0233  0  0  -0.568837  0  2.275577  0  0  -0.594177  0  2.261755  0  0  -0.300874  -0.551395  0  2.284889  0
O  O52  1  0.80397883  0.41615294  0.26258819  1  0  -0.626959  0  2.023302  0  0  -0.568942  0  2.275641  0  0  -0.594284  0  2.261819  0  0  -0.300949  -0.5515  0  2.284959  0
O  O53  1  0.75861525  0.20158681  0.68707678  1  0  -0.693563  0  2.09672  0  0  -0.609794  0  2.362128  0  0  -0.641112  0  2.347662  0  0  -0.327126  -0.587236  0  2.372597  0
O  O54  1  0.24138537  0.79841558  0.31291858  1  0  -0.693598  0  2.096657  0  0  -0.609869  0  2.362108  0  0  -0.641193  0  2.347655  0  0  -0.327133  -0.587311  0  2.372577  0
O  O55  1  0.75632273  0.09959819  0.87153686  1  0  -0.575143  0  1.865667  0  0  -0.536646  0  2.071764  0  0  -0.557512  0  2.064923  0  0  -0.321647  -0.521335  0  2.075817  0
O  O56  1  0.24367818  0.90039916  0.12846362  1  0  -0.57515  0  1.865607  0  0  -0.536646  0  2.071696  0  0  -0.557508  0  2.064857  0  0  -0.32161  -0.521335  0  2.075748  0
O  O57  1  0.78391313  0.58368376  0.78661146  1  0  -0.624144  0  2.050676  0  0  -0.552122  0  2.314239  0  0  -0.582211  0  2.302451  0  0  -0.303829  -0.530317  0  2.32242  0
O  O58  1  0.21607914  0.41631469  0.21338805  1  0  -0.624095  0  2.050769  0  0  -0.552084  0  2.314269  0  0  -0.582174  0  2.30248  0  0  -0.303813  -0.530281  0  2.322454  0
O  O59  1  0.79995063  0.48267235  0.57410140  1  0  -0.683222  0  2.103745  0  0  -0.620048  0  2.37779  0  0  -0.646762  0  2.362231  0  0  -0.326634  -0.60039  0  2.388461  0
O  O60  1  0.20004629  0.51732614  0.42590230  1  0  -0.683265  0  2.103824  0  0  -0.620101  0  2.377852  0  0  -0.646816  0  2.362292  0  0  -0.326659  -0.60044  0  2.388526  0
O  O61  1  0.13997884  0.75448314  0.54060840  1  0  -0.811084  0  1.898001  0  0  -0.754578  0  2.101843  0  0  -0.776883  0  2.073254  0  0  -0.558848  -0.738926  0  2.121852  0
O  O62  1  0.86002683  0.24551804  0.45939102  1  0  -0.810959  0  1.898051  0  0  -0.754429  0  2.101931  0  0  -0.776727  0  2.073337  0  0  -0.558814  -0.738767  0  2.121912  0
