# generated using pymatgen
data_CdH7C6SN3O5
_symmetry_space_group_name_H-M   'P 1'
_cell_length_a   8.71900976
_cell_length_b   9.39397862
_cell_length_c   11.85246964
_cell_angle_alpha   90.89427864
_cell_angle_beta   90.00013614
_cell_angle_gamma   90.00004457
_symmetry_Int_Tables_number   1
_chemical_formula_structural   CdH7C6SN3O5
_chemical_formula_sum   'Cd4 H28 C24 S4 N12 O20'
_cell_volume   970.67239878
_cell_formula_units_Z   4
loop_
 _symmetry_equiv_pos_site_id
 _symmetry_equiv_pos_as_xyz
  1  'x, y, z'
loop_
 _atom_site_type_symbol
 _atom_site_label
 _atom_site_symmetry_multiplicity
 _atom_site_fract_x
 _atom_site_fract_y
 _atom_site_fract_z
 _atom_site_occupancy
 _atom_site_hle17_bader_spin_density
 _atom_site_hle17_ddec_charge
 _atom_site_hle17_ddec_spin_density
 _atom_site_hle17_ddec_sum_bond_order
 _atom_site_hle17_magmom
 _atom_site_hse06_10hf_bader_spin_density
 _atom_site_hse06_10hf_ddec_charge
 _atom_site_hse06_10hf_ddec_spin_density
 _atom_site_hse06_10hf_ddec_sum_bond_order
 _atom_site_hse06_10hf_magmom
 _atom_site_hse06_bader_spin_density
 _atom_site_hse06_ddec_charge
 _atom_site_hse06_ddec_spin_density
 _atom_site_hse06_ddec_sum_bond_order
 _atom_site_hse06_magmom
 _atom_site_pbe_bader_spin_density
 _atom_site_pbe_cm5_charge
 _atom_site_pbe_ddec_charge
 _atom_site_pbe_ddec_spin_density
 _atom_site_pbe_ddec_sum_bond_order
 _atom_site_pbe_magmom
Cd  Cd0  1  0.81070297  0.64550777  0.33671862  1  0  1.112925  0  1.666699  0  0  0.913947  0  2.105548  0  0  0.968886  0  2.056653  0  0  0.77737  0.874003  0  2.139061  0
Cd  Cd1  1  0.31070335  0.85449195  0.16328238  1  0  1.112906  0  1.666724  0  0  0.913924  0  2.105571  0  0  0.968866  0  2.056675  0  0  0.777366  0.87398  0  2.139083  0
Cd  Cd2  1  0.18929680  0.35449036  0.66328147  1  0  1.112945  0  1.666705  0  0  0.913977  0  2.105561  0  0  0.968917  0  2.056664  0  0  0.777392  0.874034  0  2.139074  0
Cd  Cd3  1  0.68929642  0.14550830  0.83671773  1  0  1.112901  0  1.666752  0  0  0.913933  0  2.105608  0  0  0.968873  0  2.056712  0  0  0.777366  0.873987  0  2.139123  0
H  H4  1  0.13841906  0.61294444  0.34780711  1  0  0.436267  0  0.858262  0  0  0.402109  0  0.926933  0  0  0.413493  0  0.910389  0  0  0.292011  0.394087  0  0.938421  0
H  H5  1  0.63841946  0.88705622  0.15219360  1  0  0.43629  0  0.85822  0  0  0.40212  0  0.926918  0  0  0.413504  0  0.910372  0  0  0.29201  0.394101  0  0.938402  0
H  H6  1  0.86158071  0.38705475  0.65219299  1  0  0.43626  0  0.858269  0  0  0.402105  0  0.926937  0  0  0.41349  0  0.910392  0  0  0.292012  0.394082  0  0.938425  0
H  H7  1  0.36158146  0.11294403  0.84780651  1  0  0.43625  0  0.858283  0  0  0.402092  0  0.926954  0  0  0.413476  0  0.91041  0  0  0.29201  0.394069  0  0.938442  0
H  H8  1  0.08319511  0.62640525  0.47470049  1  0  0.426603  0  0.871884  0  0  0.395027  0  0.937025  0  0  0.405239  0  0.922324  0  0  0.291575  0.387761  0  0.947434  0
H  H9  1  0.58319623  0.87359537  0.02530096  1  0  0.426617  0  0.87187  0  0  0.395038  0  0.937016  0  0  0.405248  0  0.922317  0  0  0.291589  0.387772  0  0.947426  0
H  H10  1  0.91680466  0.37359394  0.52529961  1  0  0.426593  0  0.871898  0  0  0.395018  0  0.937036  0  0  0.405229  0  0.922336  0  0  0.291569  0.387752  0  0.947445  0
H  H11  1  0.41680354  0.12640382  0.97469914  1  0  0.426623  0  0.871862  0  0  0.395036  0  0.937017  0  0  0.405248  0  0.922317  0  0  0.291591  0.387771  0  0.947427  0
H  H12  1  0.40425896  0.47064967  0.42906147  1  0  0.103326  0  0.958149  0  0  0.116319  0  1.022636  0  0  0.117881  0  1.022391  0  0  0.106847  0.115465  0  1.02229  0
H  H13  1  0.90425878  0.02935075  0.07093888  1  0  0.103318  0  0.958148  0  0  0.1163  0  1.022638  0  0  0.117862  0  1.022391  0  0  0.106852  0.115447  0  1.022292  0
H  H14  1  0.59573967  0.52934951  0.57093694  1  0  0.103321  0  0.958155  0  0  0.116312  0  1.022633  0  0  0.117875  0  1.022386  0  0  0.106844  0.115458  0  1.022287  0
H  H15  1  0.09574214  0.97064951  0.92906292  1  0  0.103295  0  0.958141  0  0  0.116285  0  1.022621  0  0  0.117846  0  1.022375  0  0  0.106832  0.115432  0  1.022275  0
H  H16  1  0.44101747  0.40360233  0.29146405  1  0  0.087398  0  0.94658  0  0  0.097663  0  1.017304  0  0  0.099098  0  1.01661  0  0  0.105008  0.096448  0  1.017909  0
H  H17  1  0.94101549  0.09639811  0.20853552  1  0  0.087382  0  0.946582  0  0  0.097635  0  1.017309  0  0  0.099068  0  1.016615  0  0  0.104997  0.096422  0  1.017913  0
H  H18  1  0.55898345  0.59639685  0.70853436  1  0  0.087428  0  0.946578  0  0  0.097671  0  1.017316  0  0  0.099108  0  1.016624  0  0  0.105019  0.096457  0  1.017921  0
H  H19  1  0.05898428  0.90360214  0.79146459  1  0  0.087411  0  0.946555  0  0  0.097664  0  1.017281  0  0  0.099098  0  1.016587  0  0  0.105012  0.09645  0  1.017885  0
H  H20  1  0.65153411  0.15754617  0.12235838  1  0  0.116553  0  0.941166  0  0  0.120772  0  1.008631  0  0  0.124543  0  1.005248  0  0  0.12691  0.117957  0  1.011251  0
H  H21  1  0.15153860  0.34245405  0.37763983  1  0  0.116523  0  0.941239  0  0  0.12075  0  1.008694  0  0  0.124518  0  1.005313  0  0  0.126935  0.117935  0  1.011315  0
H  H22  1  0.34846566  0.84245514  0.87764089  1  0  0.116543  0  0.941159  0  0  0.120751  0  1.008631  0  0  0.124521  0  1.005248  0  0  0.126913  0.117936  0  1.01125  0
H  H23  1  0.84846231  0.65754620  0.62236028  1  0  0.116515  0  0.941242  0  0  0.12074  0  1.008697  0  0  0.124509  0  1.005315  0  0  0.126932  0.117924  0  1.011318  0
H  H24  1  0.79870586  0.45884036  0.89114478  1  0  0.116188  0  0.945579  0  0  0.11851  0  1.013019  0  0  0.1223  0  1.00982  0  0  0.125583  0.115279  0  1.016125  0
H  H25  1  0.29870693  0.04116051  0.60885547  1  0  0.11617  0  0.94558  0  0  0.118527  0  1.012983  0  0  0.122319  0  1.009784  0  0  0.125587  0.115295  0  1.016088  0
H  H26  1  0.20129391  0.54115989  0.10885449  1  0  0.116209  0  0.945603  0  0  0.118497  0  1.013071  0  0  0.122289  0  1.009872  0  0  0.125571  0.115267  0  1.016177  0
H  H27  1  0.70129284  0.95883975  0.39114464  1  0  0.116221  0  0.945567  0  0  0.118545  0  1.013009  0  0  0.122336  0  1.009809  0  0  0.125577  0.115314  0  1.016112  0
H  H28  1  0.87360988  0.62458406  0.05188142  1  0  0.100552  0  0.940581  0  0  0.102273  0  1.011212  0  0  0.105657  0  1.008979  0  0  0.122632  0.099667  0  1.013204  0
H  H29  1  0.37361233  0.87541783  0.44811971  1  0  0.100571  0  0.940559  0  0  0.102291  0  1.011184  0  0  0.105673  0  1.008951  0  0  0.122639  0.099684  0  1.013173  0
H  H30  1  0.12639104  0.37541832  0.94811870  1  0  0.100574  0  0.940546  0  0  0.102293  0  1.01118  0  0  0.105676  0  1.008948  0  0  0.122645  0.099687  0  1.013173  0
H  H31  1  0.62638973  0.12458136  0.55188123  1  0  0.100572  0  0.940564  0  0  0.10229  0  1.011179  0  0  0.105674  0  1.008946  0  0  0.122644  0.099684  0  1.013168  0
C  C32  1  0.45001288  0.62767722  0.30895264  1  0  0.678723  0  3.854144  0  0  0.627315  0  4.153151  0  0  0.660508  0  4.147121  0  0  0.202152  0.604535  0  4.155866  0
C  C33  1  0.95000880  0.87232580  0.19104864  1  0  0.678641  0  3.854144  0  0  0.62725  0  4.153112  0  0  0.66044  0  4.147083  0  0  0.202145  0.604471  0  4.155827  0
C  C34  1  0.54998689  0.37232196  0.69104577  1  0  0.678715  0  3.854165  0  0  0.627304  0  4.15317  0  0  0.660496  0  4.147139  0  0  0.202159  0.604524  0  4.155885  0
C  C35  1  0.04998983  0.12767447  0.80895400  1  0  0.678649  0  3.854274  0  0  0.627219  0  4.153288  0  0  0.66041  0  4.147259  0  0  0.202151  0.604441  0  4.155999  0
C  C36  1  0.48106114  0.48101590  0.35578418  1  0  -0.107666  0  3.720651  0  0  -0.159912  0  3.978587  0  0  -0.159455  0  3.98735  0  0  -0.084847  -0.160183  0  3.97219  0
C  C37  1  0.98106004  0.01898351  0.14421629  1  0  -0.107546  0  3.720692  0  0  -0.159761  0  3.978563  0  0  -0.159294  0  3.987313  0  0  -0.084779  -0.160034  0  3.97217  0
C  C38  1  0.51893863  0.51898222  0.64421506  1  0  -0.107669  0  3.720633  0  0  -0.159881  0  3.978533  0  0  -0.159425  0  3.987296  0  0  -0.084843  -0.160149  0  3.972126  0
C  C39  1  0.01893973  0.98101569  0.85578549  1  0  -0.107596  0  3.720643  0  0  -0.159796  0  3.978515  0  0  -0.159334  0  3.987272  0  0  -0.084809  -0.160071  0  3.972123  0
C  C40  1  0.74754751  0.35269031  0.19428347  1  0  0.020812  0  3.663017  0  0  0.03018  0  3.917838  0  0  0.028251  0  3.937223  0  0  0.119356  0.03107  0  3.90559  0
C  C41  1  0.24755045  0.14730892  0.30571406  1  0  0.020813  0  3.662972  0  0  0.030186  0  3.917796  0  0  0.028253  0  3.937182  0  0  0.11935  0.031073  0  3.905548  0
C  C42  1  0.25245455  0.64730887  0.80571494  1  0  0.020798  0  3.663003  0  0  0.030153  0  3.917816  0  0  0.028223  0  3.937202  0  0  0.11935  0.031043  0  3.905567  0
C  C43  1  0.75245161  0.85269026  0.69428520  1  0  0.020892  0  3.662934  0  0  0.030262  0  3.917754  0  0  0.028333  0  3.937139  0  0  0.11938  0.031149  0  3.905503  0
C  C44  1  0.70404583  0.26065172  0.10649995  1  0  0.104944  0  3.62994  0  0  0.066775  0  3.883697  0  0  0.072231  0  3.899421  0  0  0.066257  0.063106  0  3.873524  0
C  C45  1  0.20404799  0.23934747  0.39349666  1  0  0.10496  0  3.630022  0  0  0.066772  0  3.883799  0  0  0.072231  0  3.899523  0  0  0.066213  0.063102  0  3.873626  0
C  C46  1  0.29595509  0.73934959  0.89349933  1  0  0.104993  0  3.629874  0  0  0.066864  0  3.883577  0  0  0.072322  0  3.899302  0  0  0.066292  0.063195  0  3.873402  0
C  C47  1  0.79595178  0.76065171  0.60650259  1  0  0.104947  0  3.630074  0  0  0.06677  0  3.883847  0  0  0.072226  0  3.89957  0  0  0.066202  0.063099  0  3.873672  0
C  C48  1  0.78434082  0.42800131  0.97869608  1  0  0.099527  0  3.61946  0  0  0.06759  0  3.872514  0  0  0.073283  0  3.887014  0  0  0.063518  0.063648  0  3.863885  0
C  C49  1  0.28434394  0.07200062  0.52130415  1  0  0.099417  0  3.619224  0  0  0.06745  0  3.872291  0  0  0.073143  0  3.886789  0  0  0.063414  0.063509  0  3.863656  0
C  C50  1  0.21565895  0.57200001  0.02130404  1  0  0.099451  0  3.619319  0  0  0.067547  0  3.872374  0  0  0.073238  0  3.886876  0  0  0.063472  0.063602  0  3.863748  0
C  C51  1  0.71565698  0.92800070  0.47869597  1  0  0.099324  0  3.61927  0  0  0.067363  0  3.872349  0  0  0.073054  0  3.886846  0  0  0.063403  0.063421  0  3.863715  0
C  C52  1  0.82585100  0.51967473  0.06744725  1  0  0.108209  0  3.637362  0  0  0.078927  0  3.896136  0  0  0.081317  0  3.911703  0  0  0.067228  0.076806  0  3.886617  0
C  C53  1  0.32585578  0.98032819  0.43255297  1  0  0.108173  0  3.637357  0  0  0.078898  0  3.896132  0  0  0.081291  0  3.911695  0  0  0.067196  0.076778  0  3.886606  0
C  C54  1  0.17414877  0.48032765  0.93255203  1  0  0.10821  0  3.63732  0  0  0.078923  0  3.896096  0  0  0.081313  0  3.911664  0  0  0.067224  0.076801  0  3.886578  0
C  C55  1  0.67414513  0.01967207  0.56744799  1  0  0.108197  0  3.637372  0  0  0.07894  0  3.896129  0  0  0.081332  0  3.911694  0  0  0.067197  0.076819  0  3.886602  0
S  S56  1  0.71125347  0.31502383  0.34154343  1  0  1.136146  0  5.622931  0  0  1.042698  0  6.133294  0  0  1.086887  0  6.121085  0  0  0.525755  1.012315  0  6.140585  0
S  S57  1  0.21125942  0.18497219  0.15845485  1  0  1.136094  0  5.622857  0  0  1.042615  0  6.133253  0  0  1.086807  0  6.121044  0  0  0.525686  1.012238  0  6.140544  0
S  S58  1  0.28874744  0.68497536  0.65845582  1  0  1.13631  0  5.622939  0  0  1.042871  0  6.133299  0  0  1.087062  0  6.12108  0  0  0.525802  1.01249  0  6.14059  0
S  S59  1  0.78873921  0.81502701  0.84154610  1  0  1.13594  0  5.623015  0  0  1.04247  0  6.133414  0  0  1.086663  0  6.121207  0  0  0.525672  1.012096  0  6.140695  0
N  N60  1  0.64098302  0.45719009  0.38977429  1  0  -0.6571  0  3.057843  0  0  -0.582131  0  3.356229  0  0  -0.610498  0  3.364985  0  0  -0.440183  -0.562794  0  3.349592  0
N  N61  1  0.14098180  0.04281121  0.11022729  1  0  -0.657109  0  3.057934  0  0  -0.582143  0  3.356306  0  0  -0.610516  0  3.36506  0  0  -0.440192  -0.562809  0  3.349672  0
N  N62  1  0.35901561  0.54280910  0.61022581  1  0  -0.657168  0  3.057862  0  0  -0.582206  0  3.356228  0  0  -0.610574  0  3.364983  0  0  -0.440205  -0.56287  0  3.349593  0
N  N63  1  0.85901682  0.95718799  0.88977450  1  0  -0.657083  0  3.057849  0  0  -0.582129  0  3.356227  0  0  -0.610502  0  3.364987  0  0  -0.440206  -0.562797  0  3.349593  0
N  N64  1  0.80580186  0.48180807  0.17457250  1  0  -0.264364  0  3.223007  0  0  -0.203285  0  3.477264  0  0  -0.214959  0  3.494639  0  0  -0.293386  -0.195042  0  3.466037  0
N  N65  1  0.30580590  0.01819228  0.32542768  1  0  -0.264316  0  3.222963  0  0  -0.203216  0  3.477187  0  0  -0.214889  0  3.494563  0  0  -0.293343  -0.194974  0  3.465956  0
N  N66  1  0.19419791  0.51819325  0.82542678  1  0  -0.264374  0  3.223041  0  0  -0.203296  0  3.477305  0  0  -0.214969  0  3.49468  0  0  -0.293403  -0.195055  0  3.466079  0
N  N67  1  0.69419502  0.98180797  0.67457243  1  0  -0.264358  0  3.22297  0  0  -0.203271  0  3.477201  0  0  -0.214945  0  3.494577  0  0  -0.293369  -0.195028  0  3.465968  0
N  N68  1  0.72286593  0.29991703  0.99879125  1  0  -0.268941  0  3.179652  0  0  -0.197105  0  3.442699  0  0  -0.212371  0  3.458195  0  0  -0.300306  -0.186913  0  3.432715  0
N  N69  1  0.22286794  0.20008484  0.50120551  1  0  -0.268831  0  3.179455  0  0  -0.197013  0  3.44254  0  0  -0.212276  0  3.458035  0  0  -0.300216  -0.18682  0  3.432552  0
N  N70  1  0.27713499  0.70008429  0.00120803  1  0  -0.268941  0  3.179527  0  0  -0.197121  0  3.442565  0  0  -0.212387  0  3.458061  0  0  -0.300279  -0.186928  0  3.43258  0
N  N71  1  0.77713183  0.79991542  0.49879460  1  0  -0.268789  0  3.179485  0  0  -0.196961  0  3.442545  0  0  -0.21222  0  3.458037  0  0  -0.300193  -0.186771  0  3.432556  0
O  O72  1  0.55413712  0.72016464  0.30302164  1  0  -0.634046  0  2.043622  0  0  -0.566408  0  2.293711  0  0  -0.595191  0  2.285151  0  0  -0.3201  -0.54523  0  2.29834  0
O  O73  1  0.05413409  0.77983170  0.19697972  1  0  -0.634006  0  2.043438  0  0  -0.566388  0  2.293515  0  0  -0.595171  0  2.28496  0  0  -0.320127  -0.545208  0  2.298145  0
O  O74  1  0.44586380  0.27983455  0.69697846  1  0  -0.634065  0  2.043617  0  0  -0.566429  0  2.293721  0  0  -0.595211  0  2.285162  0  0  -0.320123  -0.545253  0  2.298352  0
O  O75  1  0.94586109  0.22016644  0.80302374  1  0  -0.63406  0  2.043492  0  0  -0.566427  0  2.293604  0  0  -0.59521  0  2.285046  0  0  -0.320149  -0.545248  0  2.298233  0
O  O76  1  0.31225522  0.65114532  0.27582150  1  0  -0.660872  0  2.039231  0  0  -0.582765  0  2.281987  0  0  -0.612475  0  2.271048  0  0  -0.325578  -0.561011  0  2.287579  0
O  O77  1  0.81225466  0.84885973  0.22418124  1  0  -0.660908  0  2.039288  0  0  -0.582799  0  2.282057  0  0  -0.612509  0  2.271115  0  0  -0.325605  -0.561047  0  2.287651  0
O  O78  1  0.68774455  0.34885387  0.72417775  1  0  -0.660834  0  2.039206  0  0  -0.582755  0  2.281991  0  0  -0.612467  0  2.271051  0  0  -0.325575  -0.561001  0  2.287579  0
O  O79  1  0.18774167  0.15114480  0.77582228  1  0  -0.660816  0  2.039294  0  0  -0.582724  0  2.282099  0  0  -0.612435  0  2.271158  0  0  -0.325568  -0.560972  0  2.287688  0
O  O80  1  0.86159516  0.29271586  0.39338875  1  0  -0.629911  0  2.010199  0  0  -0.580009  0  2.261916  0  0  -0.601719  0  2.25044  0  0  -0.325147  -0.564231  0  2.268631  0
O  O81  1  0.36158949  0.20728453  0.10661152  1  0  -0.629944  0  2.010337  0  0  -0.57999  0  2.2621  0  0  -0.601707  0  2.250627  0  0  -0.325168  -0.564198  0  2.26878  0
O  O82  1  0.13840461  0.70728333  0.60661304  1  0  -0.629969  0  2.010252  0  0  -0.580071  0  2.262005  0  0  -0.601786  0  2.250529  0  0  -0.325162  -0.564285  0  2.268703  0
O  O83  1  0.63840914  0.79271360  0.89338857  1  0  -0.629814  0  2.010458  0  0  -0.579884  0  2.26222  0  0  -0.601601  0  2.250753  0  0  -0.325114  -0.564098  0  2.268906  0
O  O84  1  0.60778983  0.19334877  0.33842923  1  0  -0.602093  0  1.959779  0  0  -0.552924  0  2.205794  0  0  -0.574381  0  2.197599  0  0  -0.323109  -0.537562  0  2.211785  0
O  O85  1  0.10778442  0.30665358  0.16157315  1  0  -0.602016  0  1.95947  0  0  -0.552871  0  2.205475  0  0  -0.574311  0  2.197253  0  0  -0.323008  -0.537506  0  2.211463  0
O  O86  1  0.39221109  0.80664935  0.66156917  1  0  -0.602159  0  1.959787  0  0  -0.553001  0  2.205826  0  0  -0.574454  0  2.197621  0  0  -0.323129  -0.537641  0  2.211818  0
O  O87  1  0.89221535  0.69334562  0.83842780  1  0  -0.602027  0  1.959516  0  0  -0.552864  0  2.205525  0  0  -0.574302  0  2.197296  0  0  -0.323033  -0.537502  0  2.211509  0
O  O88  1  0.05447268  0.58549006  0.40005758  1  0  -0.823175  0  1.869214  0  0  -0.755548  0  2.068145  0  0  -0.778516  0  2.033869  0  0  -0.579533  -0.739167  0  2.091756  0
O  O89  1  0.55447178  0.91451160  0.09994299  1  0  -0.823213  0  1.869165  0  0  -0.75558  0  2.068106  0  0  -0.778546  0  2.033831  0  0  -0.579543  -0.739208  0  2.091703  0
O  O90  1  0.94552824  0.41450913  0.59994252  1  0  -0.823174  0  1.869227  0  0  -0.75554  0  2.06816  0  0  -0.77851  0  2.033885  0  0  -0.579534  -0.73916  0  2.091771  0
O  O91  1  0.44552799  0.08548865  0.90005628  1  0  -0.823178  0  1.869209  0  0  -0.755549  0  2.068165  0  0  -0.778518  0  2.03389  0  0  -0.579552  -0.739172  0  2.091776  0
