# generated using pymatgen
data_DyCu2H8C8(N3O4)3
_symmetry_space_group_name_H-M   'P 1'
_cell_length_a   7.27660770
_cell_length_b   11.17209861
_cell_length_c   11.79020323
_cell_angle_alpha   101.95715017
_cell_angle_beta   89.87741189
_cell_angle_gamma   90.07707843
_symmetry_Int_Tables_number   1
_chemical_formula_structural   DyCu2H8C8(N3O4)3
_chemical_formula_sum   'Dy2 Cu4 H16 C16 N18 O24'
_cell_volume   937.68536824
_cell_formula_units_Z   2
loop_
 _symmetry_equiv_pos_site_id
 _symmetry_equiv_pos_as_xyz
  1  'x, y, z'
loop_
 _atom_site_type_symbol
 _atom_site_label
 _atom_site_symmetry_multiplicity
 _atom_site_fract_x
 _atom_site_fract_y
 _atom_site_fract_z
 _atom_site_occupancy
 _atom_site_hle17_ddec_charge
 _atom_site_hle17_ddec_spin_density
 _atom_site_hle17_ddec_sum_bond_order
 _atom_site_hle17_magmom
 _atom_site_hse06_10hf_ddec_charge
 _atom_site_hse06_10hf_ddec_spin_density
 _atom_site_hse06_10hf_ddec_sum_bond_order
 _atom_site_hse06_10hf_magmom
 _atom_site_hse06_ddec_charge
 _atom_site_hse06_ddec_spin_density
 _atom_site_hse06_ddec_sum_bond_order
 _atom_site_hse06_magmom
 _atom_site_pbe_cm5_charge
 _atom_site_pbe_ddec_charge
 _atom_site_pbe_ddec_spin_density
 _atom_site_pbe_ddec_sum_bond_order
 _atom_site_pbe_magmom
Dy  Dy0  1  0.49584978  0.24987113  0.49982503  1  2.340978  0.000923  1.620525  0.001  2.271387  0.001059  1.951059  0.002  2.314401  0.00063  1.909234  0.001  1.52676  2.240042  0.001509  1.980664  0.002
Dy  Dy1  1  0.50425824  0.75016397  0.50018744  1  2.340733  -7e-06  1.620361  0.0  2.271085  2.8e-05  1.951028  0.0  2.314106  5e-06  1.909208  0.0  1.526369  2.239717  8.3e-05  1.980614  0.0
Cu  Cu2  1  0.13894734  0.88857215  0.07443796  1  0.736217  0.665738  2.078558  0.484  0.704789  0.770848  2.51476  0.612  0.793165  0.849904  2.445495  0.707  0.806624  0.656069  0.706986  2.559059  0.546
Cu  Cu3  1  0.13895369  0.61157230  0.92488672  1  0.734465  0.65229  2.080901  0.474  0.704839  0.766626  2.514791  0.609  0.792849  0.847856  2.446598  0.705  0.805708  0.65406  0.70263  2.56163  0.542
Cu  Cu4  1  0.86196085  0.11146177  0.92536676  1  0.736417  -0.690012  2.083555  -0.472  0.705991  -0.809036  2.517114  -0.613  0.794902  -0.914843  2.447378  -0.712  0.806716  0.654711  -0.712663  2.563157  -0.533
Cu  Cu5  1  0.85961438  0.38829494  0.07466836  1  0.735515  0.657335  2.078711  0.478  0.706851  0.773728  2.509768  0.616  0.794745  0.853532  2.44181  0.711  0.804621  0.654736  0.711493  2.557491  0.55
H  H6  1  0.76532819  0.05109157  0.42249954  1  0.433271  2.2e-05  0.869337  0.0  0.403133  2.1e-05  0.931599  0.0  0.41517  1.1e-05  0.913992  0.0  0.295715  0.394626  4e-05  0.944002  0.0
H  H7  1  0.76459618  0.44889203  0.57744647  1  0.432924  -8e-06  0.870152  0.0  0.40276  -1e-05  0.932501  0.0  0.4148  -2e-06  0.914891  0.0  0.295482  0.394244  -2.4e-05  0.944917  0.0
H  H8  1  0.23509260  0.94887142  0.57779366  1  0.43304  3e-06  0.869985  0.0  0.402772  6e-06  0.932408  0.0  0.414813  -3e-06  0.914789  0.0  0.295518  0.394271  2.6e-05  0.944811  0.0
H  H9  1  0.23475766  0.55124550  0.42245479  1  0.433741  8e-06  0.869291  0.0  0.403584  8e-06  0.931514  0.0  0.415642  4e-06  0.913884  0.0  0.295673  0.395041  2.1e-05  0.943967  0.0
H  H10  1  0.68661293  0.03672383  0.54390959  1  0.440313  9.9e-05  0.859107  0.0  0.409075  4.4e-05  0.923909  0.0  0.420855  2.7e-05  0.906424  0.0  0.304013  0.400752  5.2e-05  0.93626  0.0
H  H11  1  0.68657472  0.46338974  0.45618345  1  0.4406  -8e-05  0.858933  0.0  0.40945  -2.1e-05  0.92371  0.0  0.421189  -1.6e-05  0.906277  0.0  0.304045  0.401114  -1.8e-05  0.936083  0.0
H  H12  1  0.31303584  0.96319535  0.45617222  1  0.439887  -9.8e-05  0.859575  0.0  0.40888  -4e-05  0.923958  0.0  0.420612  -2.9e-05  0.906543  0.0  0.304095  0.400554  -3.9e-05  0.936306  0.0
H  H13  1  0.31308300  0.53683665  0.54367344  1  0.440258  -7.8e-05  0.859243  0.0  0.409084  -2.6e-05  0.923878  0.0  0.420807  -2e-05  0.906475  0.0  0.304095  0.400767  -2e-05  0.936223  0.0
H  H14  1  0.67579275  0.28446261  0.27303574  1  0.445272  2.8e-05  0.842984  0.0  0.414968  9.4e-05  0.905151  0.0  0.425519  1.6e-05  0.889844  0.0  0.303471  0.407625  0.00019  0.915834  0.0
H  H15  1  0.67676835  0.21584561  0.72646897  1  0.445049  -6e-05  0.843113  0.0  0.414853  -0.00011  0.905118  0.0  0.42542  -2.8e-05  0.889798  0.0  0.303472  0.407513  -0.000205  0.915791  0.0
H  H16  1  0.32302822  0.71575874  0.72671463  1  0.444395  -1.4e-05  0.84435  0.0  0.414275  6e-05  0.906151  0.0  0.424877  -6e-06  0.890757  0.0  0.303268  0.406898  0.000148  0.916899  0.0
H  H17  1  0.32433555  0.78476355  0.27335259  1  0.4442  2e-06  0.844315  0.0  0.414543  7.6e-05  0.90538  0.0  0.425133  0.0  0.890016  0.0  0.303475  0.40718  0.000168  0.916077  0.0
H  H18  1  0.72548875  0.14645772  0.27788247  1  0.446062  -6e-06  0.81827  0.0  0.423891  1e-06  0.872399  0.0  0.431744  5e-06  0.861006  0.0  0.320189  0.418367  1e-05  0.880443  0.0
H  H19  1  0.72445328  0.35426509  0.72167665  1  0.446139  7e-06  0.819132  0.0  0.423735  -1e-06  0.87322  0.0  0.43161  0.0  0.861772  0.0  0.319842  0.418209  -1.5e-05  0.881274  0.0
H  H20  1  0.27479708  0.85409959  0.72213320  1  0.446177  -3.6e-05  0.818701  0.0  0.423584  -2.8e-05  0.873012  0.0  0.431416  -2.5e-05  0.861659  0.0  0.320159  0.418079  -1.6e-05  0.881019  0.0
H  H21  1  0.27495058  0.64671489  0.27840947  1  0.444884  -3.4e-05  0.818592  0.0  0.422486  -2.8e-05  0.874256  0.0  0.430326  -1.9e-05  0.862862  0.0  0.319377  0.417001  -2e-05  0.882242  0.0
C  C22  1  0.28460954  0.04048427  0.27553282  1  0.698607  -0.005507  3.818539  -0.008  0.651279  -0.001073  4.111338  -0.003  0.689614  -0.000975  4.100965  -0.003  0.244275  0.624952  -0.000835  4.118511  -0.003
C  C23  1  0.28362816  0.45932884  0.72364918  1  0.701492  -0.00519  3.8172  -0.007  0.652272  -0.000748  4.112774  -0.003  0.690563  -0.000674  4.102306  -0.002  0.245281  0.625969  -0.000657  4.120024  -0.003
C  C24  1  0.71607324  0.95950015  0.72426338  1  0.699926  0.004826  3.816981  0.008  0.652933  0.000818  4.110958  0.003  0.691371  0.000707  4.100694  0.003  0.245214  0.626511  0.000973  4.118081  0.004
C  C25  1  0.71606625  0.54074573  0.27635487  1  0.702003  -0.005636  3.815104  -0.008  0.65288  -0.000759  4.111795  -0.003  0.691312  -0.000645  4.10126  -0.002  0.24511  0.62647  -0.00077  4.119056  -0.003
C  C26  1  0.18558691  0.12327453  0.21348531  1  -0.006632  -0.002038  3.683838  -0.002  -0.009689  -0.001093  3.93614  -0.001  -0.008264  -0.00105  3.948677  -0.001  0.101593  -0.010133  -0.000823  3.928013  -0.001
C  C27  1  0.18322163  0.37683462  0.78561457  1  -0.007278  -0.00146  3.688679  0.001  -0.011157  0.000452  3.942996  0.002  -0.009206  -0.001035  3.954935  0.0  0.100444  -0.012267  0.001782  3.935363  0.004
C  C28  1  0.81486617  0.87678815  0.78646994  1  -0.00652  0.000769  3.683102  0.001  -0.0099  0.001063  3.936528  0.001  -0.008417  0.001167  3.949036  0.002  0.101667  -0.010333  0.001291  3.92824  0.001
C  C29  1  0.81689587  0.62305734  0.21439591  1  -0.007525  -0.000918  3.689008  0.002  -0.011282  0.001025  3.943902  0.003  -0.009511  -0.000475  3.956112  0.001  0.100594  -0.01234  0.001985  3.935978  0.004
C  C30  1  0.13896596  0.24760161  0.22645097  1  0.02254  -0.002359  3.661927  -0.004  0.020329  -0.001445  3.914255  -0.003  0.021678  -0.000685  3.925811  -0.002  0.113333  0.019164  -0.002103  3.90668  -0.003
C  C31  1  0.13668607  0.25251919  0.77289213  1  0.022173  0.002742  3.665584  0.004  0.02001  0.001661  3.91796  0.003  0.021487  0.001432  3.929175  0.002  0.112691  0.018619  0.001996  3.910969  0.003
C  C32  1  0.86123669  0.75244088  0.77368005  1  0.023156  0.004621  3.662207  0.007  0.019864  0.001931  3.914668  0.003  0.021139  0.000469  3.926216  0.002  0.112926  0.018768  0.003102  3.907168  0.005
C  C33  1  0.86370218  0.74732947  0.22707433  1  0.021804  0.004037  3.665645  0.006  0.018712  0.002287  3.918933  0.003  0.020118  0.001506  3.930087  0.002  0.112332  0.017523  0.003157  3.911828  0.005
C  C34  1  0.20480299  0.35809280  0.31042194  1  0.708803  -0.000374  3.88218  0.0  0.663653  -0.000238  4.172184  0.0  0.698407  -0.000155  4.160588  0.0  0.237676  0.639855  -0.000329  4.179392  0.0
C  C35  1  0.20391645  0.14184172  0.68971471  1  0.708725  -0.000113  3.881277  0.0  0.66375  0.00024  4.171116  0.0  0.698438  0.000236  4.159466  0.0  0.237177  0.640098  0.000213  4.178467  0.0
C  C36  1  0.79472157  0.64190628  0.69001429  1  0.708085  0.000145  3.882649  0.0  0.664216  0.000201  4.170906  0.0  0.699065  0.00013  4.159144  0.0  0.237539  0.64037  0.000275  4.178227  0.0
C  C37  1  0.79682332  0.85801723  0.31042586  1  0.708419  -0.000205  3.88293  0.0  0.664017  0.000225  4.17254  0.0  0.6988  0.000243  4.160792  0.0  0.2373  0.640243  0.000139  4.179993  0.0
N  N38  1  0.02381720  0.25530575  0.13808498  1  -0.215398  0.011042  3.188202  0.015  -0.195953  0.005834  3.497032  0.009  -0.208911  0.004255  3.513767  0.008  -0.221948  -0.186413  0.008196  3.486565  0.011
N  N39  1  0.02063393  0.24505405  0.86116506  1  -0.215765  0.005698  3.206226  0.007  -0.194666  0.000957  3.515  0.001  -0.207971  -0.00186  3.531607  -0.003  -0.224025  -0.185384  0.004037  3.504765  0.005
N  N40  1  0.97640616  0.74485140  0.86205053  1  -0.214792  -0.002874  3.195399  -0.002  -0.194141  0.001709  3.502865  0.003  -0.207305  0.001214  3.51943  0.002  -0.221826  -0.184912  0.001998  3.492916  0.003
N  N41  1  0.97949341  0.75467070  0.13861616  1  -0.214217  0.018842  3.206326  0.025  -0.194273  0.011819  3.514594  0.017  -0.207336  0.006316  3.53095  0.01  -0.222707  -0.184952  0.017777  3.504336  0.024
N  N42  1  0.00221029  0.14359035  0.07384908  1  -0.044617  -0.071185  3.309095  -0.083  -0.018938  -0.058568  3.64194  -0.075  -0.035785  -0.051603  3.664424  -0.069  -0.137249  -0.010304  -0.059383  3.629842  -0.074
N  N43  1  0.99826409  0.35663065  0.92521250  1  -0.046878  0.06413  3.30169  0.08  -0.022029  0.055659  3.634614  0.074  -0.038297  0.046871  3.656806  0.066  -0.137526  -0.013943  0.059359  3.622878  0.076
N  N44  1  0.99819471  0.85655253  0.92614250  1  -0.047763  0.063493  3.311897  0.079  -0.020222  0.054445  3.642885  0.073  -0.036561  0.046784  3.664919  0.067  -0.138195  -0.0123  0.05662  3.631325  0.073
N  N45  1  0.00139879  0.64312439  0.07455926  1  -0.048529  0.060117  3.308437  0.075  -0.021788  0.054474  3.639661  0.072  -0.03803  0.045789  3.661709  0.064  -0.138255  -0.013872  0.058158  3.627919  0.074
N  N46  1  0.09822641  0.06398771  0.11670694  1  -0.217838  0.052789  3.384035  0.067  -0.201452  0.040396  3.727755  0.056  -0.219627  0.034786  3.742888  0.051  -0.259206  -0.191832  0.042399  3.720073  0.056
N  N47  1  0.09517679  0.43640224  0.88215575  1  -0.216259  0.056774  3.372801  0.073  -0.200117  0.045485  3.716321  0.062  -0.21814  0.037544  3.731228  0.054  -0.258579  -0.190197  0.049275  3.708653  0.065
N  N48  1  0.90231753  0.93613092  0.88319295  1  -0.214565  -0.058252  3.383988  -0.07  -0.200337  -0.042904  3.728052  -0.056  -0.218892  -0.037934  3.743189  -0.052  -0.258701  -0.190368  -0.043385  3.720721  -0.056
N  N49  1  0.90451618  0.56337525  0.11770975  1  -0.213963  0.05893  3.371933  0.076  -0.200093  0.046217  3.716069  0.063  -0.218498  0.037713  3.731423  0.055  -0.257814  -0.189561  0.050828  3.70794  0.067
N  N50  1  0.30489933  0.75083331  0.99798040  1  -0.510933  0.133263  2.96402  0.167  -0.591106  0.063025  3.390136  0.084  -0.646959  0.042518  3.401721  0.062  -0.374539  -0.559763  0.073748  3.385833  0.093
N  N51  1  0.69458448  0.24847294  0.00256950  1  -0.530606  0.001593  2.975841  0.004  -0.598734  0.0018  3.392132  0.004  -0.653179  0.000661  3.402308  0.002  -0.378932  -0.566811  0.002547  3.388212  0.004
N  N52  1  0.47119606  0.74850536  0.00067343  1  0.394058  -0.050542  4.104396  -0.073  0.459006  -0.008062  4.427852  -0.017  0.482482  -0.010703  4.462941  -0.019  0.102786  0.444333  -0.004173  4.4056  -0.014
N  N53  1  0.52821694  0.25071303  0.99943824  1  0.39757  -0.001648  4.119747  -0.002  0.460994  -0.000517  4.431064  -0.001  0.484289  -0.000743  4.464952  -0.001  0.10272  0.446075  -0.000157  4.409158  0.0
N  N54  1  0.63044613  0.74628695  0.00259226  1  -0.227283  0.16454  2.355865  0.188  -0.285334  0.069724  2.601535  0.082  -0.299443  0.053281  2.618418  0.066  -0.135981  -0.277213  0.081068  2.590916  0.092
N  N55  1  0.36906490  0.25245807  0.99696725  1  -0.23968  0.005265  2.370298  0.006  -0.28768  0.003432  2.607157  0.004  -0.300499  0.002651  2.62304  0.003  -0.137746  -0.280056  0.003608  2.596935  0.004
O  O56  1  0.30926421  0.33725545  0.39081647  1  -0.765125  -0.000947  2.086031  -0.001  -0.722401  -3.3e-05  2.339017  0.0  -0.747644  3.4e-05  2.325434  0.0  -0.432383  -0.703757  0.000159  2.347493  0.0
O  O57  1  0.30872748  0.16233377  0.60903335  1  -0.765214  0.002851  2.084585  0.004  -0.722396  0.00127  2.337539  0.002  -0.747443  0.000536  2.323892  0.001  -0.433014  -0.704278  0.002401  2.346231  0.003
O  O58  1  0.69041436  0.66274179  0.60956329  1  -0.764305  0.001145  2.086058  0.001  -0.722147  0.00035  2.338483  0.0  -0.747386  7.8e-05  2.324841  0.0  -0.432038  -0.703565  0.000402  2.347006  0.0
O  O59  1  0.69166902  0.83749572  0.39092570  1  -0.764815  0.00212  2.085279  0.003  -0.722433  0.00098  2.338101  0.001  -0.747597  0.000405  2.324472  0.001  -0.43262  -0.704134  0.001898  2.346728  0.003
O  O60  1  0.35071140  0.07422682  0.37549891  1  -0.674755  0.011277  2.103804  0.015  -0.632551  0.007023  2.345266  0.01  -0.658526  0.003666  2.332659  0.005  -0.338787  -0.614135  0.010534  2.353455  0.014
O  O61  1  0.35049054  0.42546581  0.62377203  1  -0.675421  0.011131  2.106364  0.014  -0.632285  0.007333  2.348536  0.01  -0.658359  0.003644  2.336117  0.005  -0.338791  -0.613933  0.011057  2.356669  0.015
O  O62  1  0.64961925  0.92563832  0.62440912  1  -0.674498  -0.011988  2.103915  -0.015  -0.632681  -0.007307  2.345755  -0.01  -0.65882  -0.003912  2.333251  -0.005  -0.33865  -0.614367  -0.01041  2.353926  -0.013
O  O63  1  0.64953644  0.57475071  0.37631835  1  -0.676085  0.011465  2.105888  0.015  -0.633047  0.007498  2.348405  0.01  -0.65911  0.003735  2.335859  0.005  -0.339653  -0.614693  0.011198  2.356657  0.015
O  O64  1  0.71495666  0.09941805  0.49754967  1  -0.943803  9.7e-05  1.859732  0.0  -0.905671  4.2e-05  2.04424  0.0  -0.924147  1.7e-05  2.00796  0.0  -0.671233  -0.892533  0.000125  2.069739  0.0
O  O65  1  0.71513019  0.40055127  0.50222298  1  -0.943566  2.4e-05  1.859477  0.0  -0.905744  1e-05  2.043694  0.0  -0.924158  -2e-05  2.007436  0.0  -0.671294  -0.892608  0.000117  2.069186  0.0
O  O66  1  0.28495041  0.90052430  0.50258263  1  -0.943441  0.000125  1.860704  0.0  -0.9053  6.3e-05  2.045106  0.0  -0.923748  1.5e-05  2.008872  0.0  -0.671222  -0.892202  0.000215  2.070617  0.0
O  O67  1  0.28466637  0.59964733  0.49759407  1  -0.944445  -4.9e-05  1.859163  0.0  -0.906313  -5.3e-05  2.043879  0.0  -0.924784  -4.8e-05  2.007678  0.0  -0.671675  -0.893181  -5.3e-05  2.069378  0.0
O  O68  1  0.29026702  0.92752467  0.22039138  1  -0.564167  0.094627  2.028427  0.127  -0.522459  0.066905  2.284641  0.098  -0.566762  0.050857  2.27749  0.079  -0.298414  -0.495012  0.075162  2.290365  0.105
O  O69  1  0.28980263  0.57236649  0.77870251  1  -0.566506  0.091029  2.029828  0.122  -0.522757  0.065775  2.28605  0.097  -0.566998  0.050302  2.279003  0.078  -0.299394  -0.495167  0.074152  2.292051  0.104
O  O70  1  0.71112680  0.07255845  0.77914509  1  -0.560359  -0.101919  2.025984  -0.129  -0.522647  -0.070414  2.28396  -0.098  -0.567721  -0.054632  2.277221  -0.079  -0.298661  -0.494671  -0.077759  2.289606  -0.106
O  O71  1  0.70911694  0.42780371  0.22121436  1  -0.562856  0.093818  2.027461  0.126  -0.522407  0.066512  2.284873  0.098  -0.566787  0.050502  2.277856  0.079  -0.29831  -0.494475  0.075436  2.290849  0.106
O  O72  1  0.63627452  0.21184199  0.30238869  1  -0.891963  0.000366  1.83639  0.001  -0.851866  0.000249  2.009543  0.0  -0.870109  0.000121  1.981354  0.0  -0.617492  -0.839009  0.000367  2.028996  0.0
O  O73  1  0.63594746  0.28828447  0.69747298  1  -0.891787  -0.000501  1.834184  -0.001  -0.851518  -0.000321  2.005932  0.0  -0.869806  -0.000168  1.977785  0.0  -0.617013  -0.838623  -0.000454  2.025317  0.0
O  O74  1  0.36343099  0.78834986  0.69762804  1  -0.891896  0.000272  1.837356  0.0  -0.851169  0.000163  2.011021  0.0  -0.869327  4.5e-05  1.982715  0.0  -0.617837  -0.838346  0.000303  2.030495  0.0
O  O75  1  0.36437837  0.71214868  0.30238010  1  -0.890154  0.000261  1.834057  0.001  -0.849708  0.000144  2.006985  0.0  -0.867918  2.5e-05  1.978838  0.0  -0.616299  -0.836849  0.000254  2.02636  0.0
O  O76  1  0.15743100  0.46305559  0.29771571  1  -0.598742  0.002094  1.893601  0.003  -0.555253  0.000709  2.102633  0.001  -0.580602  0.000156  2.092976  0.0  -0.305691  -0.537252  0.001463  2.1088  0.002
O  O77  1  0.15729805  0.03695451  0.70332956  1  -0.599378  0.002196  1.892913  0.003  -0.555916  0.001014  2.101733  0.001  -0.581097  0.000552  2.091956  0.001  -0.304825  -0.538215  0.001753  2.108111  0.002
O  O78  1  0.84152826  0.53693084  0.70299733  1  -0.599208  -0.002664  1.893031  -0.003  -0.556528  -0.001284  2.10174  -0.002  -0.581997  -0.000713  2.092032  -0.001  -0.305471  -0.538482  -0.001938  2.107962  -0.002
O  O79  1  0.84409266  0.96287688  0.29706606  1  -0.598364  0.001833  1.891157  0.003  -0.555841  0.000607  2.100037  0.001  -0.581192  6.8e-05  2.090339  0.0  -0.305348  -0.538085  0.00137  2.106407  0.002
