# generated using pymatgen
data_CuH12C15(NO)4
_symmetry_space_group_name_H-M   'P 1'
_cell_length_a   4.87602699
_cell_length_b   11.15399406
_cell_length_c   15.68852632
_cell_angle_alpha   102.68593790
_cell_angle_beta   89.96932162
_cell_angle_gamma   102.64300137
_symmetry_Int_Tables_number   1
_chemical_formula_structural   CuH12C15(NO)4
_chemical_formula_sum   'Cu2 H24 C30 N8 O8'
_cell_volume   811.22824069
_cell_formula_units_Z   2
loop_
 _symmetry_equiv_pos_site_id
 _symmetry_equiv_pos_as_xyz
  1  'x, y, z'
loop_
 _atom_site_type_symbol
 _atom_site_label
 _atom_site_symmetry_multiplicity
 _atom_site_fract_x
 _atom_site_fract_y
 _atom_site_fract_z
 _atom_site_occupancy
 _atom_site_pbe_bader_charge
 _atom_site_pbe_bader_spin_density
 _atom_site_pbe_cm5_charge
 _atom_site_pbe_ddec_charge
 _atom_site_pbe_ddec_spin_density
 _atom_site_pbe_ddec_sum_bond_order
 _atom_site_pbe_magmom
Cu  Cu0  1  0.49999691  0.99999840  0.50000023  1  1.042022  0.558299  0.741035  0.752748  0.720506  2.232312  0.559
Cu  Cu1  1  0.49999610  0.00000180  0.99999815  1  1.036568  0.55833  0.741052  0.751989  0.720576  2.232945  0.559
H  H2  1  0.52975400  0.25172402  0.65524163  1  0.147203  0.000465  0.123753  0.12287  0.000134  0.998816  0.001
H  H3  1  0.27792319  0.74870939  0.84469233  1  0.140396  0.000467  0.123657  0.122652  0.000133  1.000163  0.001
H  H4  1  0.47025586  0.74827795  0.34476044  1  0.147246  0.000465  0.12374  0.122895  0.000134  0.998925  0.001
H  H5  1  0.72206947  0.25128686  0.15530058  1  0.140382  0.000467  0.123677  0.122662  0.000133  1.000138  0.001
H  H6  1  0.12600833  0.24218997  0.78255010  1  0.128079  0.001013  0.130757  0.13911  0.000517  0.996  0.001
H  H7  1  0.88363495  0.75835122  0.71760058  1  0.135847  0.001008  0.130898  0.13934  0.000515  0.995884  0.001
H  H8  1  0.87400107  0.75781107  0.21745374  1  0.128102  0.001013  0.130749  0.139096  0.000517  0.996062  0.001
H  H9  1  0.11635990  0.24165352  0.28239490  1  0.135584  0.001008  0.130899  0.139378  0.000515  0.995751  0.001
H  H10  1  0.93456870  0.90378023  0.58685207  1  0.23428  0.000176  0.137329  0.115627  -0.000199  1.05975  0.0
H  H11  1  0.03100803  0.09663018  0.91345129  1  0.233053  0.000181  0.13704  0.115594  -0.000197  1.059148  0.0
H  H12  1  0.06543484  0.09622549  0.41314802  1  0.234284  0.000176  0.137313  0.115617  -0.000199  1.059702  0.0
H  H13  1  0.96898260  0.90336614  0.08655055  1  0.233005  0.00018  0.13706  0.115584  -0.000197  1.059268  0.0
H  H14  1  0.59421916  0.92866544  0.70675763  1  0.18841  0.000278  0.130162  0.115237  0.000163  1.024659  0.0
H  H15  1  0.66570852  0.07176675  0.79355094  1  0.192076  0.000277  0.129753  0.114444  0.000163  1.024751  0.0
H  H16  1  0.40577886  0.07133744  0.29324012  1  0.188513  0.000278  0.13014  0.115169  0.000163  1.024662  0.0
H  H17  1  0.33428904  0.92823520  0.20644794  1  0.192249  0.000277  0.129754  0.114414  0.000163  1.024762  0.0
H  H18  1  0.39914270  0.57689594  0.61112306  1  0.068773  4.7e-05  0.100151  0.103173  -5e-06  1.008945  0.0
H  H19  1  0.82242461  0.42297579  0.88891266  1  0.089871  4.8e-05  0.100192  0.103736  -4e-06  1.009681  0.0
H  H20  1  0.60085439  0.42310509  0.38887951  1  0.068783  4.7e-05  0.100172  0.10319  -5e-06  1.008986  0.0
H  H21  1  0.17757864  0.57702524  0.11108926  1  0.089652  4.8e-05  0.100194  0.103723  -4e-06  1.009674  0.0
H  H22  1  0.88213660  0.64720992  0.41470108  1  0.090757  0.000775  0.096358  0.097957  0.00059  1.034058  0.0
H  H23  1  0.23458851  0.35304020  0.08551297  1  0.095097  0.000777  0.096486  0.097948  0.000592  1.03456  0.0
H  H24  1  0.11786680  0.35278732  0.58529900  1  0.090842  0.000775  0.096429  0.098065  0.00059  1.034105  0.0
H  H25  1  0.76541427  0.64695989  0.91448945  1  0.09512  0.000777  0.096468  0.097931  0.000592  1.034602  0.0
C  C26  1  0.34660145  0.17892788  0.66010069  1  0.394955  0.001671  0.002288  -0.017194  0.001348  3.968653  0.002
C  C27  1  0.16765102  0.82151928  0.83991053  1  0.397112  0.001678  0.002381  -0.016744  0.001337  3.970726  0.002
C  C28  1  0.65340432  0.82107410  0.33990266  1  0.394908  0.00167  0.002288  -0.017235  0.001347  3.968745  0.002
C  C29  1  0.83234323  0.17847606  0.16008607  1  0.397108  0.001677  0.002358  -0.016745  0.001336  3.970795  0.002
C  C30  1  0.14930284  0.17596195  0.72254224  1  0.31395  0.003552  0.006357  -0.099608  0.002353  3.887691  0.003
C  C31  1  0.97324013  0.82453900  0.77759276  1  0.307218  0.003525  0.006542  -0.099039  0.002347  3.886801  0.003
C  C32  1  0.85070450  0.82403906  0.27745777  1  0.314013  0.003551  0.00643  -0.099591  0.002352  3.887639  0.003
C  C33  1  0.02674480  0.17545819  0.22240094  1  0.307612  0.003524  0.00656  -0.099162  0.002346  3.886798  0.003
C  C34  1  0.04687716  0.99702049  0.62098540  1  0.954437  -0.001739  0.141661  0.087703  -0.002343  3.911648  0.0
C  C35  1  0.04992851  0.00339351  0.87924345  1  0.939546  -0.00169  0.141843  0.087878  -0.002331  3.911716  0.0
C  C36  1  0.95312197  0.00298052  0.37901461  1  0.955036  -0.00174  0.141748  0.08778  -0.002341  3.911706  0.0
C  C37  1  0.95006164  0.99660184  0.12075570  1  0.939395  -0.00169  0.141759  0.087806  -0.002331  3.911842  0.0
C  C38  1  0.75430288  0.00023970  0.75014014  1  0.550041  0.00203  0.053193  -0.010447  0.001472  3.808695  0.002
C  C39  1  0.24569420  0.99976129  0.24985796  1  0.549967  0.00203  0.053256  -0.010334  0.001472  3.808527  0.002
C  C40  1  0.22224760  0.54207809  0.56313165  1  -0.025969  0.000994  -0.08747  -0.097371  0.000444  3.988674  0.001
C  C41  1  0.68030315  0.45782919  0.93690524  1  -0.091273  0.001024  -0.087755  -0.099141  0.000442  3.989286  0.001
C  C42  1  0.77774965  0.45791916  0.43686970  1  -0.026093  0.000994  -0.087516  -0.097552  0.000444  3.988811  0.001
C  C43  1  0.31970215  0.54217184  0.06309733  1  -0.091138  0.001024  -0.087728  -0.099076  0.000442  3.989271  0.001
C  C44  1  0.15610833  0.62458323  0.51464711  1  -0.078249  0.009989  -0.019216  -0.029543  0.006947  3.968662  0.008
C  C45  1  0.53161649  0.37543207  0.98550856  1  -0.017799  0.009853  -0.018832  -0.028063  0.006934  3.96516  0.008
C  C46  1  0.84389507  0.37541402  0.48535297  1  -0.078299  0.009989  -0.019189  -0.029354  0.006947  3.968653  0.008
C  C47  1  0.46838423  0.62456801  0.01449322  1  -0.01763  0.009853  -0.018818  -0.028004  0.006934  3.965136  0.008
C  C48  1  0.93274339  0.58173362  0.45132458  1  -0.016467  0.000785  -0.088447  -0.094142  0.0005  3.975585  0.0
C  C49  1  0.35091117  0.41836980  0.04879815  1  -0.015981  0.00078  -0.088861  -0.094415  0.000499  3.975571  0.0
C  C50  1  0.06725954  0.41826268  0.54867599  1  -0.016774  0.000785  -0.088523  -0.0944  0.000501  3.975859  0.0
C  C51  1  0.64909366  0.58163029  0.95120363  1  -0.016021  0.00078  -0.088848  -0.094397  0.000499  3.975581  0.0
C  C52  1  0.32757230  0.75746817  0.53139789  1  1.55246  -0.001251  0.200159  0.558222  -0.001696  4.220825  -0.003
C  C53  1  0.57005512  0.24255168  0.96885418  1  1.544918  -0.001179  0.199881  0.556318  -0.001711  4.223678  -0.003
C  C54  1  0.67243521  0.24252909  0.46860410  1  1.552323  -0.001251  0.200245  0.558372  -0.001697  4.220713  -0.003
C  C55  1  0.42994969  0.75744838  0.03114505  1  1.544885  -0.001179  0.199867  0.556133  -0.00171  4.223898  -0.003
N  N56  1  0.28034813  0.06627177  0.59757694  1  -1.213853  0.076502  -0.377777  -0.286867  0.051175  3.640132  0.066
N  N57  1  0.21410176  0.93409028  0.90250646  1  -1.203495  0.076385  -0.377475  -0.286178  0.051213  3.642982  0.066
N  N58  1  0.71965857  0.93373208  0.40242477  1  -1.214319  0.076502  -0.377807  -0.286906  0.051175  3.640291  0.066
N  N59  1  0.78588429  0.06590506  0.09749077  1  -1.203564  0.076384  -0.377488  -0.286254  0.051214  3.643088  0.066
N  N60  1  0.96004649  0.06067435  0.69623832  1  -1.240534  0.001877  -0.240446  0.026534  0.0008  3.750452  0.001
N  N61  1  0.89938149  0.93981084  0.80401936  1  -1.233319  0.001872  -0.241371  0.023898  0.000795  3.753327  0.001
N  N62  1  0.03995659  0.93933045  0.30376354  1  -1.240892  0.001877  -0.240549  0.026514  0.0008  3.750506  0.001
N  N63  1  0.10060944  0.06019017  0.19598065  1  -1.233263  0.001872  -0.241388  0.024083  0.000795  3.753145  0.001
O  O64  1  0.25667171  0.82747719  0.48297684  1  -1.10929  0.123462  -0.326313  -0.536783  0.078604  2.34928  0.112
O  O65  1  0.42907854  0.17259892  0.01734335  1  -1.114234  0.123583  -0.325807  -0.53525  0.078558  2.347555  0.112
O  O66  1  0.74333927  0.17252291  0.51702686  1  -1.109274  0.123469  -0.326299  -0.536858  0.078608  2.349253  0.112
O  O67  1  0.57091413  0.82739735  0.98265211  1  -1.114237  0.123583  -0.325771  -0.535128  0.078558  2.347602  0.112
O  O68  1  0.52362787  0.79367061  0.58931890  1  -1.184735  0.001234  -0.326204  -0.575322  -0.000316  2.212861  0.002
O  O69  1  0.72986715  0.20624258  0.91089956  1  -1.192384  0.001234  -0.325918  -0.574455  -0.000315  2.216542  0.002
O  O70  1  0.47637507  0.20632572  0.41068486  1  -1.184636  0.001235  -0.326271  -0.575415  -0.000315  2.21279  0.002
O  O71  1  0.27014366  0.79376127  0.08910280  1  -1.192362  0.001235  -0.325946  -0.574415  -0.000314  2.216574  0.002
