# generated using pymatgen
data_CuH7C7N4ClO3
_symmetry_space_group_name_H-M   'P 1'
_cell_length_a   6.43465018
_cell_length_b   10.20929665
_cell_length_c   9.72771256
_cell_angle_alpha   110.33256560
_cell_angle_beta   90.00200852
_cell_angle_gamma   89.99686433
_symmetry_Int_Tables_number   1
_chemical_formula_structural   CuH7C7N4ClO3
_chemical_formula_sum   'Cu2 H14 C14 N8 Cl2 O6'
_cell_volume   599.22719552
_cell_formula_units_Z   2
loop_
 _symmetry_equiv_pos_site_id
 _symmetry_equiv_pos_as_xyz
  1  'x, y, z'
loop_
 _atom_site_type_symbol
 _atom_site_label
 _atom_site_symmetry_multiplicity
 _atom_site_fract_x
 _atom_site_fract_y
 _atom_site_fract_z
 _atom_site_occupancy
 _atom_site_pbe_bader_charge
 _atom_site_pbe_bader_spin_density
 _atom_site_pbe_cm5_charge
 _atom_site_pbe_ddec_charge
 _atom_site_pbe_ddec_spin_density
 _atom_site_pbe_ddec_sum_bond_order
 _atom_site_pbe_magmom
Cu  Cu0  1  0.00000251  0.99999849  0.49999777  1  1.089831  0.518363  0.726022  0.865103  0.673403  2.263751  0.518
Cu  Cu1  1  0.50000012  0.00000159  0.50000158  1  1.089444  -0.518369  0.726071  0.865116  -0.673409  2.264059  -0.518
H  H2  1  0.75002143  0.70108234  0.16069534  1  0.11084  0.0  0.10803  0.082878  0.0  1.016776  0.0
H  H3  1  0.24997731  0.29892194  0.83930305  1  0.110861  0.0  0.108005  0.082829  0.0  1.016837  0.0
H  H4  1  0.75000853  0.70644963  0.90834797  1  0.096666  -0.0  0.102396  0.104919  -0.0  1.050772  0.0
H  H5  1  0.24998710  0.29355464  0.09164732  1  0.096649  0.0  0.102348  0.104896  -0.0  1.050868  0.0
H  H6  1  0.74998103  0.47666922  0.69496777  1  0.079556  -0.0  0.109786  0.108587  -0.0  0.971586  0.0
H  H7  1  0.25000838  0.52333297  0.30503089  1  0.07959  -0.0  0.109759  0.108485  -0.0  0.971635  0.0
H  H8  1  0.75003595  0.90824687  0.78503283  1  0.088189  -0.0  0.101495  0.114403  -0.0  0.992097  0.0
H  H9  1  0.24997056  0.09175427  0.21496647  1  0.088216  -0.0  0.101512  0.114451  -0.0  0.992027  0.0
H  H10  1  0.74998736  0.75301677  0.47647977  1  0.59403  -0.0  0.333012  0.37463  -0.0  0.865535  0.0
H  H11  1  0.25002226  0.24698020  0.52352007  1  0.594052  -0.0  0.333016  0.374649  -0.0  0.865468  0.0
H  H12  1  0.89014258  0.74899864  0.70211813  1  0.051193  -3e-06  0.092135  0.089707  -3.4e-05  1.001176  0.0
H  H13  1  0.39013247  0.25099367  0.29788838  1  0.051376  3e-06  0.092117  0.089697  3.4e-05  1.001175  0.0
H  H14  1  0.10986083  0.25100356  0.29788463  1  0.051236  -3e-06  0.092099  0.08967  -3.4e-05  1.001138  0.0
H  H15  1  0.60987870  0.74901062  0.70211618  1  0.051393  3e-06  0.092033  0.089614  3.4e-05  1.001344  0.0
C  C16  1  0.74998818  0.35547047  0.83772478  1  0.076561  -3e-06  -0.015306  -0.123944  -2e-06  3.947474  0.0
C  C17  1  0.25000590  0.64453068  0.16227863  1  0.07664  -3e-06  -0.015207  -0.123942  -2e-06  3.947578  0.0
C  C18  1  0.75002751  0.60404388  0.06691243  1  0.505676  2e-06  0.043951  0.114654  1e-06  3.960206  0.0
C  C19  1  0.24995724  0.39595414  0.93308882  1  0.505411  4e-06  0.043937  0.114673  2e-06  3.960201  0.0
C  C20  1  0.74997926  0.36594612  0.98529688  1  0.654084  1e-06  0.141147  0.247805  0.0  4.080636  0.0
C  C21  1  0.25001481  0.63405502  0.01470140  1  0.653469  1e-06  0.141094  0.247677  1e-06  4.080525  0.0
C  C22  1  0.74999209  0.21655971  0.71613192  1  1.577866  -0.0  0.224696  0.621939  -0.0  4.152917  0.0
C  C23  1  0.25000975  0.78343622  0.28386858  1  1.578232  -2e-06  0.224682  0.622035  -0.0  4.152879  0.0
C  C24  1  0.75002388  0.60644306  0.92466406  1  -0.008554  -0.0  -0.093986  -0.141996  -0.0  3.998746  0.0
C  C25  1  0.24995776  0.39355703  0.07533281  1  -0.008164  -1e-06  -0.093935  -0.142034  -0.0  3.998928  0.0
C  C26  1  0.74999325  0.47992049  0.80829267  1  -0.075616  1e-06  -0.068255  -0.037042  1e-06  3.946835  0.0
C  C27  1  0.24998839  0.52007752  0.19170446  1  -0.076028  2e-06  -0.068225  -0.036812  2e-06  3.946753  0.0
C  C28  1  0.75001272  0.80782879  0.69434596  1  0.35635  0.0  -0.153492  -0.113801  0.0  3.914186  0.0
C  C29  1  0.24999690  0.19217341  0.30565680  1  0.356324  -0.0  -0.153572  -0.113924  -0.0  3.913968  0.0
N  N30  1  0.74998732  0.99470360  0.25828211  1  -0.385111  -1e-06  0.098677  0.44367  -1e-06  4.394976  0.0
N  N31  1  0.25001297  0.00529546  0.74172055  1  -0.385023  -1e-06  0.098738  0.443793  -1e-06  4.394797  0.0
N  N32  1  0.74998602  0.03712505  0.39203678  1  -0.277939  1e-06  -0.369513  -0.585911  2e-06  3.226026  0.0
N  N33  1  0.25001427  0.96287192  0.60796409  1  -0.277914  -1e-06  -0.369513  -0.585934  1e-06  3.225973  0.0
N  N34  1  0.74999892  0.48550297  0.09743586  1  -1.187076  -2e-06  -0.33233  -0.32474  -1e-06  3.36185  0.0
N  N35  1  0.25000448  0.51449504  0.90256024  1  -1.186885  -3e-06  -0.33232  -0.324667  -2e-06  3.361554  0.0
N  N36  1  0.74999008  0.95802386  0.13147419  1  0.138375  -0.0  -0.126375  -0.275585  -0.0  2.572069  0.0
N  N37  1  0.25001488  0.04197625  0.86853091  1  0.138243  -3e-06  -0.126401  -0.275647  -1e-06  2.57192  0.0
Cl  Cl38  1  0.74998625  0.21408167  0.02769504  1  -0.19379  -0.0  0.010109  -0.093027  -0.0  1.608886  0.0
Cl  Cl39  1  0.25001404  0.78592051  0.97230053  1  -0.193246  -0.0  0.010115  -0.092993  -0.0  1.608882  0.0
O  O40  1  0.92787209  0.16544944  0.67100442  1  -1.117844  0.079045  -0.309169  -0.531457  0.052242  2.383545  0.072
O  O41  1  0.42787249  0.83454894  0.32901338  1  -1.117887  -0.079032  -0.309103  -0.531433  -0.052234  2.383733  -0.072
O  O42  1  0.07213598  0.83454856  0.32898963  1  -1.118281  0.079036  -0.309128  -0.531405  0.052234  2.383484  0.072
O  O43  1  0.57213091  0.16545117  0.67099068  1  -1.117968  -0.079033  -0.309035  -0.531284  -0.052234  2.383775  -0.072
O  O44  1  0.75002343  0.83935066  0.56101758  1  -1.106493  -1e-06  -0.406059  -0.499152  0.0  2.478407  0.0
O  O45  1  0.24997842  0.16064840  0.43898096  1  -1.106532  -0.0  -0.406055  -0.499149  0.0  2.478401  0.0
