# generated using pymatgen
data_KH5C4O3
_symmetry_space_group_name_H-M   'P 1'
_cell_length_a   3.89110441
_cell_length_b   8.81739928
_cell_length_c   15.39399469
_cell_angle_alpha   90.00040358
_cell_angle_beta   97.01915011
_cell_angle_gamma   90.00008766
_symmetry_Int_Tables_number   1
_chemical_formula_structural   KH5C4O3
_chemical_formula_sum   'K4 H20 C16 O12'
_cell_volume   524.20068815
_cell_formula_units_Z   4
loop_
 _symmetry_equiv_pos_site_id
 _symmetry_equiv_pos_as_xyz
  1  'x, y, z'
loop_
 _atom_site_type_symbol
 _atom_site_label
 _atom_site_symmetry_multiplicity
 _atom_site_fract_x
 _atom_site_fract_y
 _atom_site_fract_z
 _atom_site_occupancy
 _atom_site_pbe_bader_spin_density
 _atom_site_pbe_cm5_charge
 _atom_site_pbe_ddec_charge
 _atom_site_pbe_ddec_spin_density
 _atom_site_pbe_ddec_sum_bond_order
 _atom_site_pbe_magmom
K  K0  1  0.69397512  0.33169615  0.28372643  1  0  0.775429  0.889747  0  0.661351  0
K  K1  1  0.80599340  0.83169921  0.21627834  1  0  0.775434  0.889749  0  0.66136  0
K  K2  1  0.30600541  0.66829451  0.71627489  1  0  0.775504  0.889737  0  0.661467  0
K  K3  1  0.19399490  0.16829258  0.78372452  1  0  0.775507  0.889757  0  0.661477  0
H  H4  1  0.81753175  0.11007147  0.95823784  1  0  0.09362  0.113836  0  1.036209  0
H  H5  1  0.68247315  0.61007119  0.54175906  1  0  0.093636  0.113869  0  1.036209  0
H  H6  1  0.18246174  0.88991919  0.04175348  1  0  0.09363  0.113904  0  1.036271  0
H  H7  1  0.31754623  0.38991834  0.45824801  1  0  0.093626  0.113903  0  1.036305  0
H  H8  1  0.42848639  0.18889521  0.98606613  1  0  0.092132  0.117432  0  1.03396  0
H  H9  1  0.07152181  0.68889791  0.51393101  1  0  0.092095  0.117382  0  1.03404  0
H  H10  1  0.57150968  0.81109999  0.01392917  1  0  0.092086  0.117407  0  1.033961  0
H  H11  1  0.92849239  0.31110182  0.48607135  1  0  0.092065  0.117368  0  1.033962  0
H  H12  1  0.75962940  0.13750381  0.07000803  1  0  0.09908  0.12689  0  1.027206  0
H  H13  1  0.74037948  0.63750265  0.42998875  1  0  0.099085  0.126862  0  1.027199  0
H  H14  1  0.24038221  0.86250953  0.92998515  1  0  0.099101  0.126909  0  1.027232  0
H  H15  1  0.25962436  0.36251183  0.57001653  1  0  0.099099  0.126885  0  1.027187  0
H  H16  1  0.23790194  0.56136891  0.24376299  1  0  0.269469  0.341268  0  1.038245  0
H  H17  1  0.26209126  0.06136896  0.25623671  1  0  0.269457  0.341242  0  1.038289  0
H  H18  1  0.76209413  0.43863195  0.75623361  1  0  0.269475  0.341321  0  1.038194  0
H  H19  1  0.73790999  0.93863191  0.74376525  1  0  0.269465  0.34128  0  1.038247  0
H  H20  1  0.27295027  0.64436561  0.33473861  1  0  0.285638  0.376539  0  0.971866  0
H  H21  1  0.22704598  0.14436679  0.16525892  1  0  0.285608  0.376469  0  0.971968  0
H  H22  1  0.72706134  0.35563412  0.66526042  1  0  0.285619  0.376506  0  0.971924  0
H  H23  1  0.77294232  0.85563522  0.83474004  1  0  0.28562  0.37648  0  0.971969  0
C  C24  1  0.71061457  0.18693747  0.00442901  1  0  -0.2384  -0.366308  0  3.978892  0
C  C25  1  0.78938941  0.68693714  0.49556912  1  0  -0.23838  -0.366275  0  3.978907  0
C  C26  1  0.28938410  0.81305999  0.99556182  1  0  -0.238397  -0.366497  0  3.978972  0
C  C27  1  0.21062220  0.31305919  0.50443835  1  0  -0.238365  -0.366411  0  3.978933  0
C  C28  1  0.85777754  0.34424580  0.00323667  1  0  -0.062366  -0.145614  0  4.059646  0
C  C29  1  0.64221177  0.84424312  0.49676164  1  0  -0.062311  -0.145521  0  4.059594  0
C  C30  1  0.14218488  0.65575733  0.99675044  1  0  -0.062104  -0.14498  0  4.059454  0
C  C31  1  0.35781536  0.15575774  0.50325151  1  0  -0.062114  -0.145021  0  4.059353  0
C  C32  1  0.05036568  0.40781235  0.07782843  1  0  0.118358  0.271817  0  4.057254  0
C  C33  1  0.44963720  0.90781577  0.42217362  1  0  0.118368  0.271818  0  4.057181  0
C  C34  1  0.94963040  0.59218851  0.92216297  1  0  0.118066  0.271191  0  4.057379  0
C  C35  1  0.55036404  0.09218396  0.57783678  1  0  0.118096  0.271215  0  4.057288  0
C  C36  1  0.18680701  0.57088881  0.07474743  1  0  0.114373  0.253602  0  4.077459  0
C  C37  1  0.31318365  0.07088982  0.42525158  1  0  0.114394  0.253616  0  4.077538  0
C  C38  1  0.81316835  0.42911319  0.92524203  1  0  0.114471  0.253889  0  4.077498  0
C  C39  1  0.68683572  0.92910991  0.57476003  1  0  0.11441  0.25378  0  4.077712  0
O  O40  1  0.12397071  0.33748143  0.15020985  1  0  -0.400651  -0.537679  0  2.266298  0
O  O41  1  0.37600848  0.83748164  0.34978793  1  0  -0.40076  -0.537799  0  2.26613  0
O  O42  1  0.87597358  0.66252625  0.84977605  1  0  -0.400535  -0.537449  0  2.266024  0
O  O43  1  0.62402384  0.16252377  0.65022603  1  0  -0.400548  -0.537501  0  2.266074  0
O  O44  1  0.33749724  0.62602007  0.14636700  1  0  -0.39943  -0.54814  0  2.285638  0
O  O45  1  0.16249891  0.12602010  0.35363500  1  0  -0.399424  -0.548099  0  2.285732  0
O  O46  1  0.66247554  0.37397740  0.85361589  1  0  -0.399467  -0.548194  0  2.285636  0
O  O47  1  0.83752305  0.87397736  0.64638124  1  0  -0.399423  -0.548075  0  2.285933  0
O  O48  1  0.18872565  0.54842669  0.30580265  1  0  -0.747344  -0.893564  0  2.032171  0
O  O49  1  0.31126748  0.04842827  0.19419635  1  0  -0.747286  -0.893464  0  2.032245  0
O  O50  1  0.81128078  0.45157532  0.69419492  1  0  -0.747362  -0.893566  0  2.03215  0
O  O51  1  0.68872859  0.95157600  0.80580545  1  0  -0.747349  -0.893513  0  2.032209  0
