# generated using pymatgen
data_CaP2H28(C2O)6
_symmetry_space_group_name_H-M   'P 1'
_cell_length_a   5.56823670
_cell_length_b   7.27313378
_cell_length_c   20.76053798
_cell_angle_alpha   96.76699342
_cell_angle_beta   95.12771741
_cell_angle_gamma   90.38481880
_symmetry_Int_Tables_number   1
_chemical_formula_structural   CaP2H28(C2O)6
_chemical_formula_sum   'Ca2 P4 H56 C24 O12'
_cell_volume   831.44626846
_cell_formula_units_Z   2
loop_
 _symmetry_equiv_pos_site_id
 _symmetry_equiv_pos_as_xyz
  1  'x, y, z'
loop_
 _atom_site_type_symbol
 _atom_site_label
 _atom_site_symmetry_multiplicity
 _atom_site_fract_x
 _atom_site_fract_y
 _atom_site_fract_z
 _atom_site_occupancy
 _atom_site_hle17_bader_spin_density
 _atom_site_hle17_ddec_charge
 _atom_site_hle17_ddec_spin_density
 _atom_site_hle17_ddec_sum_bond_order
 _atom_site_hle17_magmom
 _atom_site_hse06_10hf_bader_spin_density
 _atom_site_hse06_10hf_ddec_charge
 _atom_site_hse06_10hf_ddec_spin_density
 _atom_site_hse06_10hf_ddec_sum_bond_order
 _atom_site_hse06_10hf_magmom
 _atom_site_hse06_bader_spin_density
 _atom_site_hse06_ddec_charge
 _atom_site_hse06_ddec_spin_density
 _atom_site_hse06_ddec_sum_bond_order
 _atom_site_hse06_magmom
 _atom_site_pbe_bader_spin_density
 _atom_site_pbe_cm5_charge
 _atom_site_pbe_ddec_charge
 _atom_site_pbe_ddec_spin_density
 _atom_site_pbe_ddec_sum_bond_order
 _atom_site_pbe_magmom
Ca  Ca0  1  0.13164627  0.75112066  0.99994533  1  0  1.629656  0  1.027743  0  0  1.507824  0  1.360613  0  0  1.546687  0  1.320084  0  0  0.932068  1.478568  0  1.389217  0
Ca  Ca1  1  0.86836263  0.24888109  0.00005402  1  0  1.629595  0  1.027829  0  0  1.50782  0  1.36059  0  0  1.54664  0  1.320143  0  0  0.932053  1.478579  0  1.389173  0
P  P2  1  0.29069753  0.10930245  0.90198827  1  0  1.538644  0  4.740767  0  0  1.383808  0  5.23869  0  0  1.433517  0  5.198899  0  0  0.376617  1.348971  0  5.265653  0
P  P3  1  0.70931144  0.89070068  0.09801066  1  0  1.538865  0  4.740488  0  0  1.384073  0  5.238348  0  0  1.433784  0  5.198551  0  0  0.376661  1.349235  0  5.265313  0
P  P4  1  0.64327872  0.60744956  0.90328916  1  0  1.536389  0  4.750455  0  0  1.381144  0  5.250114  0  0  1.430602  0  5.210664  0  0  0.374686  1.346551  0  5.276763  0
P  P5  1  0.35672293  0.39255357  0.09671100  1  0  1.536387  0  4.750492  0  0  1.381117  0  5.25014  0  0  1.430579  0  5.210685  0  0  0.374692  1.346524  0  5.276793  0
H  H6  1  0.26610261  0.42569630  0.90457451  1  0  0.437692  0  0.871773  0  0  0.402918  0  0.941928  0  0  0.414894  0  0.924707  0  0  0.322391  0.394542  0  0.953956  0
H  H7  1  0.73389543  0.57430546  0.09542501  1  0  0.437689  0  0.871774  0  0  0.402913  0  0.941931  0  0  0.41489  0  0.92471  0  0  0.3224  0.394539  0  0.953953  0
H  H8  1  0.66961917  0.92236826  0.90486585  1  0  0.436925  0  0.871076  0  0  0.402592  0  0.940768  0  0  0.414499  0  0.923571  0  0  0.322558  0.394245  0  0.95281  0
H  H9  1  0.33038068  0.07763487  0.09513426  1  0  0.43693  0  0.871066  0  0  0.402603  0  0.940748  0  0  0.414507  0  0.923556  0  0  0.322576  0.394256  0  0.952791  0
H  H10  1  0.39493374  0.97907255  0.79831958  1  0  0.111424  0  0.958849  0  0  0.122887  0  1.025967  0  0  0.125063  0  1.025251  0  0  0.099291  0.120953  0  1.027261  0
H  H11  1  0.60507904  0.02093751  0.20167928  1  0  0.111517  0  0.958898  0  0  0.123003  0  1.025961  0  0  0.12518  0  1.025243  0  0  0.099353  0.12107  0  1.027252  0
H  H12  1  0.23006872  0.82182012  0.83681243  1  0  0.129822  0  0.963822  0  0  0.142308  0  1.025837  0  0  0.144822  0  1.025439  0  0  0.110669  0.140445  0  1.026235  0
H  H13  1  0.76994753  0.17818026  0.16318466  1  0  0.129822  0  0.963842  0  0  0.142301  0  1.025889  0  0  0.14481  0  1.025491  0  0  0.110648  0.14043  0  1.026298  0
H  H14  1  0.84804852  0.99943199  0.80946809  1  0  0.072135  0  0.948667  0  0  0.091601  0  1.008526  0  0  0.092462  0  1.008912  0  0  0.094185  0.090814  0  1.008697  0
H  H15  1  0.15196214  0.00056699  0.19053071  1  0  0.072075  0  0.948673  0  0  0.091543  0  1.008554  0  0  0.092404  0  1.008944  0  0  0.094165  0.090756  0  1.008726  0
H  H16  1  0.01808162  0.14342908  0.76722761  1  0  0.061051  0  0.940139  0  0  0.081601  0  1.000073  0  0  0.081712  0  1.001543  0  0  0.08856  0.081485  0  0.999136  0
H  H17  1  0.98192554  0.85657130  0.23277019  1  0  0.060993  0  0.940174  0  0  0.081604  0  1.000051  0  0  0.081717  0  1.00152  0  0  0.088543  0.081487  0  0.999116  0
H  H18  1  0.13725142  0.86100119  0.69484027  1  0  0.046451  0  0.951549  0  0  0.064739  0  1.020022  0  0  0.065282  0  1.020183  0  0  0.08178  0.063984  0  1.020704  0
H  H19  1  0.86275026  0.13899505  0.30515670  1  0  0.046378  0  0.951617  0  0  0.064632  0  1.020109  0  0  0.065176  0  1.02027  0  0  0.081732  0.063872  0  1.020788  0
H  H20  1  0.96529018  0.72024988  0.73731611  1  0  0.06075  0  0.93454  0  0  0.082619  0  0.993282  0  0  0.082726  0  0.994791  0  0  0.088458  0.082516  0  0.992241  0
H  H21  1  0.03471143  0.27974910  0.26268291  1  0  0.060759  0  0.934572  0  0  0.082611  0  0.993306  0  0  0.08272  0  0.994811  0  0  0.088468  0.082509  0  0.992263  0
H  H22  1  0.58905916  0.88094330  0.70084596  1  0  0.049043  0  0.954423  0  0  0.067879  0  1.021291  0  0  0.068596  0  1.021177  0  0  0.082229  0.067063  0  1.022095  0
H  H23  1  0.41094256  0.11906259  0.29915432  1  0  0.049056  0  0.954466  0  0  0.067905  0  1.021325  0  0  0.068625  0  1.021204  0  0  0.082241  0.067076  0  1.022138  0
H  H24  1  0.75888939  0.02607106  0.65932685  1  0  0.053877  0  0.948098  0  0  0.076648  0  1.006743  0  0  0.076696  0  1.008402  0  0  0.085084  0.076612  0  1.005584  0
H  H25  1  0.24111417  0.97393346  0.34067247  1  0  0.053895  0  0.948119  0  0  0.076668  0  1.006768  0  0  0.076716  0  1.008427  0  0  0.085097  0.076629  0  1.005608  0
H  H26  1  0.89447311  0.74806782  0.58904644  1  0  0.046352  0  0.949122  0  0  0.066657  0  1.011142  0  0  0.066839  0  1.012076  0  0  0.083481  0.066165  0  1.011199  0
H  H27  1  0.10552306  0.25193117  0.41095291  1  0  0.046372  0  0.949139  0  0  0.06668  0  1.011139  0  0  0.066861  0  1.012071  0  0  0.083465  0.066193  0  1.01119  0
H  H28  1  0.72914995  0.60210793  0.63114409  1  0  0.050738  0  0.946865  0  0  0.073099  0  1.004741  0  0  0.073013  0  1.00648  0  0  0.085146  0.073154  0  1.003539  0
H  H29  1  0.27083374  0.39789524  0.36885459  1  0  0.05077  0  0.946878  0  0  0.073125  0  1.004751  0  0  0.073036  0  1.006489  0  0  0.085166  0.073176  0  1.003553  0
H  H30  1  0.34214355  0.75445736  0.59261730  1  0  0.079578  0  0.977164  0  0  0.097543  0  1.049528  0  0  0.099014  0  1.049164  0  0  0.079623  0.095995  0  1.050705  0
H  H31  1  0.65785127  0.24555825  0.40738223  1  0  0.079619  0  0.977187  0  0  0.097577  0  1.049559  0  0  0.099052  0  1.049194  0  0  0.079604  0.096029  0  1.050732  0
H  H32  1  0.51058089  0.89703231  0.54891035  1  0  0.087399  0  0.960964  0  0  0.109298  0  1.024149  0  0  0.110354  0  1.024885  0  0  0.084154  0.108545  0  1.023548  0
H  H33  1  0.48941927  0.10297915  0.45108868  1  0  0.087377  0  0.96093  0  0  0.109252  0  1.02415  0  0  0.110318  0  1.024876  0  0  0.084111  0.108497  0  1.02355  0
H  H34  1  0.49628074  0.65370464  0.52650663  1  0  0.087619  0  0.965024  0  0  0.111027  0  1.023658  0  0  0.112107  0  1.024303  0  0  0.083687  0.110241  0  1.023147  0
H  H35  1  0.50371034  0.34630544  0.47349256  1  0  0.087573  0  0.96503  0  0  0.110998  0  1.023645  0  0  0.112079  0  1.024289  0  0  0.083672  0.11021  0  1.023137  0
H  H36  1  0.84330578  0.48196683  0.81263414  1  0  0.130768  0  0.934543  0  0  0.146024  0  0.991365  0  0  0.148407  0  0.990625  0  0  0.107785  0.143975  0  0.992591  0
H  H37  1  0.15669393  0.51803214  0.18736627  1  0  0.130807  0  0.934568  0  0  0.146047  0  0.991373  0  0  0.148431  0  0.99063  0  0  0.107807  0.143998  0  0.9926  0
H  H38  1  0.65277920  0.31737820  0.83874126  1  0  0.132432  0  0.964654  0  0  0.142994  0  1.028567  0  0  0.145592  0  1.028136  0  0  0.11052  0.141075  0  1.028985  0
H  H39  1  0.34721511  0.68262354  0.16126007  1  0  0.132391  0  0.96465  0  0  0.142964  0  1.028539  0  0  0.145562  0  1.028108  0  0  0.110516  0.141047  0  1.028955  0
H  H40  1  0.48737679  0.63621180  0.76030968  1  0  0.057235  0  0.944172  0  0  0.079281  0  1.003443  0  0  0.079226  0  1.005149  0  0  0.088938  0.079299  0  1.002274  0
H  H41  1  0.51262296  0.36378994  0.23969134  1  0  0.05735  0  0.944251  0  0  0.079428  0  1.003451  0  0  0.079373  0  1.005155  0  0  0.089002  0.079446  0  1.002282  0
H  H42  1  0.28836329  0.49291228  0.79409271  1  0  0.05984  0  0.952054  0  0  0.077463  0  1.018693  0  0  0.078458  0  1.018359  0  0  0.090269  0.076476  0  1.019463  0
H  H43  1  0.71163472  0.50709360  0.20590891  1  0  0.059893  0  0.951983  0  0  0.077509  0  1.018629  0  0  0.078506  0  1.01829  0  0  0.090293  0.076524  0  1.019399  0
H  H44  1  0.45481143  0.21324767  0.72883845  1  0  0.059874  0  0.942755  0  0  0.081902  0  1.002391  0  0  0.081898  0  1.004108  0  0  0.08781  0.08193  0  1.001107  0
H  H45  1  0.54519538  0.78675265  0.27116415  1  0  0.059854  0  0.942711  0  0  0.081885  0  1.002337  0  0  0.081884  0  1.004051  0  0  0.087817  0.081912  0  1.001053  0
H  H46  1  0.62597846  0.36386372  0.68978265  1  0  0.048569  0  0.952346  0  0  0.067097  0  1.019661  0  0  0.06799  0  1.019364  0  0  0.081772  0.06599  0  1.020839  0
H  H47  1  0.37401424  0.63614357  0.31021791  1  0  0.048576  0  0.952322  0  0  0.067072  0  1.019679  0  0  0.067971  0  1.019378  0  0  0.081762  0.065962  0  1.020859  0
H  H48  1  0.07479962  0.36675330  0.69118607  1  0  0.04893  0  0.947269  0  0  0.067629  0  1.014188  0  0  0.068348  0  1.014154  0  0  0.08279  0.066761  0  1.015036  0
H  H49  1  0.92519412  0.63323042  0.30881592  1  0  0.048873  0  0.947315  0  0  0.0676  0  1.014251  0  0  0.06832  0  1.014214  0  0  0.082754  0.066729  0  1.015097  0
H  H50  1  0.24165644  0.51804887  0.65143387  1  0  0.05465  0  0.948329  0  0  0.076318  0  1.008611  0  0  0.076277  0  1.010379  0  0  0.085764  0.076353  0  1.007348  0
H  H51  1  0.75832309  0.48194318  0.34856807  1  0  0.05462  0  0.948441  0  0  0.07633  0  1.008684  0  0  0.076294  0  1.010455  0  0  0.08578  0.076364  0  1.007421  0
H  H52  1  0.38445899  0.24736741  0.57899462  1  0  0.047438  0  0.94823  0  0  0.06899  0  1.00854  0  0  0.069202  0  1.009455  0  0  0.083604  0.068422  0  1.008695  0
H  H53  1  0.61554221  0.75262737  0.42100854  1  0  0.047397  0  0.948265  0  0  0.068964  0  1.008542  0  0  0.069196  0  1.009436  0  0  0.0836  0.068398  0  1.008693  0
H  H54  1  0.22250268  0.09494721  0.61962684  1  0  0.052682  0  0.944646  0  0  0.07542  0  1.0026  0  0  0.075261  0  1.004423  0  0  0.085955  0.075529  0  1.001324  0
H  H55  1  0.77749678  0.90504621  0.38037478  1  0  0.052601  0  0.944553  0  0  0.075335  0  1.002516  0  0  0.07517  0  1.004346  0  0  0.085906  0.075444  0  1.001238  0
H  H56  1  0.98654360  0.15703170  0.51565024  1  0  0.089145  0  0.966872  0  0  0.11234  0  1.025447  0  0  0.113384  0  1.026199  0  0  0.083751  0.111613  0  1.024825  0
H  H57  1  0.01345940  0.84295756  0.48435082  1  0  0.089178  0  0.966938  0  0  0.112357  0  1.025516  0  0  0.113398  0  1.026272  0  0  0.083741  0.111626  0  1.024898  0
H  H58  1  0.99510756  0.39803603  0.54260114  1  0  0.087786  0  0.964381  0  0  0.109526  0  1.027307  0  0  0.110558  0  1.028044  0  0  0.083737  0.108817  0  1.026661  0
H  H59  1  0.00489173  0.60195183  0.45740071  1  0  0.087796  0  0.964273  0  0  0.109522  0  1.027251  0  0  0.110553  0  1.027987  0  0  0.083715  0.108811  0  1.026606  0
H  H60  1  0.83215153  0.24460191  0.58352381  1  0  0.081824  0  0.97129  0  0  0.10008  0  1.042217  0  0  0.101423  0  1.04216  0  0  0.080101  0.098589  0  1.043226  0
H  H61  1  0.16784967  0.75538735  0.41647719  1  0  0.081826  0  0.971349  0  0  0.100093  0  1.042244  0  0  0.101436  0  1.042187  0  0  0.080132  0.09861  0  1.043237  0
C  C62  1  0.23427876  0.96499603  0.82484293  1  0  -0.452513  0  3.678174  0  0  -0.469976  0  3.926375  0  0  -0.479239  0  3.934486  0  0  -0.167886  -0.463313  0  3.920818  0
C  C63  1  0.76573028  0.03500850  0.17515558  1  0  -0.452682  0  3.678184  0  0  -0.470249  0  3.926514  0  0  -0.479502  0  3.934627  0  0  -0.167955  -0.463578  0  3.920962  0
C  C64  1  0.00671485  0.00321550  0.78175067  1  0  -0.050556  0  3.681729  0  0  -0.093141  0  3.939741  0  0  -0.092787  0  3.9542  0  0  -0.163016  -0.093045  0  3.929384  0
C  C65  1  0.99329220  0.99678211  0.21824749  1  0  -0.050359  0  3.681598  0  0  -0.092992  0  3.939589  0  0  -0.092643  0  3.954054  0  0  -0.162926  -0.092892  0  3.929228  0
C  C66  1  0.97445966  0.85954430  0.72154146  1  0  -0.103785  0  3.687154  0  0  -0.144304  0  3.95112  0  0  -0.145202  0  3.966149  0  0  -0.166583  -0.143313  0  3.940331  0
C  C67  1  0.02554375  0.14045331  0.27845707  1  0  -0.103766  0  3.687271  0  0  -0.144202  0  3.951148  0  0  -0.1451  0  3.966178  0  0  -0.166562  -0.143207  0  3.940348  0
C  C68  1  0.75313217  0.88642171  0.67489248  1  0  -0.109237  0  3.699065  0  0  -0.150309  0  3.959971  0  0  -0.151392  0  3.975165  0  0  -0.167551  -0.149223  0  3.949028  0
C  C69  1  0.24686955  0.11358142  0.32510672  1  0  -0.109226  0  3.699196  0  0  -0.150341  0  3.960084  0  0  -0.151425  0  3.975275  0  0  -0.167553  -0.149243  0  3.949139  0
C  C70  1  0.73103775  0.74113444  0.61505314  1  0  -0.061027  0  3.718038  0  0  -0.09359  0  3.974254  0  0  -0.09425  0  3.990558  0  0  -0.168319  -0.092687  0  3.962446  0
C  C71  1  0.26895676  0.25887009  0.38494639  1  0  -0.061148  0  3.718192  0  0  -0.093693  0  3.97439  0  0  -0.094345  0  3.990685  0  0  -0.168361  -0.092792  0  3.962578  0
C  C72  1  0.50862532  0.76261228  0.56818641  1  0  -0.284794  0  3.730217  0  0  -0.358817  0  3.976194  0  0  -0.361485  0  3.987796  0  0  -0.247195  -0.356447  0  3.968096  0
C  C73  1  0.49136576  0.23739643  0.43181224  1  0  -0.284715  0  3.730294  0  0  -0.358743  0  3.976234  0  0  -0.361426  0  3.98783  0  0  -0.247113  -0.356373  0  3.968142  0
C  C74  1  0.66123962  0.46102494  0.82744907  1  0  -0.458273  0  3.683478  0  0  -0.474891  0  3.932773  0  0  -0.484516  0  3.941309  0  0  -0.167606  -0.467977  0  3.926821  0
C  C75  1  0.33875645  0.53897541  0.17255226  1  0  -0.458329  0  3.683486  0  0  -0.47487  0  3.932641  0  0  -0.484495  0  3.941168  0  0  -0.167664  -0.467962  0  3.926694  0
C  C76  1  0.46489948  0.49613235  0.77423166  1  0  -0.054735  0  3.711542  0  0  -0.09914  0  3.972642  0  0  -0.098784  0  3.987743  0  0  -0.164012  -0.099019  0  3.961785  0
C  C77  1  0.53510019  0.50386799  0.22576977  1  0  -0.054944  0  3.711612  0  0  -0.099367  0  3.972646  0  0  -0.099025  0  3.987773  0  0  -0.16409  -0.099249  0  3.961794  0
C  C78  1  0.45831671  0.35369733  0.71386937  1  0  -0.105584  0  3.6858  0  0  -0.146884  0  3.950063  0  0  -0.147927  0  3.965095  0  0  -0.167237  -0.145754  0  3.93927  0
C  C79  1  0.54167940  0.64630440  0.28613202  1  0  -0.10547  0  3.685639  0  0  -0.146734  0  3.949914  0  0  -0.147783  0  3.964948  0  0  -0.167214  -0.145604  0  3.939123  0
C  C80  1  0.23967559  0.37687879  0.66581230  1  0  -0.107966  0  3.701103  0  0  -0.147483  0  3.962712  0  0  -0.148579  0  3.978195  0  0  -0.167426  -0.146318  0  3.951425  0
C  C81  1  0.76031663  0.62311463  0.33418958  1  0  -0.107965  0  3.701215  0  0  -0.147589  0  3.962845  0  0  -0.148701  0  3.978358  0  0  -0.167441  -0.146416  0  3.951541  0
C  C82  1  0.22178332  0.23572373  0.60498122  1  0  -0.063307  0  3.720046  0  0  -0.098097  0  3.978441  0  0  -0.098675  0  3.994528  0  0  -0.169313  -0.09722  0  3.966739  0
C  C83  1  0.77821600  0.76426552  0.39502069  1  0  -0.06315  0  3.719907  0  0  -0.097911  0  3.978286  0  0  -0.098496  0  3.994372  0  0  -0.169266  -0.097033  0  3.966587  0
C  C84  1  0.99734839  0.25975715  0.55908331  1  0  -0.288022  0  3.7298  0  0  -0.360476  0  3.975634  0  0  -0.363141  0  3.987183  0  0  -0.246826  -0.358123  0  3.967537  0
C  C85  1  0.00265100  0.74023350  0.44091818  1  0  -0.288065  0  3.729843  0  0  -0.360523  0  3.975664  0  0  -0.363188  0  3.987218  0  0  -0.246808  -0.358172  0  3.967568  0
O  O86  1  0.56492485  0.12205710  0.92000277  1  0  -0.920637  0  1.935923  0  0  -0.835357  0  2.193832  0  0  -0.862012  0  2.172858  0  0  -0.409693  -0.816295  0  2.208073  0
O  O87  1  0.43507333  0.87794882  0.07999645  1  0  -0.920718  0  1.935814  0  0  -0.835428  0  2.193701  0  0  -0.862092  0  2.172727  0  0  -0.409706  -0.816363  0  2.207941  0
O  O88  1  0.17908596  0.30198601  0.88831039  1  0  -0.776206  0  2.049007  0  0  -0.696333  0  2.281088  0  0  -0.719167  0  2.257443  0  0  -0.367765  -0.680285  0  2.297346  0
O  O89  1  0.82091393  0.69801713  0.11168923  1  0  -0.776263  0  2.048931  0  0  -0.696395  0  2.281008  0  0  -0.719239  0  2.257373  0  0  -0.367814  -0.680337  0  2.297255  0
O  O90  1  0.15240457  0.03706196  0.95438290  1  0  -0.973217  0  1.960345  0  0  -0.8921  0  2.241042  0  0  -0.920207  0  2.221134  0  0  -0.457541  -0.871587  0  2.254062  0
O  O91  1  0.84759524  0.96293703  0.04561606  1  0  -0.973293  0  1.960381  0  0  -0.8922  0  2.241085  0  0  -0.920304  0  2.221172  0  0  -0.45755  -0.871682  0  2.254102  0
O  O92  1  0.37946557  0.62224420  0.91947023  1  0  -0.911399  0  1.93676  0  0  -0.823473  0  2.19059  0  0  -0.850193  0  2.170022  0  0  -0.404614  -0.804312  0  2.204343  0
O  O93  1  0.62053418  0.37775753  0.08053078  1  0  -0.911387  0  1.936755  0  0  -0.823463  0  2.190582  0  0  -0.850184  0  2.170023  0  0  -0.404608  -0.804312  0  2.204353  0
O  O94  1  0.74765764  0.80047112  0.88915802  1  0  -0.773184  0  2.049751  0  0  -0.694863  0  2.279675  0  0  -0.717446  0  2.256138  0  0  -0.368509  -0.679072  0  2.295965  0
O  O95  1  0.25234040  0.19952925  0.11084095  1  0  -0.773175  0  2.049706  0  0  -0.69486  0  2.279628  0  0  -0.717436  0  2.256081  0  0  -0.368533  -0.679071  0  2.295923  0
O  O96  1  0.81217334  0.53783790  0.95680133  1  0  -0.972244  0  1.965837  0  0  -0.892002  0  2.247767  0  0  -0.919869  0  2.227812  0  0  -0.456352  -0.871684  0  2.260778  0
O  O97  1  0.18782831  0.46216661  0.04319938  1  0  -0.97221  0  1.965917  0  0  -0.891995  0  2.247905  0  0  -0.919845  0  2.227911  0  0  -0.456326  -0.871659  0  2.260885  0
