# generated using pymatgen
data_CuP2H10(C4O3)2
_symmetry_space_group_name_H-M   'P 1'
_cell_length_a   6.62591306
_cell_length_b   9.77806991
_cell_length_c   10.05168991
_cell_angle_alpha   91.74435398
_cell_angle_beta   109.25966070
_cell_angle_gamma   89.98926956
_symmetry_Int_Tables_number   1
_chemical_formula_structural   CuP2H10(C4O3)2
_chemical_formula_sum   'Cu2 P4 H20 C16 O12'
_cell_volume   614.46951401
_cell_formula_units_Z   2
loop_
 _symmetry_equiv_pos_site_id
 _symmetry_equiv_pos_as_xyz
  1  'x, y, z'
loop_
 _atom_site_type_symbol
 _atom_site_label
 _atom_site_symmetry_multiplicity
 _atom_site_fract_x
 _atom_site_fract_y
 _atom_site_fract_z
 _atom_site_occupancy
 _atom_site_pbe_bader_charge
 _atom_site_pbe_bader_spin_density
 _atom_site_pbe_cm5_charge
 _atom_site_pbe_ddec_charge
 _atom_site_pbe_ddec_spin_density
 _atom_site_pbe_ddec_sum_bond_order
 _atom_site_pbe_magmom
Cu  Cu0  1  0.06854535  0.24997381  0.00005161  1  1.174549  0.622956  0.774935  1.085279  0.775244  2.077748  0.622
Cu  Cu1  1  0.93144296  0.75002654  0.99994842  1  1.174491  -0.622958  0.775017  1.085437  -0.775245  2.077768  -0.622
P  P2  1  0.91909595  0.99273462  0.79726576  1  3.375289  -0.000306  0.377966  1.22712  -0.000458  5.296949  -0.001
P  P3  1  0.12166764  0.50729329  0.20269729  1  3.375365  -0.000301  0.378752  1.229845  -0.000457  5.295316  -0.001
P  P4  1  0.08090155  0.00726159  0.20272753  1  3.375115  0.000304  0.3779  1.227012  0.000457  5.296591  0.001
P  P5  1  0.87835850  0.49271831  0.79730211  1  3.376298  0.000303  0.37861  1.229862  0.000459  5.295969  0.001
H  H6  1  0.98331429  0.77556974  0.60689001  1  0.10879  6.7e-05  0.105699  0.112111  -3.1e-05  1.0241  0.0
H  H7  1  0.95737371  0.21568838  0.62571408  1  0.078484  -0.000123  0.105107  0.108796  -6.2e-05  1.034431  0.0
H  H8  1  0.44058471  0.96747362  0.63302606  1  0.044691  -8e-06  0.09157  0.090109  -2e-05  1.012397  0.0
H  H9  1  0.38647864  0.06660162  0.77038845  1  0.082282  0.000263  0.104044  0.122121  0.000176  0.997018  0.0
H  H10  1  0.51503436  0.90505945  0.80913618  1  0.051514  0.000243  0.104035  0.10678  0.000199  0.989807  0.0
H  H11  1  0.37676347  0.72445100  0.39285678  1  0.118661  6.8e-05  0.105825  0.112524  -3.1e-05  1.023865  0.0
H  H12  1  0.33068274  0.28440184  0.37466101  1  0.115243  -0.000128  0.105249  0.109092  -6.1e-05  1.033724  0.0
H  H13  1  0.80727992  0.53226700  0.36673101  1  0.051032  -7e-06  0.091548  0.089894  -2e-05  1.012624  0.0
H  H14  1  0.61584187  0.43316063  0.22933049  1  0.088522  0.000263  0.104046  0.122404  0.000176  0.996326  0.0
H  H15  1  0.70525074  0.59479023  0.19063506  1  0.058668  0.000241  0.103814  0.106514  0.000199  0.989672  0.0
H  H16  1  0.01669280  0.22441122  0.39311550  1  0.108886  -6.7e-05  0.105758  0.112332  3.1e-05  1.02431  0.0
H  H17  1  0.04258947  0.78429965  0.37428018  1  0.078601  0.000123  0.105135  0.108742  6.2e-05  1.034468  0.0
H  H18  1  0.55940136  0.03251348  0.36697943  1  0.044565  8e-06  0.091597  0.090139  2e-05  1.012458  0.0
H  H19  1  0.61353660  0.93339476  0.22962670  1  0.082172  -0.000263  0.10402  0.122114  -0.000176  0.996973  0.0
H  H20  1  0.48501472  0.09494315  0.19088842  1  0.051774  -0.000243  0.104056  0.106834  -0.000199  0.989819  0.0
H  H21  1  0.62323939  0.27554620  0.60713236  1  0.11861  -6.8e-05  0.10575  0.112415  3.1e-05  1.023911  0.0
H  H22  1  0.66927724  0.71559232  0.62533179  1  0.115268  0.000128  0.105297  0.109087  6.1e-05  1.034074  0.0
H  H23  1  0.19272350  0.46774668  0.63327135  1  0.05096  7e-06  0.091548  0.089819  2e-05  1.012509  0.0
H  H24  1  0.38417393  0.56684488  0.77067441  1  0.088445  -0.000262  0.104081  0.122391  -0.000176  0.996219  0.0
H  H25  1  0.29477759  0.40521415  0.80935701  1  0.058731  -0.000241  0.103816  0.10655  -0.000199  0.989541  0.0
C  C26  1  0.95980207  0.99491221  0.62828346  1  -0.57269  -0.008012  -0.020742  -0.189007  -0.004973  3.991293  -0.005
C  C27  1  0.98819354  0.87340913  0.55879975  1  -0.024412  0.002972  -0.078177  -0.063013  0.001863  3.956996  0.002
C  C28  1  0.97359630  0.12147405  0.56930815  1  -0.040435  0.000811  -0.07869  -0.072862  0.000432  3.97384  0.0
C  C29  1  0.49885531  0.99650882  0.74594229  1  0.38651  0.000355  -0.134432  -0.121941  0.0003  3.856282  0.0
C  C30  1  0.33138525  0.50512277  0.37174281  1  -0.614481  -0.008048  -0.020058  -0.188719  -0.004985  3.990934  -0.005
C  C31  1  0.42965447  0.62664384  0.44102876  1  -0.043253  0.002982  -0.078245  -0.062983  0.001864  3.955308  0.002
C  C32  1  0.40384823  0.37859898  0.43094480  1  -0.035137  0.000825  -0.079264  -0.073656  0.000431  3.973622  0.0
C  C33  1  0.75256572  0.50332458  0.25379966  1  0.372166  0.000355  -0.134107  -0.120763  0.000301  3.855806  0.0
C  C34  1  0.04018622  0.00507183  0.37172258  1  -0.618687  0.008049  -0.020743  -0.189092  0.004975  3.991269  0.005
C  C35  1  0.01179938  0.12659521  0.44118609  1  -0.024479  -0.002973  -0.078177  -0.063136  -0.001863  3.95681  -0.002
C  C36  1  0.02639720  0.87851610  0.43069522  1  0.00527  -0.000844  -0.078605  -0.072604  -0.000432  3.974319  0.0
C  C37  1  0.50116388  0.00349164  0.25407050  1  0.386585  -0.000354  -0.134386  -0.121829  -0.0003  3.85609  0.0
C  C38  1  0.66863060  0.49488160  0.62824653  1  -0.614634  0.008048  -0.019992  -0.188396  0.004986  3.990441  0.005
C  C39  1  0.57034296  0.37336364  0.55896616  1  -0.043255  -0.002981  -0.078217  -0.063085  -0.001863  3.955495  -0.002
C  C40  1  0.59616619  0.62140853  0.56905410  1  -0.035136  -0.000826  -0.079449  -0.073995  -0.000432  3.974037  0.0
C  C41  1  0.24743437  0.49668710  0.74620881  1  0.372484  -0.000354  -0.134042  -0.120594  -0.000301  3.85538  0.0
O  O42  1  0.09523516  0.08092841  0.89964845  1  -1.387219  0.081596  -0.373074  -0.744872  0.050198  2.351144  0.069
O  O43  1  0.69980651  0.06995547  0.78239926  1  -1.299728  0.000506  -0.21893  -0.361931  0.000234  2.539169  0.001
O  O44  1  0.90285471  0.84223708  0.82758750  1  -1.389715  -0.06585  -0.372056  -0.75615  -0.040725  2.438435  -0.056
O  O45  1  0.19557100  0.41909369  0.10037833  1  -1.381437  0.081627  -0.373311  -0.74576  0.050216  2.351493  0.069
O  O46  1  0.91714468  0.43002302  0.21728523  1  -1.30348  0.000512  -0.219577  -0.364409  0.000237  2.540347  0.001
O  O47  1  0.07504250  0.65779451  0.17239761  1  -1.389726  -0.065854  -0.372085  -0.756675  -0.040769  2.438317  -0.056
O  O48  1  0.90476180  0.91907288  0.10034127  1  -1.387152  -0.0816  -0.373079  -0.744866  -0.0502  2.351254  -0.069
O  O49  1  0.30018532  0.93005802  0.21757941  1  -1.299891  -0.000506  -0.218954  -0.362121  -0.000235  2.539176  -0.001
O  O50  1  0.09713265  0.15777152  0.17241951  1  -1.389521  0.065858  -0.37203  -0.756042  0.04073  2.438289  0.056
O  O51  1  0.80441288  0.58090859  0.89960498  1  -1.381311  -0.081643  -0.373263  -0.745793  -0.050226  2.351415  -0.069
O  O52  1  0.08285514  0.56995398  0.78273656  1  -1.304257  -0.00051  -0.219475  -0.364375  -0.000236  2.541089  -0.001
O  O53  1  0.92493716  0.34221810  0.82759889  1  -1.389985  0.065862  -0.372013  -0.756654  0.040773  2.438354  0.056
