# generated using pymatgen
data_CdH16C18(NO3)2
_symmetry_space_group_name_H-M   'P 1'
_cell_length_a   7.07341273
_cell_length_b   9.99402575
_cell_length_c   12.19487632
_cell_angle_alpha   93.29462797
_cell_angle_beta   101.92669767
_cell_angle_gamma   90.60358586
_symmetry_Int_Tables_number   1
_chemical_formula_structural   CdH16C18(NO3)2
_chemical_formula_sum   'Cd2 H32 C36 N4 O12'
_cell_volume   841.85298775
_cell_formula_units_Z   2
loop_
 _symmetry_equiv_pos_site_id
 _symmetry_equiv_pos_as_xyz
  1  'x, y, z'
loop_
 _atom_site_type_symbol
 _atom_site_label
 _atom_site_symmetry_multiplicity
 _atom_site_fract_x
 _atom_site_fract_y
 _atom_site_fract_z
 _atom_site_occupancy
 _atom_site_hle17_bader_spin_density
 _atom_site_hle17_ddec_charge
 _atom_site_hle17_ddec_spin_density
 _atom_site_hle17_ddec_sum_bond_order
 _atom_site_hle17_magmom
 _atom_site_hse06_10hf_bader_spin_density
 _atom_site_hse06_10hf_ddec_charge
 _atom_site_hse06_10hf_ddec_spin_density
 _atom_site_hse06_10hf_ddec_sum_bond_order
 _atom_site_hse06_10hf_magmom
 _atom_site_hse06_bader_spin_density
 _atom_site_hse06_ddec_charge
 _atom_site_hse06_ddec_spin_density
 _atom_site_hse06_ddec_sum_bond_order
 _atom_site_hse06_magmom
 _atom_site_pbe_bader_spin_density
 _atom_site_pbe_cm5_charge
 _atom_site_pbe_ddec_charge
 _atom_site_pbe_ddec_spin_density
 _atom_site_pbe_ddec_sum_bond_order
 _atom_site_pbe_magmom
Cd  Cd0  1  0.16971488  0.01569387  0.23999537  1  0  1.154676  0  1.671186  0  0  0.967782  0  2.121716  0  0  1.024945  0  2.066299  0  0  0.767399  0.926349  0  2.160622  0
Cd  Cd1  1  0.83028595  0.98430654  0.76000478  1  0  1.154667  0  1.671209  0  0  0.967768  0  2.121731  0  0  1.024927  0  2.066319  0  0  0.767382  0.926335  0  2.16063  0
H  H2  1  0.97353172  0.49320748  0.08907377  1  0  0.087849  0  0.957202  0  0  0.099864  0  1.019119  0  0  0.102635  0  1.018005  0  0  0.099697  0.097728  0  1.02016  0
H  H3  1  0.02646764  0.50679192  0.91092616  1  0  0.08788  0  0.957163  0  0  0.099887  0  1.01909  0  0  0.102659  0  1.017973  0  0  0.099691  0.097752  0  1.020129  0
H  H4  1  0.75858911  0.68754218  0.10033909  1  0  0.097473  0  0.967735  0  0  0.107293  0  1.030073  0  0  0.110767  0  1.027427  0  0  0.099274  0.104513  0  1.032332  0
H  H5  1  0.24140733  0.31245621  0.89966047  1  0  0.097526  0  0.96772  0  0  0.107278  0  1.030124  0  0  0.110804  0  1.027416  0  0  0.099266  0.104497  0  1.03238  0
H  H6  1  0.43689723  0.65303349  0.14640699  1  0  0.093582  0  0.970154  0  0  0.102271  0  1.035753  0  0  0.105523  0  1.034045  0  0  0.096726  0.099207  0  1.038249  0
H  H7  1  0.56310218  0.34696692  0.85359463  1  0  0.093561  0  0.970177  0  0  0.102271  0  1.035767  0  0  0.105525  0  1.034052  0  0  0.096714  0.099207  0  1.03826  0
H  H8  1  0.32789529  0.42084619  0.17892975  1  0  0.091444  0  0.955485  0  0  0.101243  0  1.019038  0  0  0.104628  0  1.016735  0  0  0.098036  0.098615  0  1.021011  0
H  H9  1  0.67210403  0.57915121  0.82107092  1  0  0.091411  0  0.955567  0  0  0.101206  0  1.019121  0  0  0.104594  0  1.016815  0  0  0.09801  0.098579  0  1.02109  0
H  H10  1  0.11335173  0.69238118  0.21148917  1  0  0.086417  0  0.927894  0  0  0.098073  0  0.985935  0  0  0.099715  0  0.984838  0  0  0.122747  0.096744  0  0.986922  0
H  H11  1  0.88664777  0.30762322  0.78851099  1  0  0.086449  0  0.927826  0  0  0.098045  0  0.985948  0  0  0.099688  0  0.984849  0  0  0.122733  0.096715  0  0.986935  0
H  H12  1  0.11893820  0.48903245  0.32437260  1  0  0.109369  0  0.949007  0  0  0.119554  0  1.008214  0  0  0.122119  0  1.0081  0  0  0.110004  0.117154  0  1.009454  0
H  H13  1  0.88105839  0.51097195  0.67562641  1  0  0.109388  0  0.948927  0  0  0.11957  0  1.008136  0  0  0.122126  0  1.00805  0  0  0.110024  0.117172  0  1.009373  0
H  H14  1  0.18186813  0.52472323  0.53566379  1  0  0.088806  0  0.955012  0  0  0.102942  0  1.010307  0  0  0.105047  0  1.009638  0  0  0.107017  0.101273  0  1.010921  0
H  H15  1  0.81813125  0.47527816  0.46433459  1  0  0.088853  0  0.954955  0  0  0.102955  0  1.010292  0  0  0.105061  0  1.009622  0  0  0.107019  0.101287  0  1.010905  0
H  H16  1  0.22902634  0.75538947  0.62275303  1  0  0.120673  0  0.968149  0  0  0.126751  0  1.033673  0  0  0.130344  0  1.031627  0  0  0.109951  0.124126  0  1.035233  0
H  H17  1  0.77097307  0.24461193  0.37724700  1  0  0.120644  0  0.968178  0  0  0.126715  0  1.033698  0  0  0.13031  0  1.03165  0  0  0.109924  0.124083  0  1.035278  0
H  H18  1  0.25613444  0.94793430  0.68387485  1  0  0.116301  0  0.975676  0  0  0.124364  0  1.038795  0  0  0.127474  0  1.037911  0  0  0.110277  0.122183  0  1.039484  0
H  H19  1  0.74386494  0.05206510  0.31612591  1  0  0.116294  0  0.975753  0  0  0.124364  0  1.038854  0  0  0.127475  0  1.037969  0  0  0.110273  0.122183  0  1.03954  0
H  H20  1  0.33742725  0.18314593  0.75137285  1  0  0.106678  0  0.958563  0  0  0.117345  0  1.019035  0  0  0.119548  0  1.017328  0  0  0.112156  0.115701  0  1.020391  0
H  H21  1  0.66257360  0.81685448  0.24862812  1  0  0.106723  0  0.958533  0  0  0.117389  0  1.018996  0  0  0.119594  0  1.017287  0  0  0.112171  0.115733  0  1.020383  0
H  H22  1  0.37041772  0.35381498  0.61267346  1  0  0.093927  0  0.963835  0  0  0.104198  0  1.025314  0  0  0.106481  0  1.026051  0  0  0.103064  0.102532  0  1.025002  0
H  H23  1  0.62958605  0.64618644  0.38732871  1  0  0.093945  0  0.963816  0  0  0.104203  0  1.025308  0  0  0.106485  0  1.026046  0  0  0.103063  0.102531  0  1.025011  0
H  H24  1  0.30647265  0.27649474  0.40593748  1  0  0.087064  0  0.934918  0  0  0.095747  0  0.997692  0  0  0.098626  0  0.99479  0  0  0.117132  0.093434  0  1.000047  0
H  H25  1  0.69352965  0.72350568  0.59406448  1  0  0.087042  0  0.934914  0  0  0.095728  0  0.997701  0  0  0.098607  0  0.994798  0  0  0.117128  0.093416  0  1.000057  0
H  H26  1  0.42430196  0.95587350  0.10911423  1  0  0.418676  0  0.890302  0  0  0.382659  0  0.962525  0  0  0.395115  0  0.944529  0  0  0.283199  0.373464  0  0.975787  0
H  H27  1  0.57570029  0.04412590  0.89088603  1  0  0.4187  0  0.890276  0  0  0.382691  0  0.962486  0  0  0.395145  0  0.944492  0  0  0.283225  0.373492  0  0.975755  0
H  H28  1  0.77586510  0.98107290  0.11008563  1  0  0.431568  0  0.864148  0  0  0.40002  0  0.929569  0  0  0.410173  0  0.914831  0  0  0.296476  0.392834  0  0.940002  0
H  H29  1  0.22413569  0.01892650  0.88991365  1  0  0.431569  0  0.864126  0  0  0.400025  0  0.929553  0  0  0.410175  0  0.914819  0  0  0.296471  0.392835  0  0.939992  0
H  H30  1  0.90696350  0.88628919  0.04841780  1  0  0.430976  0  0.866284  0  0  0.399403  0  0.931455  0  0  0.410171  0  0.915453  0  0  0.293863  0.391731  0  0.942879  0
H  H31  1  0.09303874  0.11371020  0.95158165  1  0  0.431017  0  0.866219  0  0  0.399445  0  0.931387  0  0  0.410212  0  0.915388  0  0  0.293874  0.391773  0  0.942811  0
H  H32  1  0.24248239  0.85404578  0.05765552  1  0  0.417009  0  0.890582  0  0  0.383729  0  0.959021  0  0  0.394418  0  0.943618  0  0  0.28674  0.376002  0  0.970227  0
H  H33  1  0.75751844  0.14595462  0.94234463  1  0  0.417009  0  0.890581  0  0  0.383729  0  0.959023  0  0  0.394419  0  0.943617  0  0  0.286739  0.376002  0  0.970227  0
C  C34  1  0.91151763  0.23717906  0.13336901  1  0  0.670029  0  3.930767  0  0  0.612066  0  4.234976  0  0  0.64723  0  4.224758  0  0  0.209291  0.588357  0  4.240597  0
C  C35  1  0.08848315  0.76282033  0.86662945  1  0  0.67009  0  3.930701  0  0  0.612115  0  4.234924  0  0  0.647279  0  4.224707  0  0  0.20931  0.588404  0  4.240545  0
C  C36  1  0.77207129  0.34986981  0.12880498  1  0  -0.059043  0  3.742655  0  0  -0.044723  0  3.977624  0  0  -0.047449  0  3.996961  0  0  -0.013452  -0.042861  0  3.964473  0
C  C37  1  0.22792655  0.65012757  0.87119387  1  0  -0.059044  0  3.742725  0  0  -0.044707  0  3.977676  0  0  -0.047434  0  3.99701  0  0  -0.013415  -0.042852  0  3.964533  0
C  C38  1  0.83153348  0.47858802  0.10919484  1  0  -0.105092  0  3.76299  0  0  -0.127464  0  4.015911  0  0  -0.130543  0  4.037015  0  0  -0.095359  -0.125267  0  4.001526  0
C  C39  1  0.16846585  0.52141136  0.89080345  1  0  -0.105164  0  3.763095  0  0  -0.127536  0  4.016007  0  0  -0.130617  0  4.037124  0  0  -0.095377  -0.125338  0  4.001619  0
C  C40  1  0.71141159  0.58733945  0.11575072  1  0  -0.058756  0  3.757953  0  0  -0.07431  0  4.011094  0  0  -0.074508  0  4.031482  0  0  -0.091171  -0.073834  0  3.996946  0
C  C41  1  0.28858338  0.41265892  0.88424703  1  0  -0.058811  0  3.758014  0  0  -0.074307  0  4.01115  0  0  -0.074546  0  4.031519  0  0  -0.091173  -0.073829  0  3.997  0
C  C42  1  0.53069957  0.56775192  0.14244405  1  0  -0.080811  0  3.772104  0  0  -0.094306  0  4.024058  0  0  -0.097407  0  4.045751  0  0  -0.096013  -0.091954  0  4.009583  0
C  C43  1  0.46929973  0.43224547  0.85755580  1  0  -0.080797  0  3.772131  0  0  -0.094309  0  4.024044  0  0  -0.097412  0  4.045755  0  0  -0.096013  -0.091959  0  4.009569  0
C  C44  1  0.47008196  0.43924170  0.16060203  1  0  -0.073913  0  3.752472  0  0  -0.095213  0  3.999219  0  0  -0.094725  0  4.018901  0  0  -0.088211  -0.095259  0  3.98596  0
C  C45  1  0.52991592  0.56075668  0.83939687  1  0  -0.073855  0  3.752533  0  0  -0.09514  0  3.999277  0  0  -0.094654  0  4.018957  0  0  -0.088151  -0.095187  0  3.986017  0
C  C46  1  0.58840870  0.32907537  0.15285610  1  0  -0.080404  0  3.733159  0  0  -0.066062  0  3.966461  0  0  -0.072852  0  3.987806  0  0  -0.019869  -0.061833  0  3.952284  0
C  C47  1  0.41158774  0.67092401  0.84714186  1  0  -0.080392  0  3.73315  0  0  -0.066067  0  3.966463  0  0  -0.072859  0  3.987812  0  0  -0.019899  -0.061836  0  3.952293  0
C  C48  1  0.51217774  0.19092373  0.16541727  1  0  0.654872  0  3.908488  0  0  0.600413  0  4.208728  0  0  0.635106  0  4.200256  0  0  0.204902  0.576852  0  4.213598  0
C  C49  1  0.48782160  0.80907566  0.83458184  1  0  0.654893  0  3.908409  0  0  0.600448  0  4.20864  0  0  0.635133  0  4.200174  0  0  0.204929  0.576878  0  4.213522  0
C  C50  1  0.14122887  0.70117749  0.30297084  1  0  0.144742  0  3.712596  0  0  0.114194  0  3.966571  0  0  0.120239  0  3.987126  0  0  0.05694  0.110249  0  3.95272  0
C  C51  1  0.85877066  0.29882793  0.69703019  1  0  0.144719  0  3.712552  0  0  0.114189  0  3.966527  0  0  0.120237  0  3.987077  0  0  0.056913  0.110243  0  3.952678  0
C  C52  1  0.14497655  0.58887582  0.36608764  1  0  -0.128299  0  3.73249  0  0  -0.140639  0  3.982929  0  0  -0.14749  0  4.005361  0  0  -0.082538  -0.136479  0  3.968552  0
C  C53  1  0.85502140  0.41112557  0.63391140  1  0  -0.128316  0  3.732457  0  0  -0.140621  0  3.982861  0  0  -0.147477  0  4.005289  0  0  -0.082533  -0.136464  0  3.968489  0
C  C54  1  0.17885006  0.60918647  0.48271504  1  0  -0.012891  0  3.738899  0  0  -0.028587  0  3.982334  0  0  -0.02584  0  4.001215  0  0  -0.068816  -0.029917  0  3.969185  0
C  C55  1  0.82114936  0.39081493  0.51728499  1  0  -0.012919  0  3.73886  0  0  -0.028605  0  3.982293  0  0  -0.025856  0  4.001171  0  0  -0.068817  -0.029934  0  3.969141  0
C  C56  1  0.20677823  0.73890541  0.53201559  1  0  -0.125215  0  3.667587  0  0  -0.144063  0  3.914945  0  0  -0.149894  0  3.934461  0  0  -0.073395  -0.139997  0  3.901855  0
C  C57  1  0.79322408  0.26109600  0.46798559  1  0  -0.125212  0  3.667621  0  0  -0.144009  0  3.914987  0  0  -0.14984  0  3.934502  0  0  -0.073355  -0.139946  0  3.901893  0
C  C58  1  0.20377447  0.84645581  0.46282591  1  0  0.181147  0  3.754216  0  0  0.176512  0  3.994922  0  0  0.183156  0  4.015886  0  0  0.12366  0.171891  0  3.980809  0
C  C59  1  0.79622354  0.15354759  0.53717322  1  0  0.181259  0  3.754063  0  0  0.176501  0  3.994928  0  0  0.183146  0  4.015893  0  0  0.123655  0.171879  0  3.980817  0
C  C60  1  0.24254200  0.98713743  0.50921770  1  0  0.170123  0  3.768053  0  0  0.165302  0  4.011666  0  0  0.171961  0  4.03245  0  0  0.11642  0.160928  0  3.9976  0
C  C61  1  0.75745739  0.01286198  0.49078470  1  0  0.170156  0  3.768168  0  0  0.165374  0  4.011777  0  0  0.172032  0  4.032564  0  0  0.116457  0.161004  0  3.997707  0
C  C62  1  0.27002087  0.02228289  0.62423315  1  0  -0.126085  0  3.650829  0  0  -0.147782  0  3.904744  0  0  -0.154533  0  3.924631  0  0  -0.077152  -0.143482  0  3.891424  0
C  C63  1  0.72998292  0.97771953  0.37576824  1  0  -0.126113  0  3.650883  0  0  -0.147825  0  3.90479  0  0  -0.154576  0  3.924678  0  0  -0.077168  -0.143528  0  3.891465  0
C  C64  1  0.31511050  0.15513387  0.66215046  1  0  0.018362  0  3.681662  0  0  -0.001213  0  3.932459  0  0  0.002159  0  3.951604  0  0  -0.061667  -0.003002  0  3.919195  0
C  C65  1  0.68489033  0.84486554  0.33785129  1  0  0.018308  0  3.681671  0  0  -0.001261  0  3.932464  0  0  0.002113  0  3.951606  0  0  -0.061686  -0.003048  0  3.91919  0
C  C66  1  0.33127304  0.24980299  0.58488894  1  0  -0.126946  0  3.735765  0  0  -0.141434  0  3.99061  0  0  -0.148922  0  4.013991  0  0  -0.086047  -0.136243  0  3.974299  0
C  C67  1  0.66872928  0.75019842  0.41511224  1  0  -0.126989  0  3.735757  0  0  -0.141456  0  3.990593  0  0  -0.148944  0  4.013974  0  0  -0.086028  -0.136261  0  3.974277  0
C  C68  1  0.29740445  0.20805420  0.47131254  1  0  0.138116  0  3.709431  0  0  0.107305  0  3.964288  0  0  0.114692  0  3.981961  0  0  0.047844  0.10276  0  3.951796  0
C  C69  1  0.70259784  0.79194621  0.52868860  1  0  0.138195  0  3.709385  0  0  0.107367  0  3.964243  0  0  0.114756  0  3.981913  0  0  0.047827  0.102817  0  3.951759  0
N  N70  1  0.17053926  0.82584800  0.35010673  1  0  -0.368224  0  3.256661  0  0  -0.297929  0  3.514337  0  0  -0.317857  0  3.535139  0  0  -0.320978  -0.284072  0  3.500034  0
N  N71  1  0.82946018  0.17415342  0.64989494  1  0  -0.368295  0  3.256512  0  0  -0.297945  0  3.514195  0  0  -0.317871  0  3.534989  0  0  -0.32096  -0.284088  0  3.499895  0
N  N72  1  0.25415795  0.08017748  0.43499193  1  0  -0.3603  0  3.240361  0  0  -0.292674  0  3.502232  0  0  -0.311756  0  3.52052  0  0  -0.323769  -0.279401  0  3.489576  0
N  N73  1  0.74584153  0.91982593  0.56500901  1  0  -0.360358  0  3.240514  0  0  -0.292722  0  3.50239  0  0  -0.311805  0  3.52068  0  0  -0.323787  -0.279451  0  3.489733  0
O  O74  1  0.96965395  0.19386430  0.23077514  1  0  -0.64734  0  2.025401  0  0  -0.58229  0  2.283847  0  0  -0.612057  0  2.273638  0  0  -0.328243  -0.560946  0  2.290192  0
O  O75  1  0.03034833  0.80613709  0.76922358  1  0  -0.647406  0  2.025361  0  0  -0.582347  0  2.283821  0  0  -0.612106  0  2.273594  0  0  -0.328267  -0.561002  0  2.290164  0
O  O76  1  0.33234329  0.88740041  0.12797399  1  0  -0.840899  0  1.901825  0  0  -0.773474  0  2.108046  0  0  -0.79757  0  2.072982  0  0  -0.588336  -0.756304  0  2.133974  0
O  O77  1  0.66765748  0.11259798  0.87202606  1  0  -0.840924  0  1.901843  0  0  -0.773496  0  2.108049  0  0  -0.797593  0  2.072987  0  0  -0.58836  -0.756326  0  2.133984  0
O  O78  1  0.87739668  0.91316286  0.12226479  1  0  -0.835858  0  1.848725  0  0  -0.774556  0  2.03837  0  0  -0.796133  0  2.006094  0  0  -0.584061  -0.759277  0  2.061206  0
O  O79  1  0.12260558  0.08683754  0.87773470  1  0  -0.835896  0  1.848654  0  0  -0.774581  0  2.038294  0  0  -0.796165  0  2.006032  0  0  -0.584058  -0.759302  0  2.061128  0
O  O80  1  0.96368420  0.19615254  0.04406709  1  0  -0.668125  0  2.003018  0  0  -0.604067  0  2.22871  0  0  -0.630012  0  2.216359  0  0  -0.324213  -0.585466  0  2.236652  0
O  O81  1  0.03631514  0.80384685  0.95593203  1  0  -0.668118  0  2.002957  0  0  -0.60406  0  2.228657  0  0  -0.630006  0  2.216306  0  0  -0.324213  -0.585458  0  2.2366  0
O  O82  1  0.39051490  0.18445949  0.22854472  1  0  -0.654595  0  2.045883  0  0  -0.592539  0  2.309276  0  0  -0.620723  0  2.298204  0  0  -0.332154  -0.572344  0  2.316307  0
O  O83  1  0.60948440  0.81553790  0.77145513  1  0  -0.654578  0  2.045876  0  0  -0.592527  0  2.309267  0  0  -0.620712  0  2.2982  0  0  -0.332146  -0.572328  0  2.316301  0
O  O84  1  0.56959090  0.09100151  0.11161730  1  0  -0.657082  0  2.007954  0  0  -0.5857  0  2.221429  0  0  -0.612002  0  2.211658  0  0  -0.31737  -0.566666  0  2.227629  0
O  O85  1  0.43041278  0.90899690  0.88838390  1  0  -0.657112  0  2.007861  0  0  -0.585748  0  2.221349  0  0  -0.612029  0  2.211563  0  0  -0.317397  -0.566706  0  2.227552  0
