# generated using pymatgen
data_NdH12C18(NO2)3
_symmetry_space_group_name_H-M   'P 1'
_cell_length_a   7.71210740
_cell_length_b   10.92960373
_cell_length_c   11.31877712
_cell_angle_alpha   117.95304047
_cell_angle_beta   89.99994560
_cell_angle_gamma   89.99997510
_symmetry_Int_Tables_number   1
_chemical_formula_structural   NdH12C18(NO2)3
_chemical_formula_sum   'Nd2 H24 C36 N6 O12'
_cell_volume   842.75433203
_cell_formula_units_Z   2
loop_
 _symmetry_equiv_pos_site_id
 _symmetry_equiv_pos_as_xyz
  1  'x, y, z'
loop_
 _atom_site_type_symbol
 _atom_site_label
 _atom_site_symmetry_multiplicity
 _atom_site_fract_x
 _atom_site_fract_y
 _atom_site_fract_z
 _atom_site_occupancy
 _atom_site_hle17_bader_spin_density
 _atom_site_hle17_ddec_charge
 _atom_site_hle17_ddec_spin_density
 _atom_site_hle17_ddec_sum_bond_order
 _atom_site_hle17_magmom
 _atom_site_hse06_10hf_bader_spin_density
 _atom_site_hse06_10hf_ddec_charge
 _atom_site_hse06_10hf_ddec_spin_density
 _atom_site_hse06_10hf_ddec_sum_bond_order
 _atom_site_hse06_10hf_magmom
 _atom_site_hse06_bader_spin_density
 _atom_site_hse06_ddec_charge
 _atom_site_hse06_ddec_spin_density
 _atom_site_hse06_ddec_sum_bond_order
 _atom_site_hse06_magmom
 _atom_site_pbe_bader_spin_density
 _atom_site_pbe_cm5_charge
 _atom_site_pbe_ddec_charge
 _atom_site_pbe_ddec_spin_density
 _atom_site_pbe_ddec_sum_bond_order
 _atom_site_pbe_magmom
Nd  Nd0  1  0.79634068  0.98457638  0.53103183  1  0  2.208777  0  1.651567  0  0  1.987402  0  2.151679  0  0  2.039751  0  2.102783  0  0  1.472241  1.947142  0  2.189843  0
Nd  Nd1  1  0.29634149  0.01542380  0.46896873  1  0  2.208761  0  1.651577  0  0  1.987382  0  2.151691  0  0  2.039712  0  2.102824  0  0  1.472241  1.947115  0  2.189868  0
H  H2  1  0.04747303  0.44199203  0.35038691  1  0  0.108002  0  0.955003  0  0  0.116098  0  1.016421  0  0  0.119404  0  1.01586  0  0  0.10634  0.113666  0  1.017033  0
H  H3  1  0.54746841  0.55800835  0.64961213  1  0  0.10799  0  0.954988  0  0  0.11609  0  1.0164  0  0  0.119395  0  1.015839  0  0  0.106304  0.113658  0  1.017013  0
H  H4  1  0.76452352  0.31440841  0.31993126  1  0  0.106815  0  0.972247  0  0  0.115603  0  1.033725  0  0  0.118488  0  1.032199  0  0  0.107517  0.113552  0  1.034798  0
H  H5  1  0.26451845  0.68559178  0.68006844  1  0  0.106799  0  0.972227  0  0  0.115585  0  1.033706  0  0  0.118471  0  1.03218  0  0  0.107522  0.113533  0  1.034782  0
H  H6  1  0.48560359  0.45136761  0.35447292  1  0  0.106669  0  0.946197  0  0  0.11605  0  1.004629  0  0  0.119007  0  1.004558  0  0  0.107354  0.113893  0  1.004892  0
H  H7  1  0.98559768  0.54863344  0.64552703  1  0  0.106605  0  0.946239  0  0  0.116021  0  1.004638  0  0  0.118978  0  1.004563  0  0  0.107326  0.113864  0  1.004901  0
H  H8  1  0.50317713  0.70061822  0.42465357  1  0  0.09067  0  0.982978  0  0  0.093527  0  1.054986  0  0  0.097421  0  1.051277  0  0  0.121385  0.09041  0  1.058099  0
H  H9  1  0.00317503  0.29938219  0.57534462  1  0  0.090648  0  0.982982  0  0  0.093504  0  1.054999  0  0  0.097404  0  1.051284  0  0  0.121374  0.090388  0  1.058112  0
H  H10  1  0.49897167  0.84549506  0.90162547  1  0  0.108904  0  0.951875  0  0  0.116353  0  1.014879  0  0  0.11971  0  1.014334  0  0  0.107916  0.113872  0  1.015476  0
H  H11  1  0.99897067  0.15450288  0.09837395  1  0  0.108905  0  0.951891  0  0  0.116367  0  1.014884  0  0  0.119717  0  1.014346  0  0  0.107913  0.113886  0  1.015479  0
H  H12  1  0.77215965  0.80839091  0.00431185  1  0  0.107827  0  0.969616  0  0  0.115978  0  1.03204  0  0  0.119187  0  1.030045  0  0  0.107629  0.113727  0  1.033414  0
H  H13  1  0.27215830  0.19161032  0.99569008  1  0  0.107866  0  0.969592  0  0  0.115969  0  1.032068  0  0  0.119178  0  1.030074  0  0  0.10762  0.113718  0  1.033442  0
H  H14  1  0.05989324  0.83435029  0.91145576  1  0  0.101611  0  0.949183  0  0  0.111413  0  1.008544  0  0  0.113948  0  1.009191  0  0  0.107462  0.109542  0  1.008291  0
H  H15  1  0.55989354  0.16565214  0.08854508  1  0  0.101609  0  0.949135  0  0  0.111423  0  1.00849  0  0  0.113959  0  1.009136  0  0  0.107449  0.109551  0  1.008239  0
H  H16  1  0.06255281  0.89753412  0.72698438  1  0  0.101624  0  0.975071  0  0  0.104869  0  1.04511  0  0  0.108803  0  1.041335  0  0  0.124107  0.101857  0  1.048071  0
H  H17  1  0.56255288  0.10246416  0.27301459  1  0  0.101611  0  0.975072  0  0  0.104859  0  1.045112  0  0  0.108795  0  1.041333  0  0  0.124108  0.101849  0  1.048069  0
H  H18  1  0.04532470  0.39722114  0.02815141  1  0  0.111801  0  0.949486  0  0  0.121206  0  1.008776  0  0  0.124674  0  1.007715  0  0  0.110445  0.118675  0  1.009756  0
H  H19  1  0.54532997  0.60277924  0.97185117  1  0  0.111791  0  0.949521  0  0  0.121164  0  1.008846  0  0  0.124628  0  1.00779  0  0  0.110449  0.118633  0  1.009825  0
H  H20  1  0.76041966  0.49729833  0.14289585  1  0  0.09764  0  0.970132  0  0  0.106878  0  1.031241  0  0  0.108587  0  1.03211  0  0  0.105846  0.105541  0  1.030811  0
H  H21  1  0.26042611  0.50270083  0.85710339  1  0  0.097555  0  0.970166  0  0  0.106837  0  1.031239  0  0  0.108546  0  1.032107  0  0  0.105836  0.105498  0  1.030808  0
H  H22  1  0.48415807  0.38794168  0.01801069  1  0  0.109355  0  0.942891  0  0  0.121103  0  0.997684  0  0  0.124055  0  0.997174  0  0  0.111637  0.118952  0  0.998243  0
H  H23  1  0.98416202  0.61205730  0.98198655  1  0  0.109305  0  0.942881  0  0  0.121062  0  0.997675  0  0  0.124014  0  0.997165  0  0  0.111605  0.118911  0  0.998236  0
H  H24  1  0.50322759  0.19809909  0.78714810  1  0  0.088875  0  0.984879  0  0  0.090467  0  1.058852  0  0  0.094552  0  1.054684  0  0  0.122298  0.087369  0  1.062123  0
H  H25  1  0.00322960  0.80190027  0.21284874  1  0  0.08884  0  0.98485  0  0  0.090413  0  1.058842  0  0  0.094497  0  1.054674  0  0  0.122296  0.087315  0  1.062111  0
C  C26  1  0.92167626  0.63570147  0.40499849  1  0  0.093817  0  3.752098  0  0  0.100707  0  3.99092  0  0  0.101141  0  4.010498  0  0  0.111834  0.100272  0  3.977902  0
C  C27  1  0.42167280  0.36429860  0.59500018  1  0  0.093818  0  3.752005  0  0  0.100654  0  3.990896  0  0  0.101085  0  4.010476  0  0  0.111797  0.100218  0  3.977888  0
C  C28  1  0.92292891  0.49424115  0.36632565  1  0  -0.113865  0  3.711307  0  0  -0.132443  0  3.955684  0  0  -0.137339  0  3.976438  0  0  -0.076048  -0.129237  0  3.941709  0
C  C29  1  0.42292401  0.50575891  0.63367390  1  0  -0.113956  0  3.711078  0  0  -0.132519  0  3.955448  0  0  -0.137416  0  3.976209  0  0  -0.076073  -0.129312  0  3.941479  0
C  C30  1  0.76579809  0.42475472  0.34925394  1  0  -0.011131  0  3.7049  0  0  -0.030596  0  3.956384  0  0  -0.028343  0  3.974528  0  0  -0.066309  -0.031619  0  3.943628  0
C  C31  1  0.26579312  0.57524651  0.65074534  1  0  -0.011047  0  3.704501  0  0  -0.0305  0  3.955998  0  0  -0.028248  0  3.974135  0  0  -0.066279  -0.031523  0  3.943244  0
C  C32  1  0.61272576  0.49964607  0.36879608  1  0  -0.104817  0  3.702816  0  0  -0.116075  0  3.953001  0  0  -0.121503  0  3.973218  0  0  -0.077468  -0.112491  0  3.939359  0
C  C33  1  0.11272216  0.50035529  0.63120424  1  0  -0.104774  0  3.702693  0  0  -0.116072  0  3.952889  0  0  -0.121497  0  3.973108  0  0  -0.07744  -0.112486  0  3.93925  0
C  C34  1  0.62209018  0.64107932  0.40813787  1  0  0.135292  0  3.681003  0  0  0.106447  0  3.935533  0  0  0.111883  0  3.952116  0  0  0.050157  0.102939  0  3.924608  0
C  C35  1  0.12208802  0.35892202  0.59186245  1  0  0.135351  0  3.680951  0  0  0.106491  0  3.935502  0  0  0.111923  0  3.952082  0  0  0.050192  0.102984  0  3.924578  0
C  C36  1  0.08935379  0.71335360  0.42278215  1  0  0.640813  0  3.922551  0  0  0.589398  0  4.225637  0  0  0.622508  0  4.216177  0  0  0.218991  0.566867  0  4.23118  0
C  C37  1  0.58935073  0.28664777  0.57721819  1  0  0.640882  0  3.922433  0  0  0.589467  0  4.225557  0  0  0.622577  0  4.216095  0  0  0.219003  0.566935  0  4.231104  0
C  C38  1  0.63945606  0.89005622  0.76297496  1  0  0.095989  0  3.745792  0  0  0.103911  0  3.982223  0  0  0.104257  0  4.002491  0  0  0.113448  0.103467  0  3.968572  0
C  C39  1  0.13945714  0.10994304  0.23702528  1  0  0.095899  0  3.745906  0  0  0.103864  0  3.982297  0  0  0.104211  0  4.002562  0  0  0.113416  0.10342  0  3.968643  0
C  C40  1  0.62717530  0.85477583  0.86632967  1  0  -0.11261  0  3.706724  0  0  -0.131945  0  3.950204  0  0  -0.136948  0  3.971059  0  0  -0.075317  -0.128667  0  3.936315  0
C  C41  1  0.12717522  0.14522448  0.13367105  1  0  -0.112624  0  3.706804  0  0  -0.13199  0  3.950277  0  0  -0.136989  0  3.971136  0  0  -0.075331  -0.128712  0  3.936387  0
C  C42  1  0.77870713  0.83417690  0.92215401  1  0  -0.006983  0  3.691861  0  0  -0.024445  0  3.938137  0  0  -0.021775  0  3.955286  0  0  -0.064111  -0.026069  0  3.926409  0
C  C43  1  0.27870582  0.16582433  0.07784791  1  0  -0.006996  0  3.691847  0  0  -0.024426  0  3.938132  0  0  -0.021755  0  3.955278  0  0  -0.064099  -0.02605  0  3.926403  0
C  C44  1  0.93767798  0.84881575  0.87138672  1  0  -0.101369  0  3.704766  0  0  -0.113212  0  3.955478  0  0  -0.118597  0  3.975919  0  0  -0.07648  -0.109709  0  3.941773  0
C  C45  1  0.43767790  0.15118535  0.12861504  1  0  -0.101413  0  3.704682  0  0  -0.113257  0  3.955386  0  0  -0.118643  0  3.975825  0  0  -0.07649  -0.109754  0  3.941679  0
C  C46  1  0.93997573  0.88393830  0.76765680  1  0  0.132294  0  3.671196  0  0  0.102843  0  3.927103  0  0  0.108368  0  3.943705  0  0  0.051335  0.099179  0  3.915846  0
C  C47  1  0.43997552  0.11606175  0.23234361  1  0  0.132356  0  3.671138  0  0  0.102892  0  3.927066  0  0  0.108416  0  3.943666  0  0  0.051359  0.099228  0  3.915809  0
C  C48  1  0.47741867  0.91581836  0.70234759  1  0  0.644793  0  3.899922  0  0  0.591488  0  4.205111  0  0  0.624903  0  4.195062  0  0  0.225442  0.568917  0  4.210987  0
C  C49  1  0.97741743  0.08418063  0.29765320  1  0  0.644824  0  3.899849  0  0  0.591501  0  4.20506  0  0  0.624914  0  4.195011  0  0  0.225431  0.568928  0  4.210935  0
C  C50  1  0.92078655  0.25028270  0.84775129  1  0  0.098368  0  3.7497  0  0  0.107244  0  3.984635  0  0  0.107607  0  4.004452  0  0  0.114913  0.10689  0  3.971278  0
C  C51  1  0.42078868  0.74971427  0.15224862  1  0  0.098381  0  3.749723  0  0  0.107266  0  3.984644  0  0  0.107629  0  4.004459  0  0  0.114925  0.106912  0  3.971286  0
C  C52  1  0.92147884  0.35674781  0.97930314  1  0  -0.11758  0  3.713558  0  0  -0.136579  0  3.955351  0  0  -0.141714  0  3.97603  0  0  -0.07634  -0.133181  0  3.941398  0
C  C53  1  0.42148381  0.64325226  0.02069729  1  0  -0.117529  0  3.713512  0  0  -0.136501  0  3.955315  0  0  -0.141636  0  3.975996  0  0  -0.076352  -0.133104  0  3.941364  0
C  C54  1  0.76383646  0.41020462  0.04266995  1  0  -0.008577  0  3.72372  0  0  -0.026993  0  3.973631  0  0  -0.024232  0  3.9922  0  0  -0.066271  -0.0285  0  3.960756  0
C  C55  1  0.26384142  0.58979661  0.95732757  1  0  -0.008475  0  3.723673  0  0  -0.026933  0  3.97357  0  0  -0.024172  0  3.992139  0  0  -0.066225  -0.028434  0  3.960694  0
C  C56  1  0.61117845  0.35128591  0.97349496  1  0  -0.10699  0  3.701839  0  0  -0.118324  0  3.950157  0  0  -0.123676  0  3.969905  0  0  -0.076699  -0.114674  0  3.936642  0
C  C57  1  0.11118211  0.64871234  0.02650130  1  0  -0.107039  0  3.701874  0  0  -0.118389  0  3.950207  0  0  -0.123741  0  3.969956  0  0  -0.076751  -0.114741  0  3.936693  0
C  C58  1  0.62157132  0.24386437  0.84277452  1  0  0.140049  0  3.681055  0  0  0.111479  0  3.934661  0  0  0.116802  0  3.951705  0  0  0.052476  0.10809  0  3.92303  0
C  C59  1  0.12157474  0.75613387  0.15722262  1  0  0.140143  0  3.680995  0  0  0.111604  0  3.934578  0  0  0.11693  0  3.951621  0  0  0.052535  0.108215  0  3.922946  0
C  C60  1  0.08850827  0.19623904  0.77315121  1  0  0.646935  0  3.915274  0  0  0.592608  0  4.220774  0  0  0.626296  0  4.210532  0  0  0.224008  0.569862  0  4.22682  0
C  C61  1  0.58850930  0.80376026  0.22685085  1  0  0.646843  0  3.915359  0  0  0.592521  0  4.220849  0  0  0.626212  0  4.210603  0  0  0.223981  0.569776  0  4.226891  0
N  N62  1  0.77330952  0.70890085  0.42726798  1  0  -0.413709  0  3.26284  0  0  -0.357656  0  3.51942  0  0  -0.371701  0  3.539888  0  0  -0.36919  -0.348013  0  3.50581  0
N  N63  1  0.27330612  0.29110038  0.57273130  1  0  -0.413674  0  3.262725  0  0  -0.357587  0  3.519298  0  0  -0.371629  0  3.539766  0  0  -0.369155  -0.347944  0  3.505693  0
N  N64  1  0.79387173  0.90444068  0.71472998  1  0  -0.422692  0  3.303739  0  0  -0.366501  0  3.559114  0  0  -0.381442  0  3.581379  0  0  -0.388103  -0.35581  0  3.543832  0
N  N65  1  0.29387145  0.09555846  0.28527010  1  0  -0.42267  0  3.303795  0  0  -0.366491  0  3.559168  0  0  -0.381428  0  3.581432  0  0  -0.388102  -0.355801  0  3.543885  0
N  N66  1  0.77305916  0.19462988  0.77995594  1  0  -0.404326  0  3.263296  0  0  -0.348322  0  3.514678  0  0  -0.362365  0  3.53555  0  0  -0.365437  -0.338449  0  3.500407  0
N  N67  1  0.27306116  0.80536824  0.22004282  1  0  -0.404343  0  3.263308  0  0  -0.348356  0  3.514687  0  0  -0.362396  0  3.535557  0  0  -0.365433  -0.338482  0  3.500413  0
O  O68  1  0.07158686  0.84594158  0.46460308  1  0  -0.821746  0  2.172835  0  0  -0.750722  0  2.444556  0  0  -0.77719  0  2.432315  0  0  -0.447495  -0.731333  0  2.452185  0
O  O69  1  0.57158523  0.15405981  0.53539816  1  0  -0.821785  0  2.172789  0  0  -0.750766  0  2.444514  0  0  -0.777231  0  2.432269  0  0  -0.447491  -0.731376  0  2.452144  0
O  O70  1  0.22951785  0.65037992  0.39687324  1  0  -0.567409  0  1.913613  0  0  -0.529014  0  2.136362  0  0  -0.550027  0  2.129009  0  0  -0.294567  -0.514125  0  2.140964  0
O  O71  1  0.72951602  0.34962135  0.60312874  1  0  -0.567427  0  1.913511  0  0  -0.529034  0  2.136322  0  0  -0.550049  0  2.128972  0  0  -0.294562  -0.514144  0  2.140924  0
O  O72  1  0.50315229  0.95144392  0.60864980  1  0  -0.812355  0  2.125663  0  0  -0.741996  0  2.396768  0  0  -0.76769  0  2.383245  0  0  -0.434707  -0.723186  0  2.405171  0
O  O73  1  0.00315319  0.04855546  0.39135058  1  0  -0.812348  0  2.125668  0  0  -0.741989  0  2.396754  0  0  -0.767692  0  2.383258  0  0  -0.434676  -0.723177  0  2.405157  0
O  O74  1  0.33361748  0.90273910  0.74427496  1  0  -0.560898  0  1.941561  0  0  -0.518992  0  2.168  0  0  -0.539707  0  2.159261  0  0  -0.286497  -0.504537  0  2.173583  0
O  O75  1  0.83361629  0.09725897  0.25572462  1  0  -0.560909  0  1.941532  0  0  -0.51898  0  2.167977  0  0  -0.539694  0  2.159237  0  0  -0.286485  -0.504525  0  2.173558  0
O  O76  1  0.22907809  0.24402235  0.82993735  1  0  -0.578013  0  1.946664  0  0  -0.53801  0  2.18157  0  0  -0.559638  0  2.173413  0  0  -0.289166  -0.523017  0  2.186875  0
O  O77  1  0.72908183  0.75597684  0.17006634  1  0  -0.577975  0  1.946633  0  0  -0.537992  0  2.181558  0  0  -0.55962  0  2.173397  0  0  -0.289169  -0.522999  0  2.186864  0
O  O78  1  0.07120183  0.10203875  0.64949516  1  0  -0.811841  0  2.185117  0  0  -0.741219  0  2.458443  0  0  -0.767428  0  2.446031  0  0  -0.44457  -0.722036  0  2.466148  0
O  O79  1  0.57120133  0.89795954  0.35050557  1  0  -0.811805  0  2.185154  0  0  -0.741181  0  2.458472  0  0  -0.767391  0  2.446057  0  0  -0.444577  -0.722  0  2.466176  0
