# generated using pymatgen
data_Cu2H5C6N5
_symmetry_space_group_name_H-M   'P 1'
_cell_length_a   7.72817736
_cell_length_b   7.72824861
_cell_length_c   14.62465718
_cell_angle_alpha   78.01461757
_cell_angle_beta   78.01481738
_cell_angle_gamma   70.41037968
_symmetry_Int_Tables_number   1
_chemical_formula_structural   Cu2H5C6N5
_chemical_formula_sum   'Cu8 H20 C24 N20'
_cell_volume   795.88491917
_cell_formula_units_Z   4
loop_
 _symmetry_equiv_pos_site_id
 _symmetry_equiv_pos_as_xyz
  1  'x, y, z'
loop_
 _atom_site_type_symbol
 _atom_site_label
 _atom_site_symmetry_multiplicity
 _atom_site_fract_x
 _atom_site_fract_y
 _atom_site_fract_z
 _atom_site_occupancy
 _atom_site_hle17_bader_spin_density
 _atom_site_hle17_ddec_charge
 _atom_site_hle17_ddec_spin_density
 _atom_site_hle17_ddec_sum_bond_order
 _atom_site_hle17_magmom
 _atom_site_hse06_10hf_bader_spin_density
 _atom_site_hse06_10hf_ddec_charge
 _atom_site_hse06_10hf_ddec_spin_density
 _atom_site_hse06_10hf_ddec_sum_bond_order
 _atom_site_hse06_10hf_magmom
 _atom_site_hse06_bader_spin_density
 _atom_site_hse06_ddec_charge
 _atom_site_hse06_ddec_spin_density
 _atom_site_hse06_ddec_sum_bond_order
 _atom_site_hse06_magmom
 _atom_site_pbe_bader_spin_density
 _atom_site_pbe_cm5_charge
 _atom_site_pbe_ddec_charge
 _atom_site_pbe_ddec_spin_density
 _atom_site_pbe_ddec_sum_bond_order
 _atom_site_pbe_magmom
Cu  Cu0  1  0.96148408  0.20094886  0.67729357  1  0  0.396145  0  2.330189  0  0  0.322688  0  2.812137  0  0  0.314074  0  2.770169  0  0  0.500154  0.331793  0  2.837813  0
Cu  Cu1  1  0.79904491  0.03852066  0.82270526  1  0  0.396183  0  2.32997  0  0  0.322728  0  2.811892  0  0  0.314085  0  2.769904  0  0  0.500151  0.331829  0  2.837566  0
Cu  Cu2  1  0.03851858  0.79904653  0.32270299  1  0  0.396165  0  2.33001  0  0  0.322712  0  2.811947  0  0  0.314065  0  2.769947  0  0  0.500136  0.331813  0  2.837628  0
Cu  Cu3  1  0.20095120  0.96148304  0.17729384  1  0  0.396141  0  2.329918  0  0  0.32269  0  2.811862  0  0  0.314082  0  2.769866  0  0  0.500133  0.331795  0  2.837533  0
Cu  Cu4  1  0.47384405  0.87350646  0.46669606  1  0  0.393689  0  2.366955  0  0  0.321189  0  2.854562  0  0  0.310099  0  2.81407  0  0  0.504559  0.332143  0  2.879159  0
Cu  Cu5  1  0.12649829  0.52615815  0.03330454  1  0  0.393728  0  2.366926  0  0  0.321193  0  2.854516  0  0  0.310102  0  2.814063  0  0  0.504584  0.332152  0  2.879126  0
Cu  Cu6  1  0.52615955  0.12649869  0.53330273  1  0  0.393737  0  2.366964  0  0  0.321214  0  2.854573  0  0  0.310136  0  2.814064  0  0  0.504577  0.332168  0  2.879171  0
Cu  Cu7  1  0.87350218  0.47384001  0.96669400  1  0  0.393765  0  2.367016  0  0  0.321233  0  2.85461  0  0  0.310143  0  2.814138  0  0  0.504603  0.332199  0  2.879205  0
H  H8  1  0.05985110  0.15762067  0.47333269  1  0  0.085372  0  0.941017  0  0  0.097754  0  1.000498  0  0  0.098777  0  0.998946  0  0  0.119704  0.096821  0  1.001779  0
H  H9  1  0.84237208  0.94014327  0.02666780  1  0  0.085302  0  0.941101  0  0  0.097734  0  1.000528  0  0  0.098759  0  0.998973  0  0  0.119692  0.096794  0  1.001812  0
H  H10  1  0.94014410  0.84237746  0.52666712  1  0  0.085367  0  0.940994  0  0  0.097751  0  1.000464  0  0  0.098776  0  0.998909  0  0  0.119734  0.096816  0  1.00175  0
H  H11  1  0.15762048  0.05985484  0.97333231  1  0  0.085396  0  0.940995  0  0  0.097784  0  1.000449  0  0  0.098807  0  0.998901  0  0  0.11972  0.096849  0  1.001732  0
H  H12  1  0.55189934  0.70353178  0.63242740  1  0  0.332942  0  0.900478  0  0  0.315237  0  0.965492  0  0  0.322559  0  0.959176  0  0  0.300224  0.309999  0  0.969978  0
H  H13  1  0.29646469  0.44810215  0.86757497  1  0  0.332993  0  0.900407  0  0  0.31527  0  0.965438  0  0  0.322594  0  0.95912  0  0  0.300214  0.310031  0  0.969924  0
H  H14  1  0.44809984  0.29647055  0.36757219  1  0  0.332959  0  0.900479  0  0  0.315251  0  0.965494  0  0  0.322573  0  0.959176  0  0  0.300242  0.310012  0  0.969979  0
H  H15  1  0.70353361  0.55189879  0.13242692  1  0  0.332936  0  0.900469  0  0  0.315228  0  0.965486  0  0  0.32255  0  0.959169  0  0  0.30021  0.309987  0  0.969976  0
H  H16  1  0.70582918  0.50822706  0.69277247  1  0  0.322405  0  0.920593  0  0  0.304783  0  0.988668  0  0  0.311692  0  0.983142  0  0  0.295059  0.299804  0  0.992634  0
H  H17  1  0.49176872  0.29416798  0.80723164  1  0  0.322428  0  0.92068  0  0  0.304793  0  0.988792  0  0  0.311699  0  0.983261  0  0  0.295024  0.299815  0  0.992758  0
H  H18  1  0.29416602  0.49177106  0.30722803  1  0  0.322381  0  0.920615  0  0  0.304748  0  0.988698  0  0  0.311667  0  0.983163  0  0  0.29504  0.299768  0  0.992664  0
H  H19  1  0.50822913  0.70583017  0.19277197  1  0  0.322401  0  0.920602  0  0  0.304772  0  0.988688  0  0  0.311684  0  0.983157  0  0  0.29505  0.299793  0  0.992655  0
H  H20  1  0.69142501  0.63672421  0.32634308  1  0  0.079217  0  0.931531  0  0  0.093174  0  0.988365  0  0  0.094775  0  0.985844  0  0  0.117672  0.091788  0  0.990471  0
H  H21  1  0.36327746  0.30857514  0.17366352  1  0  0.079291  0  0.931356  0  0  0.093186  0  0.98828  0  0  0.09484  0  0.985696  0  0  0.117668  0.091806  0  0.990368  0
H  H22  1  0.30858344  0.36328237  0.67365707  1  0  0.079304  0  0.931412  0  0  0.09319  0  0.988337  0  0  0.094853  0  0.985744  0  0  0.117693  0.091807  0  0.990434  0
H  H23  1  0.63671994  0.69142023  0.82634250  1  0  0.079279  0  0.93145  0  0  0.093172  0  0.988356  0  0  0.094823  0  0.985776  0  0  0.117677  0.091787  0  0.990458  0
H  H24  1  0.95039765  0.32976884  0.31878165  1  0  0.13399  0  0.936391  0  0  0.145952  0  0.988342  0  0  0.148456  0  0.990373  0  0  0.113852  0.144138  0  0.987168  0
H  H25  1  0.67023537  0.04959815  0.18121844  1  0  0.134071  0  0.936436  0  0  0.146031  0  0.988365  0  0  0.148535  0  0.990395  0  0  0.113854  0.144218  0  0.987193  0
H  H26  1  0.04960902  0.67023493  0.68121627  1  0  0.134027  0  0.936443  0  0  0.145959  0  0.988419  0  0  0.148463  0  0.990449  0  0  0.113842  0.144145  0  0.987244  0
H  H27  1  0.32976819  0.95039864  0.81878128  1  0  0.133963  0  0.93641  0  0  0.145921  0  0.988369  0  0  0.148425  0  0.9904  0  0  0.113831  0.144109  0  0.987195  0
C  C28  1  0.31080051  0.96459715  0.57231379  1  0  -0.162587  0  3.634076  0  0  -0.167425  0  4.028112  0  0  -0.143424  0  4.007761  0  0  -0.083253  -0.184937  0  4.042268  0
C  C29  1  0.03540616  0.68920629  0.92768311  1  0  -0.162604  0  3.634508  0  0  -0.167443  0  4.02855  0  0  -0.143454  0  4.008209  0  0  -0.083211  -0.184949  0  4.042694  0
C  C30  1  0.68921100  0.03540805  0.42768275  1  0  -0.162573  0  3.634605  0  0  -0.167419  0  4.028661  0  0  -0.14343  0  4.008317  0  0  -0.083171  -0.184916  0  4.042786  0
C  C31  1  0.96459035  0.31079184  0.07231383  1  0  -0.162624  0  3.634463  0  0  -0.167465  0  4.028513  0  0  -0.143473  0  4.008177  0  0  -0.083198  -0.184969  0  4.042655  0
C  C32  1  0.92553260  0.30757076  0.78540652  1  0  -0.158203  0  3.610911  0  0  -0.159975  0  3.996524  0  0  -0.138761  0  3.981058  0  0  -0.074722  -0.175421  0  4.007069  0
C  C33  1  0.69242095  0.07446664  0.71459363  1  0  -0.158141  0  3.611276  0  0  -0.159898  0  3.996856  0  0  -0.138682  0  3.981381  0  0  -0.074646  -0.175334  0  4.007394  0
C  C34  1  0.07446653  0.69242322  0.21459332  1  0  -0.15822  0  3.611297  0  0  -0.159995  0  3.996911  0  0  -0.138774  0  3.981425  0  0  -0.074708  -0.175435  0  4.00745  0
C  C35  1  0.30758086  0.92553154  0.28540887  1  0  -0.158185  0  3.611412  0  0  -0.159954  0  3.997006  0  0  -0.138747  0  3.981537  0  0  -0.074672  -0.175387  0  4.007544  0
C  C36  1  0.94628396  0.28763865  0.47020012  1  0  0.211411  0  3.660401  0  0  0.173602  0  3.912188  0  0  0.18847  0  3.926242  0  0  0.063947  0.163615  0  3.903215  0
C  C37  1  0.71236642  0.05371170  0.02979926  1  0  0.21157  0  3.660725  0  0  0.173718  0  3.912519  0  0  0.188594  0  3.926559  0  0  0.063986  0.163739  0  3.903534  0
C  C38  1  0.05371304  0.71236645  0.52979804  1  0  0.211502  0  3.660507  0  0  0.173714  0  3.91228  0  0  0.188592  0  3.926312  0  0  0.063923  0.163728  0  3.903304  0
C  C39  1  0.28763757  0.94628370  0.97020125  1  0  0.211418  0  3.660561  0  0  0.173642  0  3.912319  0  0  0.188515  0  3.92636  0  0  0.063958  0.163656  0  3.903344  0
C  C40  1  0.72761491  0.51227523  0.55165592  1  0  0.620594  0  3.789031  0  0  0.576674  0  4.056024  0  0  0.600976  0  4.065086  0  0  0.345271  0.56051  0  4.049833  0
C  C41  1  0.48772482  0.27238335  0.94834420  1  0  0.62065  0  3.789053  0  0  0.576694  0  4.056049  0  0  0.600997  0  4.065106  0  0  0.345293  0.56053  0  4.049857  0
C  C42  1  0.27238427  0.48772710  0.44834162  1  0  0.620594  0  3.789067  0  0  0.57667  0  4.056033  0  0  0.600975  0  4.065089  0  0  0.345291  0.560507  0  4.049839  0
C  C43  1  0.51227389  0.72761202  0.05165690  1  0  0.620632  0  3.789016  0  0  0.576656  0  4.056045  0  0  0.600955  0  4.065106  0  0  0.345285  0.560494  0  4.049849  0
C  C44  1  0.74520117  0.54943094  0.38928751  1  0  0.200578  0  3.696833  0  0  0.15978  0  3.96053  0  0  0.176308  0  3.970105  0  0  0.058837  0.148611  0  3.954769  0
C  C45  1  0.45057299  0.25479763  0.11071372  1  0  0.200509  0  3.696749  0  0  0.159695  0  3.960449  0  0  0.176185  0  3.970028  0  0  0.058821  0.148528  0  3.95469  0
C  C46  1  0.25480420  0.45057700  0.61071077  1  0  0.200611  0  3.696716  0  0  0.159797  0  3.960409  0  0  0.17628  0  3.96999  0  0  0.058863  0.148632  0  3.954646  0
C  C47  1  0.54942747  0.74519636  0.88928733  1  0  0.200612  0  3.696743  0  0  0.159806  0  3.960415  0  0  0.176295  0  3.969988  0  0  0.058876  0.14864  0  3.954654  0
C  C48  1  0.88754125  0.38313595  0.38506038  1  0  -0.208541  0  3.74009  0  0  -0.220858  0  3.997548  0  0  -0.236565  0  4.020148  0  0  -0.100451  -0.211022  0  3.98312  0
C  C49  1  0.61687456  0.11245279  0.11493836  1  0  -0.208669  0  3.740303  0  0  -0.220975  0  3.997779  0  0  -0.236687  0  4.020394  0  0  -0.100428  -0.211147  0  3.983365  0
C  C50  1  0.11245840  0.61687335  0.61493771  1  0  -0.208644  0  3.740174  0  0  -0.220944  0  3.997646  0  0  -0.236654  0  4.020263  0  0  -0.100426  -0.211109  0  3.983222  0
C  C51  1  0.38313250  0.88754125  0.88506059  1  0  -0.208535  0  3.740114  0  0  -0.220865  0  3.997565  0  0  -0.236575  0  4.020182  0  0  -0.100452  -0.211031  0  3.983138  0
N  N52  1  0.17885591  0.01968539  0.62827823  1  0  -0.357189  0  3.255336  0  0  -0.306361  0  3.589612  0  0  -0.318544  0  3.587373  0  0  -0.434695  -0.298591  0  3.590972  0
N  N53  1  0.98032323  0.82113555  0.87172367  1  0  -0.357201  0  3.255725  0  0  -0.306383  0  3.59  0  0  -0.31856  0  3.587743  0  0  -0.434751  -0.298609  0  3.591346  0
N  N54  1  0.82113539  0.98032525  0.37172268  1  0  -0.357198  0  3.255767  0  0  -0.306382  0  3.590042  0  0  -0.318556  0  3.587782  0  0  -0.43478  -0.298617  0  3.591422  0
N  N55  1  0.01967504  0.17886121  0.12827527  1  0  -0.357161  0  3.255649  0  0  -0.306342  0  3.589931  0  0  -0.318526  0  3.58769  0  0  -0.434753  -0.298572  0  3.591287  0
N  N56  1  0.86967907  0.34987220  0.55310617  1  0  -0.422035  0  3.227773  0  0  -0.349789  0  3.508508  0  0  -0.368718  0  3.515902  0  0  -0.356361  -0.338045  0  3.503783  0
N  N57  1  0.65012347  0.13031867  0.94689835  1  0  -0.422137  0  3.227943  0  0  -0.349898  0  3.508723  0  0  -0.368824  0  3.516102  0  0  -0.356441  -0.33817  0  3.504037  0
N  N58  1  0.13031877  0.65012595  0.44689471  1  0  -0.422107  0  3.227873  0  0  -0.349911  0  3.508665  0  0  -0.368832  0  3.516029  0  0  -0.356405  -0.338182  0  3.503983  0
N  N59  1  0.34987217  0.86967807  0.05310499  1  0  -0.42205  0  3.227869  0  0  -0.349846  0  3.508659  0  0  -0.368773  0  3.516049  0  0  -0.356375  -0.338106  0  3.503943  0
N  N60  1  0.64457035  0.57349609  0.63431357  1  0  -0.686997  0  3.106505  0  0  -0.648663  0  3.333949  0  0  -0.67082  0  3.33134  0  0  -0.571354  -0.633168  0  3.335501  0
N  N61  1  0.42649942  0.35542803  0.86568957  1  0  -0.687095  0  3.106625  0  0  -0.648752  0  3.334086  0  0  -0.670897  0  3.331479  0  0  -0.571304  -0.633259  0  3.335638  0
N  N62  1  0.35542574  0.42650344  0.36568599  1  0  -0.687013  0  3.106543  0  0  -0.648674  0  3.334002  0  0  -0.670838  0  3.331369  0  0  -0.57138  -0.633178  0  3.335556  0
N  N63  1  0.57349711  0.64457012  0.13431351  1  0  -0.686992  0  3.1065  0  0  -0.648655  0  3.333976  0  0  -0.670811  0  3.331363  0  0  -0.571337  -0.633163  0  3.335532  0
N  N64  1  0.91523098  0.38568032  0.84859399  1  0  -0.36056  0  3.282099  0  0  -0.306999  0  3.609693  0  0  -0.320384  0  3.611882  0  0  -0.435271  -0.298389  0  3.607965  0
N  N65  1  0.61432394  0.08476868  0.65140665  1  0  -0.360598  0  3.282464  0  0  -0.307047  0  3.610062  0  0  -0.320438  0  3.612253  0  0  -0.435336  -0.298437  0  3.608325  0
N  N66  1  0.08476556  0.61432200  0.15140726  1  0  -0.360531  0  3.282348  0  0  -0.306975  0  3.609945  0  0  -0.320362  0  3.612137  0  0  -0.435271  -0.298365  0  3.608214  0
N  N67  1  0.38567961  0.91522811  0.34859102  1  0  -0.360511  0  3.282653  0  0  -0.306959  0  3.610241  0  0  -0.320339  0  3.612423  0  0  -0.435274  -0.298346  0  3.608505  0
N  N68  1  0.66446079  0.61509464  0.47107224  1  0  -0.420293  0  3.238222  0  0  -0.350787  0  3.527436  0  0  -0.368999  0  3.532817  0  0  -0.363195  -0.33968  0  3.524317  0
N  N69  1  0.38490322  0.33554223  0.02892830  1  0  -0.420279  0  3.238156  0  0  -0.35065  0  3.527242  0  0  -0.368866  0  3.532652  0  0  -0.363176  -0.339546  0  3.524127  0
N  N70  1  0.33554280  0.38491051  0.52892518  1  0  -0.420358  0  3.238176  0  0  -0.350729  0  3.527251  0  0  -0.36895  0  3.532665  0  0  -0.363212  -0.339622  0  3.524132  0
N  N71  1  0.61509241  0.66445451  0.97107230  1  0  -0.420431  0  3.238289  0  0  -0.350769  0  3.527348  0  0  -0.368976  0  3.532742  0  0  -0.363243  -0.339666  0  3.524228  0
