# generated using pymatgen
data_SnH14C11O4
_symmetry_space_group_name_H-M   'P 1'
_cell_length_a   9.99921585
_cell_length_b   10.57680343
_cell_length_c   12.31379618
_cell_angle_alpha   111.82214185
_cell_angle_beta   90.00010148
_cell_angle_gamma   89.99979318
_symmetry_Int_Tables_number   1
_chemical_formula_structural   SnH14C11O4
_chemical_formula_sum   'Sn4 H56 C44 O16'
_cell_volume   1208.98371363
_cell_formula_units_Z   4
loop_
 _symmetry_equiv_pos_site_id
 _symmetry_equiv_pos_as_xyz
  1  'x, y, z'
loop_
 _atom_site_type_symbol
 _atom_site_label
 _atom_site_symmetry_multiplicity
 _atom_site_fract_x
 _atom_site_fract_y
 _atom_site_fract_z
 _atom_site_occupancy
 _atom_site_hle17_bader_spin_density
 _atom_site_hle17_ddec_charge
 _atom_site_hle17_ddec_spin_density
 _atom_site_hle17_ddec_sum_bond_order
 _atom_site_hle17_magmom
 _atom_site_hse06_10hf_bader_spin_density
 _atom_site_hse06_10hf_ddec_charge
 _atom_site_hse06_10hf_ddec_spin_density
 _atom_site_hse06_10hf_ddec_sum_bond_order
 _atom_site_hse06_10hf_magmom
 _atom_site_hse06_bader_spin_density
 _atom_site_hse06_ddec_charge
 _atom_site_hse06_ddec_spin_density
 _atom_site_hse06_ddec_sum_bond_order
 _atom_site_hse06_magmom
 _atom_site_pbe_bader_spin_density
 _atom_site_pbe_cm5_charge
 _atom_site_pbe_ddec_charge
 _atom_site_pbe_ddec_spin_density
 _atom_site_pbe_ddec_sum_bond_order
 _atom_site_pbe_magmom
Sn  Sn0  1  0.39888926  0.44721945  0.77074758  1  0  1.36896  0  2.883036  0  0  1.240655  0  3.372726  0  0  1.279133  0  3.356971  0  0  0.5179  1.214745  0  3.382214  0
Sn  Sn1  1  0.89889122  0.55278140  0.72925365  1  0  1.368907  0  2.883036  0  0  1.240586  0  3.372732  0  0  1.279067  0  3.356966  0  0  0.51787  1.214683  0  3.382202  0
Sn  Sn2  1  0.60110932  0.55278302  0.22925317  1  0  1.368996  0  2.88294  0  0  1.2407  0  3.372657  0  0  1.279169  0  3.356898  0  0  0.517921  1.214788  0  3.382138  0
Sn  Sn3  1  0.10111036  0.44721903  0.27074644  1  0  1.368922  0  2.882997  0  0  1.240611  0  3.37269  0  0  1.279101  0  3.356917  0  0  0.517874  1.214709  0  3.382155  0
H  H4  1  0.40721324  0.71238955  0.62625340  1  0  0.096598  0  0.968427  0  0  0.108916  0  1.028827  0  0  0.11162  0  1.027865  0  0  0.101386  0.106757  0  1.030084  0
H  H5  1  0.90722154  0.28761027  0.87374263  1  0  0.096589  0  0.968395  0  0  0.108875  0  1.02885  0  0  0.111583  0  1.027876  0  0  0.101392  0.106717  0  1.030111  0
H  H6  1  0.59278734  0.28761292  0.37374978  1  0  0.096548  0  0.968434  0  0  0.108896  0  1.028805  0  0  0.111598  0  1.027846  0  0  0.101384  0.106738  0  1.030066  0
H  H7  1  0.09278204  0.71238610  0.12625048  1  0  0.096534  0  0.968486  0  0  0.10888  0  1.028861  0  0  0.111583  0  1.027901  0  0  0.1014  0.106724  0  1.030118  0
H  H8  1  0.55515152  0.91365121  0.68505254  1  0  0.097094  0  0.948999  0  0  0.107177  0  1.007892  0  0  0.110203  0  1.006762  0  0  0.100829  0.105067  0  1.008749  0
H  H9  1  0.05515605  0.08634464  0.81494334  1  0  0.097063  0  0.949025  0  0  0.107107  0  1.007979  0  0  0.110131  0  1.006855  0  0  0.100813  0.104991  0  1.008834  0
H  H10  1  0.44484906  0.08635126  0.31495064  1  0  0.097061  0  0.948996  0  0  0.107137  0  1.007908  0  0  0.110163  0  1.006779  0  0  0.100815  0.105022  0  1.008765  0
H  H11  1  0.94484252  0.91364969  0.18504830  1  0  0.097087  0  0.948993  0  0  0.107125  0  1.007946  0  0  0.110148  0  1.006822  0  0  0.100812  0.10501  0  1.008799  0
H  H12  1  0.50947768  0.11780950  0.86664098  1  0  0.127278  0  0.951624  0  0  0.135709  0  1.014373  0  0  0.139779  0  1.011369  0  0  0.108223  0.132752  0  1.016559  0
H  H13  1  0.00947673  0.88218343  0.63335714  1  0  0.127247  0  0.951558  0  0  0.135673  0  1.014323  0  0  0.139743  0  1.011318  0  0  0.108215  0.132715  0  1.016506  0
H  H14  1  0.49052090  0.88219194  0.13336268  1  0  0.127264  0  0.951626  0  0  0.135679  0  1.014391  0  0  0.139749  0  1.011383  0  0  0.108215  0.132721  0  1.016574  0
H  H15  1  0.99051785  0.11781193  0.36663482  1  0  0.127261  0  0.951492  0  0  0.135692  0  1.014242  0  0  0.139749  0  1.011257  0  0  0.108212  0.132735  0  1.016423  0
H  H16  1  0.10281794  0.11518933  0.08739241  1  0  0.076194  0  0.924303  0  0  0.082831  0  0.991926  0  0  0.08364  0  0.990607  0  0  0.124247  0.082116  0  0.992943  0
H  H17  1  0.60281601  0.88481271  0.41260964  1  0  0.076239  0  0.924296  0  0  0.082871  0  0.991967  0  0  0.083682  0  0.990643  0  0  0.124264  0.082158  0  0.99298  0
H  H18  1  0.89718164  0.88480906  0.91261109  1  0  0.076207  0  0.924255  0  0  0.082891  0  0.991862  0  0  0.0837  0  0.99054  0  0  0.124265  0.082182  0  0.992878  0
H  H19  1  0.39718257  0.11518875  0.58738429  1  0  0.07616  0  0.924211  0  0  0.08285  0  0.991855  0  0  0.083662  0  0.990527  0  0  0.124231  0.082139  0  0.992875  0
H  H20  1  0.23506954  0.01421847  0.11809418  1  0  0.046714  0  0.917327  0  0  0.053629  0  0.986525  0  0  0.053143  0  0.986924  0  0  0.108379  0.05392  0  0.986168  0
H  H21  1  0.73507115  0.98578009  0.38190695  1  0  0.046681  0  0.917339  0  0  0.053657  0  0.986486  0  0  0.053172  0  0.986884  0  0  0.108382  0.053946  0  0.986127  0
H  H22  1  0.76493004  0.98577992  0.88190851  1  0  0.046657  0  0.917405  0  0  0.053633  0  0.986568  0  0  0.053147  0  0.986967  0  0  0.108372  0.053927  0  0.986209  0
H  H23  1  0.26493043  0.01422035  0.61808909  1  0  0.046621  0  0.917341  0  0  0.053619  0  0.986493  0  0  0.053134  0  0.986891  0  0  0.108362  0.053913  0  0.986131  0
H  H24  1  0.29246137  0.24990380  0.83686184  1  0  0.154701  0  1.004417  0  0  0.170461  0  1.066783  0  0  0.172974  0  1.06772  0  0  0.082425  0.168657  0  1.066117  0
H  H25  1  0.79245642  0.75009536  0.66313788  1  0  0.154716  0  1.004402  0  0  0.170482  0  1.066756  0  0  0.172995  0  1.067693  0  0  0.082452  0.168672  0  1.066099  0
H  H26  1  0.70754221  0.75009664  0.16313663  1  0  0.154716  0  1.004348  0  0  0.170485  0  1.066701  0  0  0.173  0  1.067637  0  0  0.08245  0.168679  0  1.066037  0
H  H27  1  0.20754116  0.24990405  0.33686270  1  0  0.154723  0  1.00435  0  0  0.170493  0  1.066702  0  0  0.173007  0  1.067638  0  0  0.082439  0.168682  0  1.066047  0
H  H28  1  0.18488876  0.27898802  0.73177320  1  0  0.154253  0  1.010965  0  0  0.170928  0  1.071973  0  0  0.173567  0  1.073062  0  0  0.084779  0.16912  0  1.071112  0
H  H29  1  0.68488615  0.72101046  0.76822696  1  0  0.154234  0  1.010928  0  0  0.170911  0  1.071948  0  0  0.173551  0  1.073035  0  0  0.084771  0.1691  0  1.07109  0
H  H30  1  0.81511082  0.72100936  0.26822429  1  0  0.154278  0  1.010951  0  0  0.170945  0  1.071967  0  0  0.173584  0  1.073053  0  0  0.084776  0.169136  0  1.071105  0
H  H31  1  0.31511342  0.27898691  0.23177378  1  0  0.15426  0  1.010925  0  0  0.170929  0  1.071946  0  0  0.173568  0  1.073036  0  0  0.084764  0.169118  0  1.071086  0
H  H32  1  0.18393263  0.39480392  0.87977675  1  0  0.149204  0  1.009759  0  0  0.169992  0  1.063457  0  0  0.17199  0  1.065176  0  0  0.083544  0.168483  0  1.062504  0
H  H33  1  0.68393314  0.60519049  0.62022372  1  0  0.149203  0  1.009689  0  0  0.169978  0  1.063413  0  0  0.171976  0  1.065132  0  0  0.08354  0.168473  0  1.062453  0
H  H34  1  0.81606695  0.60519142  0.12022171  1  0  0.149229  0  1.009651  0  0  0.170008  0  1.063369  0  0  0.172006  0  1.065088  0  0  0.083562  0.168499  0  1.062418  0
H  H35  1  0.31606844  0.39480485  0.37977636  1  0  0.149215  0  1.009766  0  0  0.170003  0  1.063464  0  0  0.172001  0  1.065182  0  0  0.083538  0.168487  0  1.062515  0
H  H36  1  0.36263133  0.35882241  0.53817199  1  0  0.160002  0  0.996447  0  0  0.178414  0  1.052298  0  0  0.181574  0  1.052329  0  0  0.087431  0.176173  0  1.052341  0
H  H37  1  0.86263246  0.64118059  0.96183150  1  0  0.159945  0  0.996519  0  0  0.178354  0  1.052375  0  0  0.181513  0  1.05241  0  0  0.087412  0.176115  0  1.052414  0
H  H38  1  0.63736825  0.64118005  0.46183119  1  0  0.159929  0  0.996539  0  0  0.178341  0  1.05239  0  0  0.181502  0  1.052422  0  0  0.087399  0.176101  0  1.05243  0
H  H39  1  0.13736912  0.35882086  0.03817055  1  0  0.15995  0  0.996449  0  0  0.178359  0  1.052306  0  0  0.181519  0  1.05234  0  0  0.087408  0.176121  0  1.052342  0
H  H40  1  0.53181470  0.32257093  0.56585464  1  0  0.154602  0  0.997602  0  0  0.170296  0  1.058825  0  0  0.173322  0  1.058652  0  0  0.084042  0.168151  0  1.059128  0
H  H41  1  0.03181721  0.67743110  0.93414725  1  0  0.154571  0  0.997614  0  0  0.170259  0  1.058854  0  0  0.173286  0  1.05868  0  0  0.084035  0.168114  0  1.059156  0
H  H42  1  0.46818388  0.67743154  0.43414692  1  0  0.154586  0  0.997599  0  0  0.170278  0  1.058826  0  0  0.173303  0  1.058654  0  0  0.084035  0.168134  0  1.059125  0
H  H43  1  0.96818537  0.32257137  0.06585512  1  0  0.154584  0  0.997613  0  0  0.170281  0  1.058828  0  0  0.173307  0  1.058656  0  0  0.084047  0.168136  0  1.05913  0
H  H44  1  0.48524574  0.49157078  0.57992285  1  0  0.142969  0  1.028837  0  0  0.161983  0  1.087933  0  0  0.164005  0  1.089349  0  0  0.081572  0.160393  0  1.087354  0
H  H45  1  0.98524829  0.50843183  0.92007988  1  0  0.142949  0  1.028836  0  0  0.161967  0  1.087932  0  0  0.163989  0  1.08935  0  0  0.081573  0.160369  0  1.087368  0
H  H46  1  0.51475384  0.50843168  0.42007952  1  0  0.142965  0  1.028832  0  0  0.161984  0  1.08793  0  0  0.164006  0  1.089347  0  0  0.081562  0.160389  0  1.087359  0
H  H47  1  0.01475429  0.49156962  0.07992217  1  0  0.142974  0  1.028856  0  0  0.161993  0  1.087945  0  0  0.164014  0  1.089365  0  0  0.081576  0.160394  0  1.087383  0
H  H48  1  0.54134736  0.59470438  0.96232885  1  0  0.161712  0  0.984819  0  0  0.182238  0  1.037585  0  0  0.185218  0  1.037745  0  0  0.089891  0.180079  0  1.037624  0
H  H49  1  0.04134705  0.40529660  0.53767190  1  0  0.161714  0  0.984845  0  0  0.182236  0  1.037604  0  0  0.185218  0  1.037766  0  0  0.089891  0.18008  0  1.037647  0
H  H50  1  0.45865422  0.40529605  0.03767124  1  0  0.161725  0  0.984828  0  0  0.182248  0  1.037588  0  0  0.185229  0  1.037748  0  0  0.089891  0.180089  0  1.037634  0
H  H51  1  0.95865553  0.59470485  0.46232933  1  0  0.161714  0  0.984773  0  0  0.182241  0  1.037534  0  0  0.185221  0  1.037698  0  0  0.089899  0.180083  0  1.037576  0
H  H52  1  0.37895349  0.66975792  0.97096658  1  0  0.151689  0  0.983478  0  0  0.169198  0  1.040912  0  0  0.171649  0  1.041707  0  0  0.082376  0.167362  0  1.040705  0
H  H53  1  0.87895487  0.33024504  0.52903692  1  0  0.151621  0  0.983496  0  0  0.169124  0  1.040949  0  0  0.171573  0  1.041748  0  0  0.082327  0.167291  0  1.040739  0
H  H54  1  0.62104709  0.33024455  0.02903661  1  0  0.151692  0  0.983496  0  0  0.169197  0  1.040932  0  0  0.171648  0  1.041729  0  0  0.082366  0.167363  0  1.040725  0
H  H55  1  0.12104871  0.66975743  0.47096545  1  0  0.151693  0  0.983465  0  0  0.169201  0  1.040902  0  0  0.171647  0  1.041703  0  0  0.08238  0.167366  0  1.040695  0
H  H56  1  0.50627632  0.69925551  0.88073882  1  0  0.157346  0  1.007516  0  0  0.172551  0  1.070499  0  0  0.175057  0  1.071962  0  0  0.084603  0.170594  0  1.069987  0
H  H57  1  0.00627759  0.30074558  0.61926192  1  0  0.157334  0  1.00751  0  0  0.172534  0  1.070501  0  0  0.17504  0  1.071966  0  0  0.084596  0.170579  0  1.06999  0
H  H58  1  0.49372326  0.30074696  0.11926355  1  0  0.157352  0  1.007477  0  0  0.172556  0  1.070463  0  0  0.175062  0  1.071929  0  0  0.08459  0.1706  0  1.069949  0
H  H59  1  0.99372499  0.69925485  0.38073818  1  0  0.157353  0  1.007504  0  0  0.172563  0  1.070479  0  0  0.175067  0  1.071943  0  0  0.084601  0.170606  0  1.069968  0
C  C60  1  0.17654534  0.67864356  0.73695331  1  0  0.683277  0  3.866415  0  0  0.625835  0  4.163705  0  0  0.661682  0  4.152191  0  0  0.235225  0.601483  0  4.170837  0
C  C61  1  0.67655127  0.32135902  0.76304977  1  0  0.683517  0  3.866242  0  0  0.625944  0  4.163729  0  0  0.661792  0  4.152213  0  0  0.23526  0.601589  0  4.170868  0
C  C62  1  0.82345424  0.32135789  0.26304792  1  0  0.683292  0  3.866481  0  0  0.625883  0  4.163727  0  0  0.661728  0  4.152212  0  0  0.235262  0.601524  0  4.170867  0
C  C63  1  0.32344931  0.67864243  0.23694983  1  0  0.683271  0  3.866399  0  0  0.625794  0  4.163793  0  0  0.661637  0  4.15228  0  0  0.235217  0.601429  0  4.170937  0
C  C64  1  0.27133758  0.79634547  0.77184257  1  0  -0.152547  0  3.79595  0  0  -0.137175  0  4.043515  0  0  -0.143686  0  4.062066  0  0  -0.02628  -0.132676  0  4.03086  0
C  C65  1  0.77134089  0.20365478  0.72815747  1  0  -0.152672  0  3.796017  0  0  -0.137293  0  4.043664  0  0  -0.143804  0  4.062212  0  0  -0.026322  -0.13279  0  4.031016  0
C  C66  1  0.72866199  0.20365598  0.22815947  1  0  -0.152534  0  3.795705  0  0  -0.137164  0  4.043296  0  0  -0.143676  0  4.061848  0  0  -0.026256  -0.132656  0  4.03064  0
C  C67  1  0.22865569  0.79634464  0.27183906  1  0  -0.152543  0  3.795898  0  0  -0.137212  0  4.043596  0  0  -0.143725  0  4.06215  0  0  -0.026271  -0.132702  0  4.030937  0
C  C68  1  0.38569847  0.79982242  0.70577069  1  0  -0.102822  0  3.772727  0  0  -0.13261  0  4.03461  0  0  -0.132689  0  4.053804  0  0  -0.098773  -0.131878  0  4.02157  0
C  C69  1  0.88570194  0.20017747  0.79422696  1  0  -0.102833  0  3.772663  0  0  -0.132589  0  4.034535  0  0  -0.132666  0  4.053732  0  0  -0.098788  -0.13186  0  4.021501  0
C  C70  1  0.61430211  0.20018106  0.29423282  1  0  -0.102737  0  3.772597  0  0  -0.132536  0  4.034479  0  0  -0.132619  0  4.053678  0  0  -0.098763  -0.131811  0  4.021446  0
C  C71  1  0.11429864  0.79981890  0.20576615  1  0  -0.102747  0  3.772698  0  0  -0.132529  0  4.034588  0  0  -0.132607  0  4.053783  0  0  -0.098766  -0.131805  0  4.021552  0
C  C72  1  0.46943186  0.91326992  0.73949026  1  0  -0.065895  0  3.780053  0  0  -0.084248  0  4.051556  0  0  -0.084973  0  4.069783  0  0  -0.099214  -0.083802  0  4.039001  0
C  C73  1  0.96943369  0.08672664  0.76050806  1  0  -0.065834  0  3.779946  0  0  -0.084162  0  4.051442  0  0  -0.08489  0  4.069672  0  0  -0.09917  -0.083708  0  4.038868  0
C  C74  1  0.53057072  0.08673050  0.26051308  1  0  -0.065921  0  3.780073  0  0  -0.084279  0  4.051584  0  0  -0.085  0  4.06981  0  0  -0.099241  -0.083823  0  4.039018  0
C  C75  1  0.03056389  0.91326973  0.23948504  1  0  -0.065847  0  3.779941  0  0  -0.084174  0  4.051441  0  0  -0.084898  0  4.069663  0  0  -0.099209  -0.083713  0  4.038866  0
C  C76  1  0.44611685  0.02784571  0.84226022  1  0  -0.157759  0  3.73894  0  0  -0.186763  0  4.002779  0  0  -0.187121  0  4.017753  0  0  -0.10004  -0.186829  0  3.993143  0
C  C77  1  0.94611503  0.97215194  0.65773923  1  0  -0.157662  0  3.73879  0  0  -0.186651  0  4.0026  0  0  -0.187004  0  4.017573  0  0  -0.100016  -0.186702  0  3.992946  0
C  C78  1  0.55388472  0.97215471  0.15774393  1  0  -0.157706  0  3.738872  0  0  -0.186651  0  4.002719  0  0  -0.187004  0  4.017691  0  0  -0.099961  -0.186707  0  3.993066  0
C  C79  1  0.05388255  0.02784341  0.34225274  1  0  -0.157753  0  3.738803  0  0  -0.18669  0  4.002631  0  0  -0.187039  0  4.017621  0  0  -0.099961  -0.186744  0  3.992977  0
C  C80  1  0.33632233  0.02130218  0.90839183  1  0  0.158353  0  3.844823  0  0  0.15071  0  4.105488  0  0  0.156727  0  4.122176  0  0  0.068695  0.146277  0  4.095238  0
C  C81  1  0.83631934  0.97869582  0.59160920  1  0  0.158236  0  3.844795  0  0  0.150629  0  4.105468  0  0  0.15665  0  4.122155  0  0  0.068661  0.146189  0  4.095229  0
C  C82  1  0.66367925  0.97869824  0.09161232  1  0  0.158388  0  3.844621  0  0  0.150669  0  4.105425  0  0  0.15668  0  4.122113  0  0  0.068697  0.146241  0  4.095174  0
C  C83  1  0.16367624  0.02130361  0.40838570  1  0  0.1583  0  3.844636  0  0  0.150585  0  4.10545  0  0  0.156603  0  4.122136  0  0  0.068657  0.146143  0  4.095216  0
C  C84  1  0.25025182  0.90927993  0.87348311  1  0  0.145003  0  3.822597  0  0  0.128164  0  4.079833  0  0  0.135363  0  4.0962  0  0  0.072292  0.122341  0  4.069686  0
C  C85  1  0.75025134  0.09072140  0.62651805  1  0  0.145141  0  3.822581  0  0  0.128271  0  4.079827  0  0  0.135474  0  4.096192  0  0  0.072339  0.122444  0  4.069693  0
C  C86  1  0.74974875  0.09071948  0.12651909  1  0  0.144963  0  3.822373  0  0  0.128087  0  4.079692  0  0  0.135285  0  4.09606  0  0  0.072239  0.122256  0  4.069552  0
C  C87  1  0.24974723  0.90927802  0.37347847  1  0  0.144959  0  3.822438  0  0  0.128169  0  4.079761  0  0  0.135371  0  4.096128  0  0  0.07228  0.122346  0  4.069619  0
C  C88  1  0.18925780  0.04905519  0.05254067  1  0  0.26082  0  3.513571  0  0  0.185539  0  3.796892  0  0  0.199606  0  3.796185  0  0  0.038795  0.175965  0  3.797212  0
C  C89  1  0.68925370  0.95094453  0.44746157  1  0  0.260832  0  3.513485  0  0  0.18547  0  3.796873  0  0  0.199542  0  3.796168  0  0  0.038751  0.175904  0  3.797189  0
C  C90  1  0.81074178  0.95094319  0.94746282  1  0  0.260794  0  3.51367  0  0  0.185368  0  3.79709  0  0  0.199431  0  3.796385  0  0  0.038716  0.175789  0  3.797418  0
C  C91  1  0.31074188  0.04905388  0.55253300  1  0  0.260791  0  3.513444  0  0  0.185388  0  3.796907  0  0  0.199454  0  3.796203  0  0  0.038726  0.175814  0  3.797228  0
C  C92  1  0.24701463  0.32741868  0.80943156  1  0  -0.720367  0  3.507028  0  0  -0.759649  0  3.732596  0  0  -0.773586  0  3.739631  0  0  -0.341895  -0.749328  0  3.727108  0
C  C93  1  0.74701403  0.67257961  0.69056944  1  0  -0.720381  0  3.50693  0  0  -0.759634  0  3.732468  0  0  -0.773575  0  3.739511  0  0  -0.341904  -0.749308  0  3.726968  0
C  C94  1  0.75298595  0.67257972  0.19056869  1  0  -0.720459  0  3.506901  0  0  -0.759708  0  3.732441  0  0  -0.773645  0  3.739474  0  0  -0.341934  -0.749384  0  3.726944  0
C  C95  1  0.25298754  0.32741879  0.30943163  1  0  -0.720395  0  3.506918  0  0  -0.759673  0  3.732452  0  0  -0.773614  0  3.739491  0  0  -0.341876  -0.74934  0  3.726965  0
C  C96  1  0.45192332  0.39882898  0.59135601  1  0  -0.720725  0  3.522591  0  0  -0.764845  0  3.754925  0  0  -0.778344  0  3.760612  0  0  -0.340857  -0.755694  0  3.751257  0
C  C97  1  0.95192548  0.60117374  0.90864833  1  0  -0.720578  0  3.522616  0  0  -0.764698  0  3.754959  0  0  -0.778199  0  3.760651  0  0  -0.340811  -0.755542  0  3.751297  0
C  C98  1  0.54807626  0.60117349  0.40864717  1  0  -0.720635  0  3.522614  0  0  -0.76475  0  3.754944  0  0  -0.778251  0  3.760631  0  0  -0.340807  -0.7556  0  3.751275  0
C  C99  1  0.04807610  0.39882872  0.09135486  1  0  -0.720631  0  3.52262  0  0  -0.764746  0  3.754928  0  0  -0.778249  0  3.760622  0  0  -0.34083  -0.755593  0  3.751261  0
C  C100  1  0.46422320  0.62483811  0.91364149  1  0  -0.712916  0  3.52295  0  0  -0.756395  0  3.757041  0  0  -0.769573  0  3.762736  0  0  -0.333327  -0.747337  0  3.753615  0
C  C101  1  0.96422453  0.37516559  0.58635912  1  0  -0.712811  0  3.522915  0  0  -0.756285  0  3.757029  0  0  -0.769449  0  3.762694  0  0  -0.333261  -0.747237  0  3.753606  0
C  C102  1  0.53577738  0.37516537  0.08635959  1  0  -0.712955  0  3.522931  0  0  -0.756436  0  3.757046  0  0  -0.7696  0  3.762708  0  0  -0.33331  -0.74738  0  3.753625  0
C  C103  1  0.03577805  0.62483790  0.41364114  1  0  -0.712935  0  3.522842  0  0  -0.756419  0  3.756946  0  0  -0.769586  0  3.76263  0  0  -0.333341  -0.747372  0  3.753527  0
O  O104  1  0.21595965  0.56075986  0.72571508  1  0  -0.618334  0  2.028333  0  0  -0.540929  0  2.259314  0  0  -0.567981  0  2.252809  0  0  -0.267683  -0.522112  0  2.263082  0
O  O105  1  0.71596414  0.43924056  0.77428818  1  0  -0.618444  0  2.028354  0  0  -0.540947  0  2.259332  0  0  -0.568001  0  2.252822  0  0  -0.267698  -0.522129  0  2.263092  0
O  O106  1  0.78403993  0.43924159  0.27428615  1  0  -0.618324  0  2.028307  0  0  -0.540941  0  2.259308  0  0  -0.567993  0  2.252798  0  0  -0.267692  -0.522124  0  2.263075  0
O  O107  1  0.28403944  0.56075987  0.22571435  1  0  -0.618402  0  2.028433  0  0  -0.540919  0  2.259382  0  0  -0.567973  0  2.252875  0  0  -0.267684  -0.522098  0  2.263148  0
O  O108  1  0.05458271  0.70550420  0.72147913  1  0  -0.616007  0  2.018083  0  0  -0.549617  0  2.262259  0  0  -0.576211  0  2.254611  0  0  -0.27596  -0.53094  0  2.266329  0
O  O109  1  0.55458577  0.29449979  0.77852342  1  0  -0.616155  0  2.018117  0  0  -0.54969  0  2.26231  0  0  -0.576288  0  2.254667  0  0  -0.27597  -0.531006  0  2.266389  0
O  O110  1  0.94541687  0.29449827  0.27852405  1  0  -0.616076  0  2.018154  0  0  -0.549698  0  2.262312  0  0  -0.576292  0  2.254663  0  0  -0.276018  -0.531019  0  2.266386  0
O  O111  1  0.44541481  0.70550471  0.22147879  1  0  -0.615981  0  2.01802  0  0  -0.549612  0  2.262249  0  0  -0.576196  0  2.254597  0  0  -0.275972  -0.530927  0  2.26632  0
O  O112  1  0.28863841  0.11894052  0.01045166  1  0  -0.290543  0  2.205404  0  0  -0.224551  0  2.431825  0  0  -0.241604  0  2.433762  0  0  -0.175936  -0.212598  0  2.430311  0
O  O113  1  0.78863467  0.88105888  0.48955224  1  0  -0.290515  0  2.205363  0  0  -0.224566  0  2.431846  0  0  -0.241628  0  2.433789  0  0  -0.175929  -0.212619  0  2.430341  0
O  O114  1  0.71136116  0.88105888  0.98955216  1  0  -0.290431  0  2.20544  0  0  -0.22441  0  2.431931  0  0  -0.241463  0  2.43387  0  0  -0.175858  -0.212473  0  2.430432  0
O  O115  1  0.21135991  0.11893952  0.51044395  1  0  -0.290406  0  2.205399  0  0  -0.224396  0  2.431906  0  0  -0.241457  0  2.433852  0  0  -0.17584  -0.212452  0  2.430405  0
O  O116  1  0.14726879  0.93136397  0.95281132  1  0  -0.288824  0  2.208064  0  0  -0.228435  0  2.445974  0  0  -0.244479  0  2.445894  0  0  -0.176679  -0.217239  0  2.445858  0
O  O117  1  0.64726922  0.06863666  0.54719191  1  0  -0.288883  0  2.208055  0  0  -0.228441  0  2.445989  0  0  -0.244492  0  2.445911  0  0  -0.176662  -0.217244  0  2.445876  0
O  O118  1  0.85273079  0.06863442  0.04719137  1  0  -0.288881  0  2.208005  0  0  -0.228413  0  2.44593  0  0  -0.244446  0  2.445845  0  0  -0.176685  -0.217209  0  2.445816  0
O  O119  1  0.35272635  0.93136276  0.45280380  1  0  -0.288721  0  2.207918  0  0  -0.228391  0  2.445957  0  0  -0.244433  0  2.445875  0  0  -0.176671  -0.217191  0  2.44584  0
