# generated using pymatgen
data_Zn2H21RhC36(NO2)4
_symmetry_space_group_name_H-M   'P 1'
_cell_length_a   13.96769124
_cell_length_b   15.15114343
_cell_length_c   15.29296690
_cell_angle_alpha   85.37967627
_cell_angle_beta   86.19309753
_cell_angle_gamma   86.74505745
_symmetry_Int_Tables_number   1
_chemical_formula_structural   Zn2H21RhC36(NO2)4
_chemical_formula_sum   'Zn4 H42 Rh2 C72 N8 O16'
_cell_volume   3214.45522447
_cell_formula_units_Z   2
loop_
 _symmetry_equiv_pos_site_id
 _symmetry_equiv_pos_as_xyz
  1  'x, y, z'
loop_
 _atom_site_type_symbol
 _atom_site_label
 _atom_site_symmetry_multiplicity
 _atom_site_fract_x
 _atom_site_fract_y
 _atom_site_fract_z
 _atom_site_occupancy
 _atom_site_pbe_bader_charge
 _atom_site_pbe_bader_spin_density
 _atom_site_pbe_cm5_charge
 _atom_site_pbe_ddec_charge
 _atom_site_pbe_ddec_spin_density
 _atom_site_pbe_ddec_sum_bond_order
 _atom_site_pbe_magmom
Zn  Zn0  1  0.89509618  0.60219741  0.83888103  1  1.293929  0  0.673567  0.827305  0  2.423256  0
Zn  Zn1  1  0.69136535  0.61581424  0.84825272  1  1.284485  0  0.663698  0.820327  0  2.398169  0
Zn  Zn2  1  0.10489545  0.39780815  0.16112581  1  1.293945  0  0.673553  0.827418  0  2.423243  0
Zn  Zn3  1  0.30862682  0.38418207  0.15175147  1  1.284506  0  0.663645  0.820246  0  2.398228  0
H  H4  1  0.20925368  0.63601005  0.98203967  1  0.109971  0  0.111643  0.119183  0  1.027345  0
H  H5  1  0.06025453  0.59071595  0.70805152  1  0.136223  0  0.127811  0.105293  0  0.987845  0
H  H6  1  0.23857391  0.59991278  0.70332155  1  0.093016  0  0.112933  0.118174  0  0.993254  0
H  H7  1  0.03329683  0.62090375  0.97528365  1  0.145497  0  0.126772  0.107445  0  1.000036  0
H  H8  1  0.63079665  0.61459850  0.29441123  1  0.06805  0  0.105085  0.111647  0  1.00897  0
H  H9  1  0.63033543  0.61496887  0.13113117  1  0.085713  0  0.107448  0.110362  0  0.991888  0
H  H10  1  0.93887625  0.60877099  0.12080370  1  0.100607  0  0.113872  0.08561  0  1.010509  0
H  H11  1  0.65120543  0.65001561  0.57672043  1  0.085426  0  0.100687  0.101103  0  1.014659  0
H  H12  1  0.64216015  0.65591604  0.41544478  1  0.033251  0  0.099708  0.096893  0  1.015352  0
H  H13  1  0.94207852  0.57308897  0.38740786  1  0.104046  0  0.104533  0.107947  0  1.01949  0
H  H14  1  0.95033761  0.56894734  0.55107430  1  0.07194  0  0.102966  0.105598  0  1.011013  0
H  H15  1  0.64392423  0.32009758  0.87642576  1  0.056653  0  0.091532  0.102722  0  1.007866  0
H  H16  1  0.65065410  0.91217397  0.86179245  1  0.120294  0  0.118773  0.102014  0  0.985788  0
H  H17  1  0.94449106  0.34209605  0.80100797  1  0.117961  0  0.09847  0.104745  0  1.053804  0
H  H18  1  0.96489967  0.17958452  0.78897036  1  0.070656  0  0.100244  0.097329  0  1.00364  0
H  H19  1  0.95244198  0.86973868  0.79394416  1  0.112466  0  0.111565  0.119368  0  0.988367  0
H  H20  1  0.96805545  0.03498383  0.79067588  1  0.063086  0  0.111573  0.118685  0  0.991466  0
H  H21  1  0.54654892  0.67891402  0.71939631  1  0.125765  0  0.127521  0.101849  0  0.980628  0
H  H22  1  0.53072727  0.57107115  0.97640767  1  0.113671  0  0.122312  0.092728  0  1.009592  0
H  H23  1  0.35219690  0.56303975  0.97923832  1  0.13786  0  0.113576  0.128712  0  1.023439  0
H  H24  1  0.36772955  0.68205983  0.71176686  1  0.095184  0  0.115901  0.122645  0  0.988191  0
H  H25  1  0.79074393  0.36396709  0.01795970  1  0.109657  0  0.111663  0.119242  0  1.027279  0
H  H26  1  0.93973318  0.40926902  0.29196155  1  0.136167  0  0.127815  0.105362  0  0.987646  0
H  H27  1  0.76141207  0.40008029  0.29667534  1  0.09259  0  0.112959  0.11826  0  0.993213  0
H  H28  1  0.96670309  0.37905537  0.02472929  1  0.146343  0  0.126819  0.107412  0  1.000053  0
H  H29  1  0.36920683  0.38540182  0.70558751  1  0.068134  0  0.10512  0.11167  0  1.009029  0
H  H30  1  0.36966347  0.38503679  0.86886482  1  0.085702  0  0.107477  0.110396  0  0.991957  0
H  H31  1  0.06112409  0.39123537  0.87918758  1  0.100679  0  0.113916  0.085674  0  1.010514  0
H  H32  1  0.34880059  0.35000396  0.42327420  1  0.085799  0  0.100646  0.100979  0  1.014768  0
H  H33  1  0.35784413  0.34409555  0.58455313  1  0.033231  0  0.099646  0.096878  0  1.015407  0
H  H34  1  0.05792533  0.42691732  0.61259110  1  0.104029  0  0.104562  0.107947  0  1.01948  0
H  H35  1  0.04966369  0.43106694  0.44892031  1  0.071944  0  0.102928  0.105558  0  1.01105  0
H  H36  1  0.35608574  0.67989648  0.12360447  1  0.056044  0  0.091568  0.102693  0  1.007847  0
H  H37  1  0.34935441  0.08782496  0.13821331  1  0.120146  0  0.118746  0.102001  0  0.985815  0
H  H38  1  0.05551586  0.65790344  0.19900961  1  0.118259  0  0.098511  0.10476  0  1.053771  0
H  H39  1  0.03511054  0.82042446  0.21102349  1  0.070826  0  0.100218  0.097338  0  1.003393  0
H  H40  1  0.04756021  0.13024642  0.20605376  1  0.112601  0  0.111448  0.119182  0  0.988447  0
H  H41  1  0.03195632  0.96499941  0.20930727  1  0.063035  0  0.111581  0.118693  0  0.991446  0
H  H42  1  0.45344247  0.32112206  0.28060578  1  0.126437  0  0.12749  0.101836  0  0.980747  0
H  H43  1  0.46926328  0.42892987  0.02358908  1  0.113488  0  0.1223  0.092723  0  1.009712  0
H  H44  1  0.64779189  0.43695467  0.02075572  1  0.138035  0  0.113606  0.128636  0  1.023605  0
H  H45  1  0.63226425  0.31795903  0.28823435  1  0.095434  0  0.115974  0.122732  0  0.988121  0
Rh  Rh46  1  0.62406206  0.11206966  0.87189006  1  0.202997  0  0.292237  0.034288  0  2.378286  0
Rh  Rh47  1  0.37594471  0.88793736  0.12810085  1  0.203033  0  0.292332  0.034383  0  2.37855  0
C  C48  1  0.23952862  0.61849375  0.84295247  1  -0.057589  0  0.015106  0.098135  0  3.989643  0
C  C49  1  0.18006795  0.62454709  0.91995144  1  -0.027766  0  -0.071461  -0.152005  0  3.905506  0
C  C50  1  0.79358849  0.33880765  0.84193807  1  -0.071428  0  -0.022662  -0.021829  0  3.967297  0
C  C51  1  0.09714335  0.60063357  0.76679753  1  0.512245  0  0.058825  0.105804  0  3.918106  0
C  C52  1  0.78462595  0.61258721  0.11335424  1  -0.050887  0  -0.020745  -0.090643  0  3.974987  0
C  C53  1  0.80102941  0.60894992  0.57404044  1  0.001639  0  -0.016146  -0.02773  0  3.956679  0
C  C54  1  0.19600945  0.60699393  0.76488622  1  0.014457  0  -0.077136  -0.171427  0  3.94921  0
C  C55  1  0.08185538  0.61724266  0.91680258  1  0.480008  0  0.062642  0.114033  0  3.885056  0
C  C56  1  0.78742387  0.61046440  0.01571110  1  1.588935  0  0.212658  0.590791  0  4.201615  0
C  C57  1  0.78580851  0.43677027  0.85061947  1  1.530192  0  0.208672  0.579589  0  4.184911  0
C  C58  1  0.69821318  0.61487509  0.25437640  1  0.004448  0  -0.091983  -0.18394  0  3.978184  0
C  C59  1  0.79039302  0.78166857  0.83187634  1  1.579163  0  0.212857  0.596967  0  4.18846  0
C  C60  1  0.69738375  0.61452648  0.16379187  1  -0.032457  0  -0.072049  -0.049314  0  3.987669  0
C  C61  1  0.86930577  0.61149207  0.15789072  1  0.524266  0  0.053085  0.087132  0  3.960788  0
C  C62  1  0.80478484  0.60773430  0.67195693  1  1.585021  0  0.216358  0.5949  0  4.165452  0
C  C63  1  0.34452339  0.62200896  0.84488179  1  -0.058217  0  0.01989  0.113751  0  3.975859  0
C  C64  1  0.78671219  0.61404947  0.29365392  1  0.459285  0  0.118956  0.200595  0  4.014258  0
C  C65  1  0.79156763  0.61290983  0.39006419  1  0.009411  0  -0.007959  0.037216  0  3.99359  0
C  C66  1  0.71448044  0.63272707  0.53481578  1  -0.094128  0  -0.0874  -0.089867  0  4.002451  0
C  C67  1  0.80044932  0.87982178  0.82778350  1  0.039669  0  -0.01894  -0.074348  0  3.980169  0
C  C68  1  0.70984614  0.63500535  0.44426091  1  -0.059013  0  -0.09365  -0.132173  0  4.005978  0
C  C69  1  0.87851619  0.58920023  0.42961107  1  -0.074585  0  -0.085855  -0.118375  0  3.960662  0
C  C70  1  0.88306068  0.58734052  0.52040738  1  0.03926  0  -0.082627  -0.087397  0  3.970644  0
C  C71  1  0.71320283  0.28693471  0.85862535  1  -0.056732  0  -0.111658  -0.13478  0  4.002535  0
C  C72  1  0.72158798  0.93774940  0.84575889  1  0.410887  0  0.039688  0.0361  0  3.903595  0
C  C73  1  0.88414128  0.30001486  0.81649451  1  -0.022236  0  -0.102435  -0.123403  0  3.993246  0
C  C74  1  0.72281404  0.19481454  0.85213884  1  -0.073802  0  -0.153439  -0.124456  0  4.116587  0
C  C75  1  0.81557928  0.15650199  0.82771098  1  0.027776  0  -0.031851  0.00378  0  4.051776  0
C  C76  1  0.81825967  0.06133559  0.82476790  1  0.387035  0  0.108268  0.189158  0  3.956283  0
C  C77  1  0.89470983  0.20926943  0.80921643  1  -0.106263  0  -0.089401  -0.101294  0  3.997504  0
C  C78  1  0.89073746  0.91483803  0.80752422  1  -0.037785  0  -0.074138  -0.061294  0  3.972202  0
C  C79  1  0.89885077  0.00578300  0.80595100  1  0.009204  0  -0.084237  -0.16073  0  3.981436  0
C  C80  1  0.49984642  0.65482305  0.77520166  1  0.433953  0  0.060458  0.104361  0  3.926049  0
C  C81  1  0.49091070  0.59377466  0.91918086  1  0.512721  0  0.055944  0.09826  0  3.91901  0
C  C82  1  0.39166854  0.59107767  0.92056074  1  -0.060917  0  -0.072719  -0.166048  0  3.916603  0
C  C83  1  0.40076988  0.65515160  0.77141568  1  0.027154  0  -0.076493  -0.174575  0  3.946451  0
C  C84  1  0.76045814  0.38149729  0.15704911  1  -0.057081  0  0.015036  0.097812  0  3.99006  0
C  C85  1  0.81992728  0.37543332  0.08005240  1  -0.027471  0  -0.071308  -0.151656  0  3.904956  0
C  C86  1  0.20641680  0.66119654  0.15807338  1  -0.071393  0  -0.022734  -0.021646  0  3.96692  0
C  C87  1  0.90284540  0.39934683  0.23320861  1  0.512357  0  0.058847  0.105816  0  3.918134  0
C  C88  1  0.21537181  0.38742572  0.88664325  1  -0.050243  0  -0.020729  -0.090616  0  3.974782  0
C  C89  1  0.19897486  0.39106165  0.42595943  1  0.002327  0  -0.016235  -0.027929  0  3.956807  0
C  C90  1  0.80397966  0.39299380  0.23511416  1  0.014292  0  -0.077151  -0.171503  0  3.949736  0
C  C91  1  0.91814302  0.38273176  0.08320414  1  0.479495  0  0.062476  0.113851  0  3.88499  0
C  C92  1  0.21256836  0.38954385  0.98429159  1  1.58928  0  0.212701  0.590978  0  4.201812  0
C  C93  1  0.21419685  0.56323329  0.14938744  1  1.530401  0  0.208541  0.579235  0  4.184684  0
C  C94  1  0.30178580  0.38512924  0.74561902  1  0.004439  0  -0.091958  -0.183813  0  3.978119  0
C  C95  1  0.20961665  0.21832451  0.16811670  1  1.579212  0  0.213058  0.597136  0  4.18807  0
C  C96  1  0.30261609  0.38547519  0.83620501  1  -0.032446  0  -0.072157  -0.049482  0  3.987783  0
C  C97  1  0.13069580  0.38851758  0.84210289  1  0.523699  0  0.053104  0.087121  0  3.960686  0
C  C98  1  0.19520669  0.39227397  0.32804384  1  1.584818  0  0.216302  0.594894  0  4.165631  0
C  C99  1  0.65546436  0.37799073  0.15511651  1  -0.058644  0  0.019902  0.113802  0  3.976091  0
C  C100  1  0.21328707  0.38595025  0.70633920  1  0.459427  0  0.118871  0.200352  0  4.014291  0
C  C101  1  0.20842953  0.38708853  0.60993241  1  0.009104  0  -0.007963  0.037169  0  3.993755  0
C  C102  1  0.28552438  0.36728785  0.46518121  1  -0.095002  0  -0.087348  -0.089634  0  4.002668  0
C  C103  1  0.19955732  0.12017393  0.17221213  1  0.039671  0  -0.019075  -0.074392  0  3.979877  0
C  C104  1  0.29015671  0.36500695  0.55573309  1  -0.058846  0  -0.093517  -0.132107  0  4.006095  0
C  C105  1  0.12148579  0.41080143  0.57038634  1  -0.074429  0  -0.085927  -0.118337  0  3.960723  0
C  C106  1  0.11694283  0.41267242  0.47958786  1  0.038823  0  -0.082547  -0.087313  0  3.970669  0
C  C107  1  0.28680771  0.71306410  0.14139274  1  -0.056425  0  -0.111696  -0.134883  0  4.002445  0
C  C108  1  0.27841737  0.06224297  0.15424097  1  0.411143  0  0.039704  0.036014  0  3.903445  0
C  C109  1  0.11586069  0.69998610  0.18350819  1  -0.022301  0  -0.102447  -0.123435  0  3.993165  0
C  C110  1  0.27719643  0.80518770  0.14786725  1  -0.073805  0  -0.153347  -0.124303  0  4.116394  0
C  C111  1  0.18442923  0.84349765  0.17229016  1  0.027534  0  -0.031856  0.003732  0  4.051784  0
C  C112  1  0.18174907  0.93866077  0.17522888  1  0.386511  0  0.108277  0.189246  0  3.956101  0
C  C113  1  0.10529860  0.79073223  0.19078065  1  -0.106405  0  -0.089408  -0.101343  0  3.997326  0
C  C114  1  0.10926865  0.08515507  0.19246704  1  -0.03757  0  -0.073909  -0.0609  0  3.97184  0
C  C115  1  0.10115323  0.99421014  0.19403645  1  0.009245  0  -0.084256  -0.160858  0  3.981236  0
C  C116  1  0.50014120  0.34519189  0.22479427  1  0.433245  0  0.060403  0.104141  0  3.926467  0
C  C117  1  0.50907943  0.40623363  0.08081736  1  0.512602  0  0.055931  0.098141  0  3.918975  0
C  C118  1  0.60832383  0.40892862  0.07943947  1  -0.060767  0  -0.072795  -0.165992  0  3.916585  0
C  C119  1  0.59921678  0.34485472  0.22858221  1  0.027277  0  -0.076531  -0.174579  0  3.946725  0
N  N120  1  0.04105807  0.60523920  0.84154971  1  -1.239293  0  -0.319625  -0.205854  0  3.517773  0
N  N121  1  0.54426908  0.62412991  0.84776025  1  -1.235598  0  -0.319501  -0.193699  0  3.521452  0
N  N122  1  0.87107329  0.61238412  0.24495469  1  -1.185819  0  -0.314165  -0.300612  0  3.312068  0
N  N123  1  0.72917733  0.02631227  0.84488932  1  -1.111493  0  -0.353444  -0.13294  0  3.759479  0
N  N124  1  0.95893657  0.39473853  0.15845631  1  -1.239259  0  -0.319637  -0.205923  0  3.51783  0
N  N125  1  0.45572018  0.37588173  0.15223452  1  -1.235784  0  -0.319385  -0.193339  0  3.521334  0
N  N126  1  0.12892650  0.38761890  0.75503948  1  -1.186042  0  -0.314171  -0.300531  0  3.31184  0
N  N127  1  0.27083385  0.97367878  0.15510836  1  -1.111249  0  -0.353527  -0.133029  0  3.759446  0
O  O128  1  0.86882883  0.61602867  0.97407405  1  -1.174353  0  -0.309909  -0.548615  0  2.342438  0
O  O129  1  0.72512553  0.62349288  0.71541972  1  -1.180488  0  -0.319615  -0.561145  0  2.348255  0
O  O130  1  0.70730989  0.60288258  0.98201555  1  -1.17221  0  -0.318596  -0.557333  0  2.343736  0
O  O131  1  0.70309988  0.47692427  0.85043242  1  -1.166601  0  -0.324424  -0.555589  0  2.294729  0
O  O132  1  0.88597299  0.59143868  0.70445844  1  -1.165613  0  -0.313334  -0.540514  0  2.301633  0
O  O133  1  0.86490092  0.47295855  0.85870870  1  -1.16537  0  -0.319001  -0.5495  0  2.364177  0
O  O134  1  0.70737238  0.75193372  0.84974103  1  -1.157963  0  -0.32315  -0.551408  0  2.280728  0
O  O135  1  0.86805003  0.73559294  0.81731621  1  -1.166869  0  -0.318082  -0.549674  0  2.352042  0
O  O136  1  0.13116119  0.38398092  0.02592735  1  -1.17456  0  -0.309911  -0.548652  0  2.342662  0
O  O137  1  0.27487313  0.37650275  0.28458484  1  -1.179945  0  -0.319503  -0.561072  0  2.348218  0
O  O138  1  0.29268076  0.39711573  0.01798662  1  -1.172398  0  -0.318615  -0.557504  0  2.34405  0
O  O139  1  0.29690857  0.52307670  0.14956732  1  -1.166783  0  -0.324386  -0.555498  0  2.294492  0
O  O140  1  0.11402250  0.40856296  0.29554258  1  -1.165884  0  -0.313296  -0.540479  0  2.302004  0
O  O141  1  0.13510476  0.52703832  0.14130521  1  -1.165351  0  -0.31896  -0.549435  0  2.364315  0
O  O142  1  0.29264519  0.24805727  0.15026351  1  -1.157944  0  -0.323285  -0.551461  0  2.280446  0
O  O143  1  0.13196288  0.26440679  0.18267423  1  -1.16695  0  -0.318112  -0.549842  0  2.351938  0
