# generated using pymatgen
data_Cu4SiH12(CN)20
_symmetry_space_group_name_H-M   'P 1'
_cell_length_a   23.43394673
_cell_length_b   23.54257471
_cell_length_c   24.46425492
_cell_angle_alpha   89.99076622
_cell_angle_beta   90.78389099
_cell_angle_gamma   89.83298108
_symmetry_Int_Tables_number   1
_chemical_formula_structural   Cu4SiH12(CN)20
_chemical_formula_sum   'Cu12 Si3 H36 C60 N60'
_cell_volume   13495.49714161
_cell_formula_units_Z   3
loop_
 _symmetry_equiv_pos_site_id
 _symmetry_equiv_pos_as_xyz
  1  'x, y, z'
loop_
 _atom_site_type_symbol
 _atom_site_label
 _atom_site_symmetry_multiplicity
 _atom_site_fract_x
 _atom_site_fract_y
 _atom_site_fract_z
 _atom_site_occupancy
 _atom_site_pbe_bader_charge
 _atom_site_pbe_bader_spin_density
 _atom_site_pbe_cm5_charge
 _atom_site_pbe_ddec_charge
 _atom_site_pbe_ddec_spin_density
 _atom_site_pbe_ddec_sum_bond_order
 _atom_site_pbe_magmom
Cu  Cu0  1  0.18721369  0.86207171  0.77262904  1  0.547173  0  0.488142  0.204063  0  2.117308  0
Cu  Cu1  1  0.09788600  0.75994183  0.76459179  1  0.553981  0  0.488509  0.215065  0  2.080126  0
Cu  Cu2  1  0.16569795  0.78602760  0.87525993  1  0.539048  0  0.492148  0.210095  0  2.119597  0
Cu  Cu3  1  0.26801835  0.13312917  0.23361378  1  0.548093  0  0.489311  0.209403  0  2.101094  0
Cu  Cu4  1  0.16492778  0.22007273  0.22605673  1  0.536849  0  0.487669  0.20369  0  2.118268  0
Cu  Cu5  1  0.27619624  0.24379080  0.15906789  1  0.547109  0  0.493463  0.219506  0  2.092822  0
Cu  Cu6  1  0.77902113  0.12936144  0.76092953  1  0.547413  0  0.488996  0.210105  0  2.095264  0
Cu  Cu7  1  0.87460798  0.22269375  0.79162487  1  0.548039  0  0.488719  0.210469  0  2.091281  0
Cu  Cu8  1  0.76839092  0.20407292  0.86775249  1  0.54699  0  0.489033  0.208147  0  2.111702  0
Cu  Cu9  1  0.77446815  0.88709188  0.20724313  1  0.545058  0  0.488271  0.207333  0  2.106205  0
Cu  Cu10  1  0.87772535  0.79908873  0.22421541  1  0.54869  0  0.488728  0.210542  0  2.093321  0
Cu  Cu11  1  0.77924162  0.77402414  0.13755731  1  0.545323  0  0.491482  0.210261  0  2.110396  0
Si  Si12  1  0.99547761  0.48769957  0.02280448  1  3.035304  0  0.62328  1.161652  0  3.884785  0
Si  Si13  1  0.00428303  0.02032977  0.49274851  1  3.031006  0  0.622299  1.160106  0  3.885184  0
Si  Si14  1  0.48985872  0.98920283  0.97610417  1  3.039498  0  0.630306  1.167788  0  3.879993  0
H  H15  1  0.15114530  0.93299647  0.66872841  1  0.108116  0  0.122391  0.114885  0  0.984535  0
H  H16  1  0.03460420  0.79133823  0.65193833  1  0.113282  0  0.127097  0.12202  0  0.981462  0
H  H17  1  0.25825871  0.83546124  0.95890227  1  0.10163  0  0.126164  0.119555  0  0.98445  0
H  H18  1  0.30096500  0.92707220  0.81141483  1  0.101467  0  0.123014  0.117092  0  0.983631  0
H  H19  1  0.03944163  0.64133554  0.79698508  1  0.115253  0  0.126842  0.121155  0  0.981245  0
H  H20  1  0.11715009  0.69046396  0.95159971  1  0.124165  0  0.12306  0.116107  0  0.984078  0
H  H21  1  0.23057816  0.05934011  0.33728500  1  0.108548  0  0.127207  0.121568  0  0.98216  0
H  H22  1  0.08638572  0.17393425  0.32019049  1  0.089244  0  0.122298  0.114621  0  0.986558  0
H  H23  1  0.38617950  0.21614432  0.09164819  1  0.129343  0  0.127071  0.122066  0  0.981054  0
H  H24  1  0.36199852  0.05646783  0.17621233  1  0.101147  0  0.123308  0.116961  0  0.98327  0
H  H25  1  0.08002655  0.30941138  0.17083308  1  0.084788  0  0.121447  0.113797  0  0.986611  0
H  H26  1  0.23842421  0.35539930  0.09308722  1  0.114622  0  0.127442  0.121968  0  0.980669  0
H  H27  1  0.83065255  0.07905336  0.65327568  1  0.0871  0  0.123196  0.116182  0  0.984777  0
H  H28  1  0.95939634  0.20496572  0.69233844  1  0.126695  0  0.126543  0.120778  0  0.98274  0
H  H29  1  0.65700921  0.15350712  0.91836932  1  0.087197  0  0.122837  0.116399  0  0.983132  0
H  H30  1  0.66852408  0.04907702  0.77308141  1  0.113264  0  0.127202  0.12227  0  0.980596  0
H  H31  1  0.94000266  0.32055386  0.85714921  1  0.099223  0  0.123582  0.117321  0  0.982391  0
H  H32  1  0.79385411  0.29538285  0.96099641  1  0.131982  0  0.125981  0.120667  0  0.982878  0
H  H33  1  0.80096928  0.97364981  0.30386306  1  0.129835  0  0.125989  0.120325  0  0.983511  0
H  H34  1  0.94391570  0.85781338  0.32264490  1  0.112599  0  0.123287  0.116883  0  0.98343  0
H  H35  1  0.67156616  0.79173987  0.05872027  1  0.122784  0  0.127164  0.121977  0  0.982151  0
H  H36  1  0.66961189  0.95006499  0.14895962  1  0.081248  0  0.120702  0.112992  0  0.988518  0
H  H37  1  0.96123959  0.69360841  0.20097919  1  0.134744  0  0.126601  0.121084  0  0.982887  0
H  H38  1  0.82121848  0.65731687  0.08886103  1  0.090555  0  0.123279  0.116336  0  0.983083  0
H  H39  1  0.09162270  0.98892678  0.58397208  1  0.140027  0  0.13852  0.138863  0  0.97613  0
H  H40  1  0.03002382  0.10874780  0.40289369  1  0.126157  0  0.138746  0.140068  0  0.972028  0
H  H41  1  0.90201253  0.03885617  0.56831957  1  0.1426  0  0.138624  0.139377  0  0.975471  0
H  H42  1  0.98630971  0.92677108  0.40827753  1  0.134386  0  0.138148  0.138179  0  0.979427  0
H  H43  1  0.41411220  0.95267942  0.86965832  1  0.145346  0  0.136305  0.136036  0  0.99808  0
H  H44  1  0.57718426  0.98728503  0.07460888  1  0.122159  0  0.132493  0.133399  0  0.98615  0
H  H45  1  0.41175831  0.00524711  0.07456727  1  0.200416  0  0.134253  0.133856  0  1.012557  0
H  H46  1  0.57512176  0.08472598  0.95790845  1  0.165548  0  0.129826  0.123181  0  1.03111  0
H  H47  1  0.06621774  0.59511674  0.00089619  1  0.162078  0  0.138838  0.139862  0  0.974803  0
H  H48  1  0.97965633  0.40414565  0.92899010  1  0.149541  0  0.136807  0.135625  0  0.989928  0
H  H49  1  0.89043448  0.56594026  0.04508435  1  0.121739  0  0.138441  0.13992  0  0.973957  0
H  H50  1  0.02300334  0.39179851  0.10508275  1  0.128891  0  0.1373  0.137964  0  0.974293  0
C  C51  1  0.12669917  0.89414973  0.67249094  1  0.420584  0  0.007792  -0.049223  0  3.960451  0
C  C52  1  0.08185087  0.87339516  0.63969696  1  -0.039466  0  -0.035056  -0.047122  0  4.112305  0
C  C53  1  0.06727781  0.82151075  0.66406145  1  0.469454  0  0.014975  -0.034398  0  3.930318  0
C  C54  1  0.26040615  0.85360287  0.91824998  1  0.43778  0  0.015114  -0.032629  0  3.935638  0
C  C55  1  0.30071165  0.89143988  0.89712798  1  0.086282  0  -0.034024  -0.045477  0  4.112182  0
C  C56  1  0.28283941  0.90036398  0.84284484  1  0.407485  0  0.008565  -0.051028  0  3.960182  0
C  C57  1  0.06237678  0.66168820  0.83040050  1  0.375548  0  0.015872  -0.03196  0  3.927471  0
C  C58  1  0.06790956  0.64452964  0.88520341  1  0.101582  0  -0.034078  -0.046134  0  4.112469  0
C  C59  1  0.10191927  0.68661649  0.90966955  1  0.390523  0  0.007153  -0.051661  0  3.963065  0
C  C60  1  0.19995078  0.09182505  0.32542592  1  0.43609  0  0.014797  -0.033081  0  3.930698  0
C  C61  1  0.14693801  0.10477769  0.34848918  1  0.066281  0  -0.034164  -0.047001  0  4.113968  0
C  C62  1  0.12591830  0.15014734  0.31687099  1  0.387671  0  0.007687  -0.051434  0  3.964121  0
C  C63  1  0.37333629  0.18174591  0.11822746  1  0.42962  0  0.01327  -0.036384  0  3.939672  0
C  C64  1  0.39226270  0.12518919  0.11921671  1  0.009316  0  -0.034834  -0.045402  0  4.115648  0
C  C65  1  0.36073687  0.09972242  0.16088405  1  0.402351  0  0.008291  -0.050522  0  3.957638  0
C  C66  1  0.12352007  0.31340911  0.15668062  1  0.415051  0  0.007358  -0.050977  0  3.963428  0
C  C67  1  0.14660059  0.35140419  0.11876422  1  0.076439  0  -0.03343  -0.046868  0  4.1105  0
C  C68  1  0.20471464  0.33687407  0.11717943  1  0.404231  0  0.015953  -0.030348  0  3.92641  0
C  C69  1  0.85705806  0.11248580  0.67056132  1  0.416353  0  0.006756  -0.051871  0  3.962332  0
C  C70  1  0.90886759  0.13484429  0.65232155  1  0.074428  0  -0.03381  -0.045655  0  4.111693  0
C  C71  1  0.92262694  0.17710716  0.69072101  1  0.399649  0  0.014599  -0.034247  0  3.930463  0
C  C72  1  0.66808667  0.13282267  0.88031269  1  0.446811  0  0.007712  -0.050315  0  3.958762  0
C  C73  1  0.64123417  0.08771235  0.85274533  1  0.048301  0  -0.033572  -0.044785  0  4.106041  0
C  C74  1  0.67400807  0.07976423  0.80576929  1  0.430372  0  0.015175  -0.035091  0  3.93067  0
C  C75  1  0.90100549  0.30709736  0.87668936  1  0.397511  0  0.00862  -0.049263  0  3.954095  0
C  C76  1  0.87584225  0.32670419  0.92494530  1  0.091703  0  -0.034413  -0.04612  0  4.109924  0
C  C77  1  0.82610558  0.29413431  0.92964348  1  0.401051  0  0.014104  -0.035691  0  3.933882  0
C  C78  1  0.83236844  0.93992050  0.30077117  1  0.421487  0  0.013979  -0.034839  0  3.934933  0
C  C79  1  0.88150883  0.93012916  0.33282565  1  0.045493  0  -0.034053  -0.044762  0  4.113062  0
C  C80  1  0.90563628  0.88085539  0.31047732  1  0.380708  0  0.008571  -0.050439  0  3.957278  0
C  C81  1  0.67918121  0.82703783  0.08629821  1  0.416533  0  0.01578  -0.032527  0  3.93021  0
C  C82  1  0.65001897  0.87907568  0.08948657  1  0.106268  0  -0.034197  -0.047018  0  4.115171  0
C  C83  1  0.67788443  0.90828608  0.13207751  1  0.401945  0  0.006218  -0.053396  0  3.966013  0
C  C84  1  0.92212195  0.69327136  0.17677650  1  0.439326  0  0.015714  -0.033119  0  3.929276  0
C  C85  1  0.90403676  0.65379013  0.13718373  1  0.075704  0  -0.035198  -0.048273  0  4.115144  0
C  C86  1  0.85078369  0.67436372  0.11915544  1  0.381452  0  0.00787  -0.04998  0  3.959223  0
C  C87  1  0.05456546  0.90105472  0.59343897  1  0.488805  0  0.093075  0.127211  0  4.070161  0
C  C88  1  0.06248370  0.95510103  0.57279158  1  0.324107  0  0.029274  -0.079893  0  3.894747  0
C  C89  1  0.12028360  0.07657672  0.39396036  1  0.495958  0  0.092735  0.126685  0  4.075366  0
C  C90  1  0.06590866  0.08203482  0.41456764  1  0.296579  0  0.028016  -0.083185  0  3.891695  0
C  C91  1  0.94204735  0.11702919  0.60592847  1  0.418979  0  0.09238  0.126444  0  4.070679  0
C  C92  1  0.93449453  0.07143777  0.57103754  1  0.320516  0  0.028696  -0.08106  0  3.89027  0
C  C93  1  0.90244741  0.96356750  0.37837091  1  0.426646  0  0.09058  0.124783  0  4.072801  0
C  C94  1  0.95191159  0.95756585  0.40916312  1  0.329476  0  0.029363  -0.080485  0  3.901357  0
C  C95  1  0.34904457  0.91460214  0.92690901  1  0.443994  0  0.093102  0.121984  0  4.065627  0
C  C96  1  0.39777933  0.94200946  0.90956484  1  0.366516  0  0.034344  -0.064462  0  3.859874  0
C  C97  1  0.60302324  0.89717137  0.05469768  1  0.432223  0  0.08952  0.1248  0  4.078803  0
C  C98  1  0.57359081  0.94806472  0.05167655  1  0.288654  0  0.019742  -0.094806  0  3.909867  0
C  C99  1  0.43074207  0.09927223  0.08079337  1  0.479006  0  0.090999  0.126216  0  4.076701  0
C  C100  1  0.43442158  0.04353007  0.06349382  1  0.245915  0  0.025414  -0.08362  0  3.886389  0
C  C101  1  0.59262668  0.05580436  0.87163000  1  0.46274  0  0.092118  0.128747  0  4.065743  0
C  C102  1  0.56753952  0.05840308  0.92228220  1  0.29549  0  0.025074  -0.083882  0  3.900446  0
C  C103  1  0.04327704  0.59520821  0.91086000  1  0.436017  0  0.092872  0.126896  0  4.072056  0
C  C104  1  0.04524538  0.57783974  0.96484790  1  0.300187  0  0.029978  -0.080516  0  3.894263  0
C  C105  1  0.89623778  0.37103000  0.96110839  1  0.392947  0  0.090707  0.126244  0  4.068508  0
C  C106  1  0.94540944  0.40299508  0.95823039  1  0.346932  0  0.029188  -0.079611  0  3.900646  0
C  C107  1  0.93546890  0.60487056  0.11816427  1  0.396494  0  0.092419  0.125058  0  4.074107  0
C  C108  1  0.92506306  0.56854518  0.07478203  1  0.368155  0  0.028169  -0.081154  0  3.890949  0
C  C109  1  0.11722973  0.39470859  0.08713571  1  0.395848  0  0.092253  0.126833  0  4.073739  0
C  C110  1  0.05988734  0.40845231  0.08424609  1  0.3797  0  0.027552  -0.08415  0  3.899664  0
N  N111  1  0.10091543  0.81238165  0.70839688  1  -0.767938  0  -0.332101  -0.138343  0  3.748511  0
N  N112  1  0.13784041  0.85742162  0.71352200  1  -0.780776  0  -0.337255  -0.139196  0  3.77342  0
N  N113  1  0.23530750  0.86982590  0.83244189  1  -0.778325  0  -0.33673  -0.137603  0  3.768482  0
N  N114  1  0.22155262  0.84081168  0.87918485  1  -0.777692  0  -0.337854  -0.139984  0  3.767986  0
N  N115  1  0.11556096  0.72600528  0.87214323  1  -0.776973  0  -0.337505  -0.137939  0  3.77451  0
N  N116  1  0.09104974  0.71059626  0.82296896  1  -0.769571  0  -0.332769  -0.140571  0  3.751562  0
N  N117  1  0.16372279  0.16320140  0.27784002  1  -0.76693  0  -0.337026  -0.136928  0  3.770912  0
N  N118  1  0.20959674  0.12698910  0.28310809  1  -0.772757  0  -0.333901  -0.13812  0  3.757955  0
N  N119  1  0.32524793  0.13842724  0.18285313  1  -0.765723  0  -0.335101  -0.137345  0  3.765433  0
N  N120  1  0.33290907  0.18924997  0.15621179  1  -0.764292  0  -0.336465  -0.143036  0  3.749913  0
N  N121  1  0.21525865  0.29328824  0.15165908  1  -0.778604  0  -0.334579  -0.142679  0  3.753108  0
N  N122  1  0.16489709  0.27876743  0.17616908  1  -0.773587  0  -0.337827  -0.138387  0  3.776131  0
N  N123  1  0.88186485  0.17953262  0.72903810  1  -0.763171  0  -0.332951  -0.137821  0  3.755247  0
N  N124  1  0.84114823  0.13950219  0.71647015  1  -0.769222  0  -0.335022  -0.137567  0  3.771204  0
N  N125  1  0.71737497  0.11738749  0.80569742  1  -0.765712  0  -0.333938  -0.139659  0  3.754918  0
N  N126  1  0.71359473  0.15026918  0.85191352  1  -0.7934  0  -0.337451  -0.138428  0  3.778756  0
N  N127  1  0.82208387  0.25784869  0.88713235  1  -0.775776  0  -0.335927  -0.140101  0  3.761473  0
N  N128  1  0.86849476  0.26587376  0.85429047  1  -0.773306  0  -0.334307  -0.136748  0  3.765678  0
N  N129  1  0.87314337  0.86263752  0.26815416  1  -0.776326  0  -0.335213  -0.137438  0  3.766737  0
N  N130  1  0.82775532  0.89933130  0.26211788  1  -0.762779  0  -0.335156  -0.139492  0  3.763846  0
N  N131  1  0.72064566  0.87593295  0.15262132  1  -0.772196  0  -0.336986  -0.138589  0  3.771055  0
N  N132  1  0.72140456  0.82561564  0.12417593  1  -0.781896  0  -0.335449  -0.137499  0  3.764434  0
N  N133  1  0.83820388  0.72267125  0.14602900  1  -0.755975  0  -0.336617  -0.138374  0  3.772901  0
N  N134  1  0.88243882  0.73443137  0.18170264  1  -0.790783  0  -0.333407  -0.137515  0  3.756081  0
N  N135  1  0.99267497  0.91030673  0.52570614  1  -0.089424  0  -0.088973  -0.069861  0  3.167536  0
N  N136  1  0.01161764  0.87574640  0.56288709  1  -0.531793  0  -0.192411  -0.187785  0  3.214196  0
N  N137  1  0.02389108  0.96052975  0.53071468  1  -1.164166  0  -0.192189  -0.257946  0  3.764886  0
N  N138  1  0.11541835  0.01568670  0.46182140  1  -0.084083  0  -0.086156  -0.064101  0  3.16381  0
N  N139  1  0.14850823  0.03561538  0.42460362  1  -0.526862  0  -0.19089  -0.187165  0  3.214383  0
N  N140  1  0.06328614  0.04405107  0.45679479  1  -1.15869  0  -0.190107  -0.256039  0  3.768102  0
N  N141  1  0.01398481  0.11966193  0.54918070  1  -0.071592  0  -0.089599  -0.067642  0  3.150932  0
N  N142  1  0.99109103  0.14498259  0.59039694  1  -0.525605  0  -0.190442  -0.186099  0  3.210911  0
N  N143  1  0.97923401  0.07350727  0.53568842  1  -1.162068  0  -0.191754  -0.258824  0  3.759588  0
N  N144  1  0.90098723  0.03243493  0.43909263  1  -0.073791  0  -0.091825  -0.07042  0  3.156654  0
N  N145  1  0.87304957  0.00987773  0.39859541  1  -0.518764  0  -0.192961  -0.189337  0  3.21175  0
N  N146  1  0.95056587  0.00038181  0.44687878  1  -1.154283  0  -0.192661  -0.259815  0  3.774984  0
N  N147  1  0.39874741  0.93314509  0.00124460  1  -0.115315  0  -0.081727  -0.073106  0  3.202052  0
N  N148  1  0.35199841  0.91040903  0.98324564  1  -0.554045  0  -0.189781  -0.185841  0  3.211888  0
N  N149  1  0.42820441  0.95341672  0.95636651  1  -1.156352  0  -0.185253  -0.244633  0  3.747243  0
N  N150  1  0.53956170  0.88687593  0.98852609  1  -0.094197  0  -0.080405  -0.047679  0  3.147959  0
N  N151  1  0.58029611  0.86144539  0.01514870  1  -0.490196  0  -0.187186  -0.185615  0  3.19911  0
N  N152  1  0.53396385  0.94090517  0.01054440  1  -1.14284  0  -0.19216  -0.263862  0  3.782255  0
N  N153  1  0.49324521  0.09889906  0.01486854  1  -0.111935  0  -0.086177  -0.065039  0  3.192481  0
N  N154  1  0.46787628  0.13102994  0.04993408  1  -0.504703  0  -0.194371  -0.193879  0  3.217438  0
N  N155  1  0.47330445  0.04370989  0.02218306  1  -1.158725  0  -0.191687  -0.256449  0  3.735011  0
N  N156  1  0.52320769  0.99323196  0.86945829  1  -0.095122  0  -0.082994  -0.062508  0  3.142376  0
N  N157  1  0.56364829  0.01553827  0.84099803  1  -0.521174  0  -0.19047  -0.187257  0  3.195499  0
N  N158  1  0.52403618  0.01972782  0.92056138  1  -1.179883  0  -0.191993  -0.25428  0  3.725485  0
N  N159  1  0.99286040  0.51679926  0.91431210  1  -0.097031  0  -0.086199  -0.065066  0  3.174187  0
N  N160  1  0.01085694  0.55617469  0.88201620  1  -0.504892  0  -0.191555  -0.188528  0  3.213276  0
N  N161  1  0.01365155  0.52917465  0.96664026  1  -1.162571  0  -0.191396  -0.257117  0  3.766997  0
N  N162  1  0.89378495  0.42981283  0.03097578  1  -0.112406  0  -0.093764  -0.074592  0  3.154391  0
N  N163  1  0.86646005  0.38930133  0.00630545  1  -0.495768  0  -0.193458  -0.18917  0  3.211585  0
N  N164  1  0.94347350  0.43956221  0.00160439  1  -1.162338  0  -0.193632  -0.258979  0  3.766615  0
N  N165  1  0.00792930  0.54538496  0.11724142  1  -0.082165  0  -0.085969  -0.063547  0  3.154907  0
N  N166  1  0.98649926  0.58843425  0.14257725  1  -0.515356  0  -0.190223  -0.186292  0  3.214962  0
N  N167  1  0.97016623  0.53139885  0.07462894  1  -1.169593  0  -0.191885  -0.261195  0  3.751137  0
N  N168  1  0.10965380  0.46393138  0.02711357  1  -0.085686  0  -0.085335  -0.060227  0  3.155925  0
N  N169  1  0.14541935  0.43004606  0.05136560  1  -0.520539  0  -0.190547  -0.187045  0  3.208133  0
N  N170  1  0.05560217  0.45137026  0.04672779  1  -1.143435  0  -0.191356  -0.259301  0  3.785105  0
