# generated using pymatgen
data_AgH6C7NO2
_symmetry_space_group_name_H-M   'P 1'
_cell_length_a   5.41299206
_cell_length_b   7.62003834
_cell_length_c   16.96179489
_cell_angle_alpha   90.00033874
_cell_angle_beta   89.99876099
_cell_angle_gamma   93.41359529
_symmetry_Int_Tables_number   1
_chemical_formula_structural   AgH6C7NO2
_chemical_formula_sum   'Ag4 H24 C28 N4 O8'
_cell_volume   698.38533768
_cell_formula_units_Z   4
loop_
 _symmetry_equiv_pos_site_id
 _symmetry_equiv_pos_as_xyz
  1  'x, y, z'
loop_
 _atom_site_type_symbol
 _atom_site_label
 _atom_site_symmetry_multiplicity
 _atom_site_fract_x
 _atom_site_fract_y
 _atom_site_fract_z
 _atom_site_occupancy
 _atom_site_hle17_bader_spin_density
 _atom_site_hle17_ddec_charge
 _atom_site_hle17_ddec_spin_density
 _atom_site_hle17_ddec_sum_bond_order
 _atom_site_hle17_magmom
 _atom_site_hse06_10hf_bader_spin_density
 _atom_site_hse06_10hf_ddec_charge
 _atom_site_hse06_10hf_ddec_spin_density
 _atom_site_hse06_10hf_ddec_sum_bond_order
 _atom_site_hse06_10hf_magmom
 _atom_site_hse06_bader_spin_density
 _atom_site_hse06_ddec_charge
 _atom_site_hse06_ddec_spin_density
 _atom_site_hse06_ddec_sum_bond_order
 _atom_site_hse06_magmom
 _atom_site_pbe_bader_spin_density
 _atom_site_pbe_cm5_charge
 _atom_site_pbe_ddec_charge
 _atom_site_pbe_ddec_spin_density
 _atom_site_pbe_ddec_sum_bond_order
 _atom_site_pbe_magmom
Ag  Ag0  1  0.10681885  0.94939274  0.72213553  1  0  0.553914  0  1.434218  0  0  0.4348  0  1.905232  0  0  0.472236  0  1.837978  0  0  0.396398  0.408542  0  1.951949  0
Ag  Ag1  1  0.39318647  0.05058867  0.22213805  1  0  0.553914  0  1.434259  0  0  0.434803  0  1.905293  0  0  0.472242  0  1.838038  0  0  0.396398  0.408533  0  1.952016  0
Ag  Ag2  1  0.89319427  0.05060557  0.27786525  1  0  0.553924  0  1.434289  0  0  0.43483  0  1.905305  0  0  0.472265  0  1.838051  0  0  0.396411  0.408569  0  1.952024  0
Ag  Ag3  1  0.60682436  0.94940573  0.77786391  1  0  0.553881  0  1.434282  0  0  0.434761  0  1.905323  0  0  0.472199  0  1.838067  0  0  0.396388  0.408499  0  1.952046  0
H  H4  1  0.80631685  0.32372232  0.43433693  1  0  0.095068  0  0.957678  0  0  0.103907  0  1.024393  0  0  0.107276  0  1.02171  0  0  0.098862  0.10143  0  1.026452  0
H  H5  1  0.69370066  0.67625098  0.93433140  1  0  0.095167  0  0.957856  0  0  0.104022  0  1.024544  0  0  0.107384  0  1.021875  0  0  0.098935  0.101544  0  1.026607  0
H  H6  1  0.19367359  0.67630398  0.56566444  1  0  0.095077  0  0.957559  0  0  0.103926  0  1.024302  0  0  0.107296  0  1.021615  0  0  0.098852  0.101448  0  1.026356  0
H  H7  1  0.30631236  0.32373022  0.06566644  1  0  0.095048  0  0.957648  0  0  0.103888  0  1.024383  0  0  0.107257  0  1.021698  0  0  0.098874  0.101413  0  1.026435  0
H  H8  1  0.90428491  0.46746285  0.56417979  1  0  0.082451  0  0.969012  0  0  0.095872  0  1.0273  0  0  0.097706  0  1.027083  0  0  0.099686  0.094552  0  1.027519  0
H  H9  1  0.59567924  0.53253143  0.06417420  1  0  0.082428  0  0.968937  0  0  0.096065  0  1.026986  0  0  0.097837  0  1.026846  0  0  0.099822  0.094741  0  1.027219  0
H  H10  1  0.09570064  0.53255300  0.43582277  1  0  0.082396  0  0.968946  0  0  0.095795  0  1.027282  0  0  0.097625  0  1.027067  0  0  0.099672  0.094483  0  1.027505  0
H  H11  1  0.40433349  0.46744714  0.93582127  1  0  0.082337  0  0.969024  0  0  0.095859  0  1.027227  0  0  0.097688  0  1.027014  0  0  0.099752  0.094554  0  1.027432  0
H  H12  1  0.60018947  0.44230109  0.67359602  1  0  0.091114  0  0.95548  0  0  0.10689  0  1.00891  0  0  0.110214  0  1.006693  0  0  0.097586  0.104403  0  1.010756  0
H  H13  1  0.89975195  0.55769457  0.17359330  1  0  0.091016  0  0.955577  0  0  0.106783  0  1.009037  0  0  0.110098  0  1.006825  0  0  0.097497  0.104318  0  1.01086  0
H  H14  1  0.39980072  0.55770678  0.32640653  1  0  0.091183  0  0.955473  0  0  0.106952  0  1.008913  0  0  0.110276  0  1.006696  0  0  0.097577  0.104467  0  1.010757  0
H  H15  1  0.10026063  0.44228268  0.82640335  1  0  0.091045  0  0.955604  0  0  0.10687  0  1.008985  0  0  0.110185  0  1.006774  0  0  0.097555  0.104406  0  1.010812  0
H  H16  1  0.11469812  0.11136387  0.52827760  1  0  0.12698  0  0.963018  0  0  0.134443  0  1.028721  0  0  0.138704  0  1.02563  0  0  0.108132  0.131328  0  1.031127  0
H  H17  1  0.38528901  0.88862387  0.02827228  1  0  0.126989  0  0.963014  0  0  0.13447  0  1.028726  0  0  0.138727  0  1.025645  0  0  0.108144  0.131354  0  1.031134  0
H  H18  1  0.88530099  0.88864124  0.47172201  1  0  0.126978  0  0.963035  0  0  0.134432  0  1.028747  0  0  0.138694  0  1.025654  0  0  0.108152  0.131317  0  1.031151  0
H  H19  1  0.61470471  0.11138263  0.97172968  1  0  0.127074  0  0.963013  0  0  0.134549  0  1.028719  0  0  0.138808  0  1.025634  0  0  0.108192  0.131433  0  1.031124  0
H  H20  1  0.99314942  0.23527871  0.65208147  1  0  0.298423  0  0.924041  0  0  0.287196  0  0.985839  0  0  0.292409  0  0.983285  0  0  0.292114  0.283472  0  0.987685  0
H  H21  1  0.50681352  0.76468087  0.15207939  1  0  0.298479  0  0.923902  0  0  0.287265  0  0.985664  0  0  0.292476  0  0.983113  0  0  0.292077  0.283542  0  0.987513  0
H  H22  1  0.00685418  0.76471711  0.34792286  1  0  0.298402  0  0.924021  0  0  0.287165  0  0.985848  0  0  0.292378  0  0.983293  0  0  0.292058  0.283441  0  0.987695  0
H  H23  1  0.49318425  0.23531240  0.84791962  1  0  0.298421  0  0.923843  0  0  0.287207  0  0.985624  0  0  0.292417  0  0.983074  0  0  0.292008  0.283484  0  0.987474  0
H  H24  1  0.19641516  0.33127744  0.71544944  1  0  0.286233  0  0.910622  0  0  0.282755  0  0.95768  0  0  0.287199  0  0.955494  0  0  0.296848  0.279596  0  0.95923  0
H  H25  1  0.30352070  0.66870628  0.21544820  1  0  0.286304  0  0.910586  0  0  0.282839  0  0.957623  0  0  0.287284  0  0.955435  0  0  0.296897  0.27968  0  0.959172  0
H  H26  1  0.80358903  0.66872364  0.28455134  1  0  0.286219  0  0.910703  0  0  0.282746  0  0.957744  0  0  0.287191  0  0.955557  0  0  0.296845  0.279585  0  0.959294  0
H  H27  1  0.69648938  0.33128154  0.78454904  1  0  0.286269  0  0.910725  0  0  0.282802  0  0.957752  0  0  0.287246  0  0.955565  0  0  0.296904  0.279642  0  0.959301  0
C  C28  1  0.67900690  0.30883923  0.48383738  1  0  -0.072051  0  3.720379  0  0  -0.103017  0  3.977193  0  0  -0.103964  0  3.997931  0  0  -0.089016  -0.102273  0  3.963106  0
C  C29  1  0.82098148  0.69113762  0.98383109  1  0  -0.072215  0  3.720488  0  0  -0.103294  0  3.977471  0  0  -0.104229  0  3.998208  0  0  -0.089092  -0.102563  0  3.963419  0
C  C30  1  0.32098573  0.69117387  0.51616222  1  0  -0.072119  0  3.72063  0  0  -0.103173  0  3.977533  0  0  -0.104117  0  3.998261  0  0  -0.089025  -0.102422  0  3.963441  0
C  C31  1  0.17901724  0.30884775  0.01616144  1  0  -0.072131  0  3.720863  0  0  -0.103144  0  3.977783  0  0  -0.104084  0  3.998532  0  0  -0.089114  -0.102404  0  3.96371  0
C  C32  1  0.73329926  0.38652117  0.55662560  1  0  -0.062016  0  3.80361  0  0  -0.072573  0  4.055087  0  0  -0.073651  0  4.07727  0  0  -0.093517  -0.071753  0  4.039934  0
C  C33  1  0.76668772  0.61347401  0.05662327  1  0  -0.061965  0  3.803899  0  0  -0.072658  0  4.055447  0  0  -0.073698  0  4.077655  0  0  -0.093605  -0.071853  0  4.040318  0
C  C34  1  0.26669028  0.61349725  0.44337932  1  0  -0.061826  0  3.803586  0  0  -0.072342  0  4.055099  0  0  -0.073415  0  4.077279  0  0  -0.09349  -0.071536  0  4.039949  0
C  C35  1  0.23333253  0.38650577  0.94337928  1  0  -0.061848  0  3.803783  0  0  -0.072497  0  4.055369  0  0  -0.073585  0  4.077575  0  0  -0.093576  -0.071692  0  4.040237  0
C  C36  1  0.56561642  0.36826177  0.61911418  1  0  -0.181894  0  3.7409  0  0  -0.201435  0  3.992484  0  0  -0.20569  0  4.012357  0  0  -0.103282  -0.19849  0  3.979187  0
C  C37  1  0.93432742  0.63173597  0.11910908  1  0  -0.181666  0  3.741211  0  0  -0.201254  0  3.992816  0  0  -0.205494  0  4.012687  0  0  -0.103191  -0.198322  0  3.97951  0
C  C38  1  0.43437037  0.63174879  0.38088542  1  0  -0.181974  0  3.7408  0  0  -0.201529  0  3.992379  0  0  -0.205783  0  4.012248  0  0  -0.103185  -0.198581  0  3.979088  0
C  C39  1  0.06567743  0.36825457  0.88088286  1  0  -0.181581  0  3.740608  0  0  -0.201223  0  3.992168  0  0  -0.205467  0  4.012053  0  0  -0.103093  -0.198303  0  3.978878  0
C  C40  1  0.34402127  0.26616869  0.60930093  1  0  0.276208  0  3.80937  0  0  0.2758  0  4.058058  0  0  0.282101  0  4.081545  0  0  0.079826  0.271303  0  4.042105  0
C  C41  1  0.15593812  0.73382288  0.10930373  1  0  0.275852  0  3.809376  0  0  0.275548  0  4.057989  0  0  0.281844  0  4.081482  0  0  0.079823  0.27105  0  4.042057  0
C  C42  1  0.65597629  0.73383908  0.39070162  1  0  0.276125  0  3.809608  0  0  0.275748  0  4.058229  0  0  0.282051  0  4.081714  0  0  0.079755  0.271248  0  4.042281  0
C  C43  1  0.84405720  0.26616517  0.89070059  1  0  0.275789  0  3.809837  0  0  0.275524  0  4.058404  0  0  0.281822  0  4.081895  0  0  0.079731  0.271025  0  4.042471  0
C  C44  1  0.28863472  0.18869551  0.53625272  1  0  -0.166442  0  3.657232  0  0  -0.194137  0  3.900081  0  0  -0.197765  0  3.920394  0  0  -0.090432  -0.191586  0  3.88649  0
C  C45  1  0.21133030  0.81129791  0.03624889  1  0  -0.166503  0  3.657443  0  0  -0.194254  0  3.90026  0  0  -0.197884  0  3.920622  0  0  -0.09047  -0.191674  0  3.886591  0
C  C46  1  0.71136056  0.81130833  0.46374629  1  0  -0.166435  0  3.65754  0  0  -0.194113  0  3.900326  0  0  -0.197742  0  3.920641  0  0  -0.090474  -0.191564  0  3.886739  0
C  C47  1  0.78866143  0.18870731  0.96374895  1  0  -0.166608  0  3.657676  0  0  -0.194354  0  3.90048  0  0  -0.197986  0  3.920828  0  0  -0.090517  -0.191781  0  3.886826  0
C  C48  1  0.45223107  0.21374332  0.47303605  1  0  -0.038233  0  3.758153  0  0  -0.010623  0  3.984626  0  0  -0.017111  0  4.007777  0  0  -0.015179  -0.006487  0  3.969255  0
C  C49  1  0.04777074  0.78624054  0.97303349  1  0  -0.038041  0  3.758077  0  0  -0.010399  0  3.984592  0  0  -0.016867  0  4.007685  0  0  -0.015117  -0.006256  0  3.969236  0
C  C50  1  0.54776451  0.78626315  0.52696532  1  0  -0.038294  0  3.758175  0  0  -0.010645  0  3.984601  0  0  -0.01714  0  4.007774  0  0  -0.01521  -0.006512  0  3.969232  0
C  C51  1  0.95223470  0.21375526  0.02696848  1  0  -0.038143  0  3.758031  0  0  -0.010518  0  3.984571  0  0  -0.016995  0  4.007682  0  0  -0.01509  -0.006377  0  3.969213  0
C  C52  1  0.37191618  0.14799760  0.39301167  1  0  0.641331  0  3.908917  0  0  0.590133  0  4.19167  0  0  0.625371  0  4.187917  0  0  0.199414  0.566135  0  4.193151  0
C  C53  1  0.12809610  0.85197744  0.89300582  1  0  0.641504  0  3.908505  0  0  0.590294  0  4.19127  0  0  0.625541  0  4.187538  0  0  0.199455  0.566274  0  4.192788  0
C  C54  1  0.62808583  0.85201668  0.60698794  1  0  0.641274  0  3.908975  0  0  0.590085  0  4.191715  0  0  0.625323  0  4.187964  0  0  0.199373  0.566089  0  4.193192  0
C  C55  1  0.87189813  0.14801721  0.10699143  1  0  0.641684  0  3.908399  0  0  0.590427  0  4.191229  0  0  0.625675  0  4.187482  0  0  0.199494  0.566423  0  4.192731  0
N  N56  1  0.17207442  0.23946046  0.67205895  1  0  -0.645863  0  3.19833  0  0  -0.595847  0  3.442982  0  0  -0.616803  0  3.443147  0  0  -0.609344  -0.581009  0  3.442443  0
N  N57  1  0.32787995  0.76052783  0.17205838  1  0  -0.645902  0  3.19828  0  0  -0.595908  0  3.44289  0  0  -0.616863  0  3.443053  0  0  -0.609408  -0.581067  0  3.44235  0
N  N58  1  0.82792040  0.76053944  0.32794066  1  0  -0.645798  0  3.198324  0  0  -0.595781  0  3.442934  0  0  -0.616738  0  3.4431  0  0  -0.609271  -0.580941  0  3.442391  0
N  N59  1  0.67212749  0.23946925  0.82793946  1  0  -0.645747  0  3.198311  0  0  -0.595769  0  3.442901  0  0  -0.616723  0  3.443065  0  0  -0.60928  -0.580926  0  3.44236  0
O  O60  1  0.51092516  0.19452527  0.33401046  1  0  -0.657336  0  2.096246  0  0  -0.574524  0  2.369525  0  0  -0.607991  0  2.354734  0  0  -0.344365  -0.551055  0  2.378825  0
O  O61  1  0.98911197  0.80544151  0.83400694  1  0  -0.657384  0  2.096261  0  0  -0.574536  0  2.369484  0  0  -0.60799  0  2.354656  0  0  -0.34432  -0.551076  0  2.378821  0
O  O62  1  0.48907794  0.80548241  0.66599032  1  0  -0.657281  0  2.096306  0  0  -0.574465  0  2.369573  0  0  -0.607932  0  2.354776  0  0  -0.344315  -0.550997  0  2.378874  0
O  O63  1  0.01088520  0.19454651  0.16599090  1  0  -0.657497  0  2.096234  0  0  -0.574641  0  2.369496  0  0  -0.608095  0  2.354663  0  0  -0.344359  -0.551183  0  2.378818  0
O  O64  1  0.16810255  0.05811731  0.38820728  1  0  -0.627887  0  2.056407  0  0  -0.55965  0  2.317351  0  0  -0.590256  0  2.308411  0  0  -0.323748  -0.538116  0  2.322673  0
O  O65  1  0.33192234  0.94186802  0.88820686  1  0  -0.627981  0  2.05607  0  0  -0.559754  0  2.317057  0  0  -0.590372  0  2.308117  0  0  -0.323839  -0.53821  0  2.322381  0
O  O66  1  0.83189083  0.94190236  0.61179232  1  0  -0.627832  0  2.056401  0  0  -0.559591  0  2.317305  0  0  -0.590193  0  2.308366  0  0  -0.323703  -0.53806  0  2.322628  0
O  O67  1  0.66807478  0.05813580  0.11179156  1  0  -0.62801  0  2.056016  0  0  -0.559803  0  2.317088  0  0  -0.59042  0  2.308147  0  0  -0.323878  -0.538254  0  2.322378  0
