# generated using pymatgen
data_CuH16C22N6(O5F2)2
_symmetry_space_group_name_H-M   'P 1'
_cell_length_a   7.80946882
_cell_length_b   8.07779801
_cell_length_c   11.05991203
_cell_angle_alpha   86.86193163
_cell_angle_beta   71.06992475
_cell_angle_gamma   65.45389224
_symmetry_Int_Tables_number   1
_chemical_formula_structural   CuH16C22N6(O5F2)2
_chemical_formula_sum   'Cu1 H16 C22 N6 O10 F4'
_cell_volume   597.71643213
_cell_formula_units_Z   1
loop_
 _symmetry_equiv_pos_site_id
 _symmetry_equiv_pos_as_xyz
  1  'x, y, z'
loop_
 _atom_site_type_symbol
 _atom_site_label
 _atom_site_symmetry_multiplicity
 _atom_site_fract_x
 _atom_site_fract_y
 _atom_site_fract_z
 _atom_site_occupancy
 _atom_site_hle17_ddec_charge
 _atom_site_hle17_ddec_spin_density
 _atom_site_hle17_ddec_sum_bond_order
 _atom_site_hle17_magmom
 _atom_site_hse06_10hf_ddec_charge
 _atom_site_hse06_10hf_ddec_spin_density
 _atom_site_hse06_10hf_ddec_sum_bond_order
 _atom_site_hse06_10hf_magmom
 _atom_site_hse06_ddec_charge
 _atom_site_hse06_ddec_spin_density
 _atom_site_hse06_ddec_sum_bond_order
 _atom_site_hse06_magmom
 _atom_site_pbe_cm5_charge
 _atom_site_pbe_ddec_charge
 _atom_site_pbe_ddec_spin_density
 _atom_site_pbe_ddec_sum_bond_order
 _atom_site_pbe_magmom
Cu  Cu0  1  0.99999989  0.50000004  0.00000019  1  0.883041  0.695486  1.813192  0.526  0.863672  0.786147  2.19908  0.643  0.953367  0.848075  2.132887  0.726  0.743815  0.806847  0.740894  2.245249  0.586
H  H1  1  0.31668124  0.68836433  0.94239822  1  0.104616  -0.000187  0.95998  0.0  0.114421  -4e-05  1.018191  0.0  0.116539  -4.8e-05  1.015819  0.0  0.137045  0.112614  -3.4e-05  1.020144  0.0
H  H2  1  0.68331862  0.31163440  0.05760266  1  0.10462  -0.000198  0.959989  0.0  0.114424  -4.1e-05  1.018204  0.0  0.116542  -4.9e-05  1.015833  0.0  0.137045  0.112618  -3.4e-05  1.020157  0.0
H  H3  1  0.75004756  0.83468235  0.22279944  1  0.117  -0.000188  0.929671  0.0  0.127547  -1e-05  0.988717  0.0  0.130366  -4e-06  0.984742  0.0  0.148687  0.125319  -1.2e-05  0.991603  0.0
H  H4  1  0.24995101  0.16531913  0.77719983  1  0.11701  -0.000178  0.929669  0.0  0.127555  -1e-05  0.988719  0.0  0.130374  -4e-06  0.984744  0.0  0.148698  0.125328  -1.2e-05  0.991605  0.0
H  H5  1  0.70819002  0.14669050  0.30426032  1  0.10718  -4.2e-05  0.921484  0.0  0.114633  3e-06  0.990661  0.0  0.116333  -3e-06  0.989348  0.0  0.120385  0.113355  7e-06  0.99171  0.0
H  H6  1  0.29181195  0.85330959  0.69574182  1  0.107179  -5.5e-05  0.921476  0.0  0.114623  3e-06  0.990658  0.0  0.116323  -3e-06  0.989344  0.0  0.120365  0.113347  7e-06  0.991708  0.0
H  H7  1  0.90536894  0.21403896  0.23333393  1  0.121471  0.000267  0.955096  0.0  0.128387  0.000229  1.024162  0.0  0.131637  0.000123  1.021576  0.0  0.122219  0.125977  0.000337  1.026244  0.0
H  H8  1  0.09463021  0.78595840  0.76666717  1  0.12143  0.000252  0.955099  0.0  0.128368  0.000229  1.024119  0.0  0.131617  0.000123  1.021534  0.0  0.1222  0.125957  0.000337  1.026208  0.0
H  H9  1  0.18932071  0.45060443  0.57771311  1  0.130995  0.000109  0.951563  0.0  0.134838  0.000139  1.02086  0.0  0.139179  8e-05  1.017511  0.0  0.109295  0.131646  0.00018  1.023499  0.0
H  H10  1  0.81067783  0.54939705  0.42228525  1  0.131006  0.000119  0.951515  0.0  0.134813  0.00014  1.020835  0.0  0.139153  8e-05  1.017492  0.0  0.109271  0.131621  0.00018  1.023474  0.0
H  H11  1  0.64825218  0.65206092  0.83415839  1  0.427043  4.3e-05  0.847919  0.0  0.39721  3e-05  0.922353  0.0  0.408939  3.7e-05  0.909616  0.0  0.303909  0.388403  2.5e-05  0.931945  0.0
H  H12  1  0.35174763  0.34793783  0.16583978  1  0.427032  4.3e-05  0.847927  0.0  0.397191  3e-05  0.922376  0.0  0.408921  3.7e-05  0.909638  0.0  0.303892  0.388385  2.5e-05  0.931964  0.0
H  H13  1  0.29257931  0.15170351  0.06652253  1  0.423515  8.7e-05  0.838051  0.0  0.392574  5.7e-05  0.919171  0.0  0.402799  4.4e-05  0.903802  0.0  0.304694  0.385307  8.1e-05  0.93014  0.0
H  H14  1  0.70742123  0.84829661  0.93347632  1  0.42357  8.4e-05  0.838088  0.0  0.392629  5.7e-05  0.919119  0.0  0.402855  4.4e-05  0.903749  0.0  0.304726  0.385363  8.1e-05  0.930087  0.0
H  H15  1  0.38610482  0.26092689  0.95790265  1  0.420312  -0.000132  0.888723  0.0  0.386412  -0.000132  0.957894  0.0  0.39801  -0.000158  0.94107  0.0  0.281851  0.377781  -8.2e-05  0.970413  0.0
H  H16  1  0.61389436  0.73907323  0.04209562  1  0.420289  -0.000133  0.88876  0.0  0.386379  -0.000132  0.957929  0.0  0.397978  -0.000158  0.941105  0.0  0.281836  0.377747  -8.2e-05  0.970449  0.0
C  C17  1  0.18243018  0.75851950  0.02336890  1  0.211609  -0.004121  3.657363  -0.002  0.161087  -0.001132  3.949464  0.0  0.174825  -0.001806  3.961989  -0.001  0.147473  0.152444  -0.000657  3.940891  0.001
C  C18  1  0.81757040  0.24148060  0.97663176  1  0.211625  -0.004066  3.657353  -0.002  0.161101  -0.001133  3.949453  0.0  0.174837  -0.001807  3.961982  -0.001  0.147492  0.152456  -0.000657  3.940881  0.001
C  C19  1  0.89436593  0.82818334  0.16440347  1  0.190654  -0.006346  3.620681  -0.003  0.112909  -0.002262  3.889502  -0.001  0.130377  -0.003179  3.899598  -0.001  0.17149  0.102032  -0.001601  3.882455  0.0
C  C20  1  0.10563265  0.17181812  0.83559669  1  0.190596  -0.006377  3.620722  -0.003  0.112867  -0.00226  3.889564  -0.001  0.130334  -0.003178  3.899659  -0.001  0.171457  0.10199  -0.001601  3.882514  0.0
C  C21  1  0.86976242  0.10210138  0.27670518  1  -0.04651  0.000961  3.645596  0.001  -0.122408  0.000727  3.894426  0.001  -0.119092  0.000483  3.90309  0.001  -0.045259  -0.124638  0.000954  3.88934  0.001
C  C22  1  0.13023953  0.89789872  0.72329606  1  -0.04638  0.001008  3.645769  0.001  -0.122261  0.000726  3.894495  0.001  -0.118946  0.000482  3.903162  0.001  -0.045177  -0.124504  0.000954  3.889424  0.001
C  C23  1  0.93744713  0.04932286  0.39121128  1  -0.080869  -1e-06  3.776179  0.0  -0.091867  -3e-06  4.056516  0.0  -0.095313  -3.2e-05  4.078945  0.0  -0.021317  -0.089497  0.000104  4.041838  0.0
C  C24  1  0.06255742  0.95067452  0.60878854  1  -0.081139  -8e-06  3.776447  0.0  -0.092041  -2e-06  4.056678  0.0  -0.095487  -3.2e-05  4.079107  0.0  -0.021371  -0.089665  0.000104  4.042  0.0
C  C25  1  0.84361623  0.97039081  0.49055929  1  0.18201  0.00013  3.78608  0.0  0.145964  7.5e-05  4.093819  0.0  0.154186  4.3e-05  4.103131  0.0  0.091897  0.139937  8.1e-05  4.088253  0.0
C  C26  1  0.15638764  0.02960518  0.50944257  1  0.18226  0.00013  3.78607  0.0  0.146151  7.5e-05  4.093821  0.0  0.154372  4.2e-05  4.103135  0.0  0.092036  0.140123  8.1e-05  4.088251  0.0
C  C27  1  0.90317206  0.92368370  0.59771034  1  0.195974  2.9e-05  3.772577  0.0  0.154736  3.7e-05  4.081921  0.0  0.163588  2.2e-05  4.090253  0.0  0.097838  0.148268  0.0001  4.076944  0.0
C  C28  1  0.09683045  0.07631228  0.40229183  1  0.195766  3.8e-05  3.772753  0.0  0.154572  3.7e-05  4.082137  0.0  0.163423  2.2e-05  4.090473  0.0  0.097742  0.148105  0.0001  4.077157  0.0
C  C29  1  0.35153028  0.42228071  0.76396665  1  0.639347  -0.006166  3.897668  -0.006  0.592132  -0.000558  4.206875  -0.001  0.628847  -0.001044  4.199686  -0.001  0.209062  0.567065  -1.9e-05  4.211055  -0.001
C  C30  1  0.64846954  0.57771803  0.23603243  1  0.639432  -0.006174  3.897639  -0.006  0.59219  -0.000559  4.206891  -0.001  0.628904  -0.001043  4.199703  -0.001  0.209115  0.567123  -1.9e-05  4.211073  -0.001
C  C31  1  0.42735915  0.46710966  0.62844286  1  -0.050691  0.012108  3.705793  0.013  -0.039995  0.006266  3.945836  0.007  -0.044706  0.004016  3.965914  0.005  -0.007267  -0.036758  0.008352  3.932496  0.009
C  C32  1  0.57263736  0.53289321  0.37155322  1  -0.05061  0.012143  3.705795  0.013  -0.039937  0.006265  3.945866  0.007  -0.044646  0.004016  3.965944  0.005  -0.007234  -0.036698  0.008351  3.932525  0.009
C  C33  1  0.32528620  0.47276772  0.54389305  1  -0.08446  0.001931  3.669072  0.002  -0.120319  0.000932  3.924277  0.001  -0.120376  0.000459  3.94235  0.0  -0.078197  -0.120465  0.001362  3.912535  0.001
C  C34  1  0.67471026  0.52723240  0.45610496  1  -0.084531  0.001866  3.669013  0.002  -0.12034  0.000932  3.924234  0.001  -0.1204  0.000459  3.94231  0.0  -0.078207  -0.120487  0.001362  3.912492  0.001
C  C35  1  0.60218463  0.49625316  0.58449807  1  -0.061149  0.000423  3.715104  0.001  -0.05108  0.000965  3.955383  0.001  -0.056234  0.000548  3.976634  0.001  -0.006336  -0.047687  0.001543  3.94156  0.002
C  C36  1  0.39781121  0.50374832  0.41550094  1  -0.061167  0.000374  3.715159  0.001  -0.051062  0.000964  3.955449  0.001  -0.05622  0.000547  3.976703  0.001  -0.006313  -0.047672  0.001543  3.941625  0.002
C  C37  1  0.70875707  0.50744315  0.67296948  1  0.670313  -0.000118  3.799095  0.0  0.61905  1.2e-05  4.105906  0.0  0.652563  -1e-05  4.094834  0.0  0.233776  0.595902  2.6e-05  4.113324  0.0
C  C38  1  0.29124487  0.49255696  0.32703085  1  0.670286  -0.000109  3.799046  0.0  0.618958  1.2e-05  4.105939  0.0  0.652473  -1.1e-05  4.094866  0.0  0.233707  0.595817  2.6e-05  4.113351  0.0
N  N39  1  0.02948829  0.70529442  0.06600851  1  -0.389354  0.059863  3.307447  0.078  -0.348652  0.043365  3.637956  0.06  -0.382314  0.035384  3.654148  0.052  -0.372776  -0.327895  0.047718  3.628153  0.062
N  N40  1  0.97051092  0.29470568  0.93399156  1  -0.389326  0.05986  3.307516  0.078  -0.348631  0.043363  3.638034  0.06  -0.382293  0.035384  3.654225  0.052  -0.37277  -0.327874  0.047717  3.628231  0.062
N  N41  1  0.96370631  0.94934079  0.17832767  1  0.050011  0.001277  3.565934  0.002  0.172473  0.0009  3.750775  0.001  0.16235  0.000696  3.773233  0.001  -0.129722  0.178254  0.001082  3.737103  0.002
N  N42  1  0.03629292  0.05065931  0.82167331  1  0.05007  0.001256  3.565885  0.002  0.172468  0.000901  3.750782  0.001  0.162348  0.000697  3.773236  0.001  -0.129719  0.178252  0.001082  3.737112  0.002
N  N43  1  0.14767144  0.90760552  0.08984393  1  -0.258054  0.007165  2.825776  0.009  -0.25867  0.003563  3.094152  0.004  -0.267579  0.002489  3.106259  0.003  -0.21471  -0.252511  0.004612  3.085959  0.005
N  N44  1  0.85232709  0.09239320  0.91015817  1  -0.258111  0.007158  2.82575  0.009  -0.2587  0.003563  3.094124  0.004  -0.26761  0.002488  3.10623  0.003  -0.21473  -0.252541  0.004612  3.085931  0.005
O  O45  1  0.16483739  0.51964299  0.82310067  1  -0.58686  0.087689  2.091649  0.124  -0.561422  0.055525  2.380465  0.085  -0.6047  0.040819  2.373517  0.068  -0.314776  -0.531887  0.065753  2.384849  0.095
O  O46  1  0.83516186  0.48035710  0.17690120  1  -0.586911  0.087696  2.091579  0.124  -0.561465  0.055527  2.380431  0.085  -0.604737  0.04082  2.373468  0.068  -0.31482  -0.531932  0.065753  2.384815  0.095
O  O47  1  0.47001104  0.29420510  0.80673215  1  -0.599202  -0.001484  1.954248  0.0  -0.560158  -0.000749  2.178994  0.0  -0.585602  -0.001564  2.170299  -0.001  -0.311394  -0.541869  1.6e-05  2.184547  0.001
O  O48  1  0.52999151  0.70579365  0.19326719  1  -0.599239  -0.001481  1.954275  0.0  -0.56018  -0.000749  2.179028  0.0  -0.585625  -0.001564  2.170332  -0.001  -0.311396  -0.541893  1.6e-05  2.184581  0.001
O  O49  1  0.58160731  0.62603432  0.77645599  1  -0.579622  -6.5e-05  2.104816  0.0  -0.529153  -4.5e-05  2.326725  0.0  -0.551677  -3.2e-05  2.311462  0.0  -0.337048  -0.51297  -1.6e-05  2.337316  0.0
O  O50  1  0.41838799  0.37397126  0.22354298  1  -0.579551  -6.9e-05  2.104888  0.0  -0.529047  -4.5e-05  2.326793  0.0  -0.551573  -3.1e-05  2.311531  0.0  -0.336955  -0.512864  -1.6e-05  2.33738  0.0
O  O51  1  0.88917475  0.42501142  0.64966198  1  -0.528773  0.00025  1.926736  0.0  -0.495246  0.000212  2.146522  0.0  -0.515278  8.1e-05  2.139467  0.0  -0.281361  -0.481062  0.000452  2.151143  0.001
O  O52  1  0.11081434  0.57499280  0.35033399  1  -0.528868  0.000245  1.926527  0.0  -0.495295  0.000212  2.146288  0.0  -0.515331  8.1e-05  2.139236  0.0  -0.281415  -0.481111  0.000452  2.150906  0.001
O  O53  1  0.31270764  0.26360657  0.05238470  1  -0.836664  -0.001246  1.875067  0.0  -0.791593  -0.001228  2.066973  0.0  -0.810282  -0.001512  2.031643  0.0  -0.572126  -0.778005  -0.000866  2.092623  0.0
O  O54  1  0.68729291  0.73639354  0.94761416  1  -0.83671  -0.001242  1.875164  0.0  -0.791625  -0.001228  2.067031  0.0  -0.810314  -0.001512  2.031698  0.0  -0.57215  -0.778035  -0.000866  2.092683  0.0
F  F55  1  0.69119908  0.93698178  0.48245372  1  -0.168395  2.1e-05  1.253911  0.0  -0.117125  1.9e-05  1.42141  0.0  -0.126108  9e-06  1.411734  0.0  -0.084943  -0.110643  2.1e-05  1.428103  0.0
F  F56  1  0.30880142  0.06301558  0.51754706  1  -0.168429  2.1e-05  1.253946  0.0  -0.117157  1.9e-05  1.421479  0.0  -0.126141  8e-06  1.411804  0.0  -0.08497  -0.110677  2.1e-05  1.428172  0.0
F  F57  1  0.80561233  0.84852014  0.69144626  1  -0.162864  2.8e-05  1.266554  0.0  -0.098475  3e-05  1.428054  0.0  -0.107907  2.2e-05  1.417927  0.0  -0.07429  -0.091791  3.6e-05  1.43518  0.0
F  F58  1  0.19438619  0.15147857  0.30855584  1  -0.162825  2.6e-05  1.266639  0.0  -0.098433  2.9e-05  1.42812  0.0  -0.107865  2.2e-05  1.417996  0.0  -0.074269  -0.091752  3.6e-05  1.435246  0.0
