# generated using pymatgen
data_CuH10C17(NO3)2
_symmetry_space_group_name_H-M   'P 1'
_cell_length_a   9.29715872
_cell_length_b   12.46695740
_cell_length_c   13.22042058
_cell_angle_alpha   89.99849438
_cell_angle_beta   102.36277389
_cell_angle_gamma   90.00349713
_symmetry_Int_Tables_number   1
_chemical_formula_structural   CuH10C17(NO3)2
_chemical_formula_sum   'Cu4 H40 C68 N8 O24'
_cell_volume   1496.81041131
_cell_formula_units_Z   4
loop_
 _symmetry_equiv_pos_site_id
 _symmetry_equiv_pos_as_xyz
  1  'x, y, z'
loop_
 _atom_site_type_symbol
 _atom_site_label
 _atom_site_symmetry_multiplicity
 _atom_site_fract_x
 _atom_site_fract_y
 _atom_site_fract_z
 _atom_site_occupancy
 _atom_site_hle17_ddec_charge
 _atom_site_hle17_ddec_spin_density
 _atom_site_hle17_ddec_sum_bond_order
 _atom_site_hle17_magmom
 _atom_site_hse06_10hf_ddec_charge
 _atom_site_hse06_10hf_ddec_spin_density
 _atom_site_hse06_10hf_ddec_sum_bond_order
 _atom_site_hse06_10hf_magmom
 _atom_site_hse06_ddec_charge
 _atom_site_hse06_ddec_spin_density
 _atom_site_hse06_ddec_sum_bond_order
 _atom_site_hse06_magmom
 _atom_site_pbe_cm5_charge
 _atom_site_pbe_ddec_charge
 _atom_site_pbe_ddec_spin_density
 _atom_site_pbe_ddec_sum_bond_order
 _atom_site_pbe_magmom
Cu  Cu0  1  0.34714451  0.97599866  0.54318770  1  0.862382  -0.731191  1.824626  -0.506  0.832864  -0.802683  2.228211  -0.612  0.919599  -0.878143  2.159538  -0.695  0.755148  0.778603  -0.745954  2.277788  -0.556
Cu  Cu1  1  0.65283472  0.47599332  0.95679810  1  0.862257  0.731224  1.82465  0.506  0.832896  0.802736  2.228045  0.612  0.919488  0.878178  2.159574  0.695  0.755167  0.778442  0.745971  2.277894  0.556
Cu  Cu2  1  0.65284467  0.02402648  0.45681049  1  0.862194  0.731185  1.824545  0.506  0.832739  0.802705  2.22807  0.612  0.919475  0.87816  2.159358  0.695  0.755087  0.778315  0.745965  2.277856  0.556
Cu  Cu3  1  0.34720520  0.52398290  0.04320456  1  0.862288  -0.731268  1.824993  -0.506  0.833079  -0.802788  2.228234  -0.613  0.919533  -0.878213  2.159825  -0.695  0.75517  0.778542  -0.746012  2.278167  -0.556
H  H4  1  0.59873776  0.05456934  0.83933976  1  0.152984  -0.000385  0.937238  0.0  0.161901  -0.00023  0.994192  0.0  0.16647  -0.00015  0.992351  0.0  0.119325  0.158683  -0.000306  0.995712  0.0
H  H5  1  0.40124255  0.55461876  0.66064321  1  0.152654  0.000387  0.937531  0.0  0.161734  0.00023  0.994261  0.0  0.166303  0.00015  0.992426  0.0  0.119309  0.15851  0.000306  0.995783  0.0
H  H6  1  0.40130180  0.94537960  0.16063409  1  0.152822  0.000387  0.937437  0.0  0.161916  0.000229  0.994112  0.0  0.166486  0.00015  0.992275  0.0  0.119361  0.15869  0.000306  0.995633  0.0
H  H7  1  0.59878776  0.44541360  0.33934654  1  0.152771  -0.000386  0.937458  0.0  0.1618  -0.00023  0.994256  0.0  0.166378  -0.00015  0.992401  0.0  0.119283  0.158575  -0.000306  0.995777  0.0
H  H8  1  0.73962464  0.87324280  0.12630734  1  0.141557  -3.7e-05  0.945654  0.0  0.148646  -2e-05  1.009326  0.0  0.153024  -4e-06  1.00754  0.0  0.115047  0.145607  -3.6e-05  1.01076  0.0
H  H9  1  0.26036728  0.37327702  0.37368722  1  0.141588  3.8e-05  0.945741  0.0  0.148651  2e-05  1.009447  0.0  0.153032  4e-06  1.007663  0.0  0.115033  0.145615  3.6e-05  1.010874  0.0
H  H10  1  0.26036127  0.12673582  0.87368881  1  0.141632  3.9e-05  0.945716  0.0  0.148713  2e-05  1.009373  0.0  0.153092  4e-06  1.00759  0.0  0.115077  0.145674  3.6e-05  1.010805  0.0
H  H11  1  0.73963290  0.62674892  0.62631276  1  0.141547  -3.8e-05  0.94566  0.0  0.148673  -2e-05  1.009293  0.0  0.153052  -4e-06  1.00751  0.0  0.11504  0.145633  -3.6e-05  1.010729  0.0
H  H12  1  0.31563194  0.14781368  0.69920732  1  0.102033  -0.001479  0.932957  -0.003  0.110393  -0.001194  0.994417  -0.002  0.113436  -0.000852  0.990797  -0.002  0.124553  0.107952  -0.001498  0.997294  -0.003
H  H13  1  0.68438637  0.64782889  0.80077797  1  0.102036  0.00148  0.933045  0.003  0.110375  0.001195  0.994505  0.002  0.113413  0.000852  0.990895  0.002  0.124611  0.107938  0.001499  0.997375  0.003
H  H14  1  0.68435800  0.85218739  0.30080385  1  0.10201  0.001478  0.933017  0.003  0.110415  0.001195  0.994421  0.002  0.113468  0.000852  0.990772  0.002  0.124572  0.107962  0.001499  0.997322  0.003
H  H15  1  0.31561351  0.35217299  0.19923406  1  0.101904  -0.001479  0.932985  -0.003  0.110179  -0.001194  0.994524  -0.002  0.113217  -0.000852  0.990914  -0.002  0.12452  0.107741  -0.001498  0.997395  -0.003
H  H16  1  0.13234450  0.29185331  0.70677997  1  0.113496  -0.000497  0.964047  0.0  0.121418  -0.000491  1.025845  -0.001  0.124311  -0.000365  1.026044  0.0  0.107783  0.119195  -0.000606  1.026115  -0.001
H  H17  1  0.86771022  0.79185475  0.79320610  1  0.113421  0.000496  0.964081  0.0  0.121273  0.000492  1.025977  0.001  0.124182  0.000365  1.026154  0.0  0.107774  0.119055  0.000607  1.026245  0.001
H  H18  1  0.86766013  0.70816061  0.29321922  1  0.113573  0.000497  0.963928  0.0  0.12142  0.000491  1.025805  0.001  0.124291  0.000365  1.026028  0.0  0.107782  0.119195  0.000606  1.026073  0.001
H  H19  1  0.13229406  0.20814874  0.20680664  1  0.113435  -0.000497  0.963906  0.0  0.121267  -0.000491  1.025849  -0.001  0.124174  -0.000365  1.026029  0.0  0.107727  0.119043  -0.000606  1.026123  -0.001
H  H20  1  0.91085586  0.30950005  0.55625135  1  0.123089  -0.000306  0.967331  -0.001  0.132282  -1.1e-05  1.025851  0.0  0.13562  2e-05  1.022429  0.0  0.114378  0.129758  -5.1e-05  1.028394  0.0
H  H21  1  0.08917082  0.80951253  0.94375922  1  0.12293  0.000306  0.96769  0.001  0.132171  1.1e-05  1.026174  0.0  0.135503  -2e-05  1.022756  0.0  0.114346  0.129657  5.1e-05  1.028712  0.0
H  H22  1  0.08915004  0.69052189  0.44374123  1  0.123116  0.000306  0.967305  0.001  0.132308  1.1e-05  1.025844  0.0  0.135652  -2e-05  1.022407  0.0  0.114411  0.129787  5.1e-05  1.028388  0.0
H  H23  1  0.91083120  0.19048775  0.05625543  1  0.122989  -0.000306  0.967633  -0.001  0.132338  -1.1e-05  1.025982  0.0  0.13568  2e-05  1.022543  0.0  0.114387  0.129824  -5.1e-05  1.028526  0.0
H  H24  1  0.89238085  0.18717120  0.40511923  1  0.116733  -0.000875  0.982375  -0.001  0.120365  -0.000797  1.05659  -0.001  0.124268  -0.000609  1.053508  -0.001  0.109351  0.11729  -0.000949  1.059341  -0.001
H  H25  1  0.10759623  0.68719768  0.09490029  1  0.116831  0.000875  0.982181  0.001  0.120317  0.000797  1.056571  0.001  0.124217  0.000609  1.053478  0.001  0.109311  0.117244  0.000949  1.059309  0.001
H  H26  1  0.10762618  0.81284191  0.59487278  1  0.116756  0.000874  0.982386  0.001  0.120428  0.000798  1.056566  0.001  0.124335  0.000609  1.05348  0.001  0.109349  0.117351  0.000949  1.059325  0.001
H  H27  1  0.89239263  0.31280581  0.90510995  1  0.11671  -0.000873  0.982315  -0.001  0.12026  -0.000797  1.056632  -0.001  0.124158  -0.000609  1.053545  -0.001  0.109325  0.11719  -0.000948  1.059374  -0.001
H  H28  1  0.91505344  0.09466186  0.27270669  1  0.122323  -0.000748  0.949573  -0.001  0.132821  -0.000644  1.007561  -0.001  0.135573  -0.000456  1.007116  -0.001  0.113754  0.130836  -0.000796  1.007934  -0.001
H  H29  1  0.08490347  0.59469716  0.22730659  1  0.122409  0.000748  0.949435  0.001  0.132813  0.000645  1.007536  0.001  0.135569  0.000456  1.007084  0.001  0.113766  0.130823  0.000795  1.007907  0.001
H  H30  1  0.08490863  0.90531114  0.72731357  1  0.122388  0.000747  0.949455  0.001  0.132792  0.000645  1.007583  0.001  0.135545  0.000456  1.007137  0.001  0.113755  0.130808  0.000795  1.007951  0.001
H  H31  1  0.91505281  0.40532558  0.77272407  1  0.122373  -0.000747  0.949589  -0.001  0.132812  -0.000644  1.007627  -0.001  0.135563  -0.000456  1.007186  -0.001  0.113734  0.130826  -0.000795  1.007998  -0.001
H  H32  1  0.96002412  0.97812426  0.13151308  1  0.103925  -0.000283  0.973288  0.0  0.114421  -2e-05  1.0308  0.0  0.11747  1.4e-05  1.028405  0.0  0.108677  0.112228  -6.5e-05  1.032336  0.0
H  H33  1  0.03994054  0.47811394  0.36847743  1  0.103815  0.000283  0.973351  0.0  0.11435  2.1e-05  1.030835  0.0  0.117392  -1.4e-05  1.028443  0.0  0.108585  0.112129  6.5e-05  1.032402  0.0
H  H34  1  0.03994835  0.02186479  0.86848996  1  0.10392  0.000283  0.97341  0.0  0.114446  2.1e-05  1.030881  0.0  0.11751  -1.4e-05  1.028468  0.0  0.108678  0.112297  6.5e-05  1.032362  0.0
H  H35  1  0.96002600  0.52188313  0.63154128  1  0.103843  -0.000283  0.973569  0.0  0.114346  -2.1e-05  1.031058  0.0  0.117353  1.4e-05  1.028719  0.0  0.108589  0.11216  -6.5e-05  1.032583  0.0
H  H36  1  0.17557274  0.84764392  0.16875300  1  0.117192  -0.000419  0.952405  0.0  0.127547  -0.000432  1.009891  0.0  0.130428  -0.000326  1.008941  0.0  0.113253  0.125323  -0.000504  1.010967  -0.001
H  H37  1  0.82445145  0.34757470  0.33120054  1  0.116989  0.000419  0.952285  0.0  0.127212  0.000433  1.009941  0.0  0.130088  0.000327  1.008995  0.0  0.113177  0.124993  0.000504  1.011011  0.001
H  H38  1  0.82445103  0.15238443  0.83123265  1  0.11701  0.00042  0.952458  0.0  0.127408  0.000432  1.009898  0.0  0.130293  0.000326  1.008937  0.0  0.113211  0.125187  0.000504  1.01098  0.001
H  H39  1  0.17556004  0.65239109  0.66878993  1  0.116928  -0.000419  0.952427  0.0  0.127321  -0.000432  1.009883  0.0  0.130205  -0.000326  1.008922  0.0  0.113104  0.125099  -0.000505  1.010963  -0.001
H  H40  1  0.33696568  0.84590533  0.34612694  1  0.109953  -0.001567  0.94962  -0.003  0.109421  -0.001177  1.021274  -0.002  0.113185  -0.000802  1.016444  -0.002  0.12381  0.106589  -0.00151  1.024729  -0.003
H  H41  1  0.66305718  0.34585695  0.15383021  1  0.109928  0.001567  0.949662  0.003  0.109467  0.001177  1.02127  0.002  0.113243  0.000802  1.016411  0.002  0.123688  0.106635  0.00151  1.024729  0.003
H  H42  1  0.66307137  0.15413265  0.65385860  1  0.109922  0.001567  0.949619  0.003  0.109384  0.001177  1.021298  0.002  0.113156  0.000802  1.016454  0.002  0.123746  0.10655  0.00151  1.024756  0.003
H  H43  1  0.33697640  0.65410563  0.84616082  1  0.109945  -0.001567  0.949642  -0.003  0.109422  -0.001177  1.021303  -0.002  0.113187  -0.000802  1.016476  -0.002  0.123706  0.106596  -0.00151  1.024755  -0.003
C  C44  1  0.51145427  0.90033328  0.85010430  1  0.194635  -0.010253  3.643133  -0.01  0.183149  -0.005222  3.901974  -0.006  0.193044  -0.003943  3.911883  -0.004  0.108287  0.176436  -0.006147  3.895353  -0.006
C  C45  1  0.48855089  0.40040207  0.64989518  1  0.195191  0.010272  3.642453  0.01  0.183339  0.005212  3.90141  0.006  0.193321  0.003941  3.911317  0.004  0.108328  0.176563  0.00614  3.894775  0.006
C  C46  1  0.48856697  0.09962449  0.14989380  1  0.195014  0.010255  3.642645  0.01  0.183056  0.005215  3.901736  0.006  0.193038  0.003945  3.911669  0.004  0.108185  0.176314  0.006143  3.895101  0.006
C  C47  1  0.51146042  0.59962628  0.35010206  1  0.194826  -0.010269  3.643025  -0.01  0.18326  -0.005218  3.90171  -0.006  0.193218  -0.003943  3.911639  -0.004  0.108225  0.176513  -0.006142  3.895147  -0.006
C  C48  1  0.59948862  0.98435527  0.88800457  1  -0.26966  0.003013  3.667696  0.003  -0.301406  0.000477  3.922047  0.001  -0.313518  0.00063  3.938952  0.001  -0.098251  -0.293556  0.000216  3.910718  0.0
C  C49  1  0.40050771  0.48440824  0.61198607  1  -0.269375  -0.003042  3.667256  -0.003  -0.301147  -0.000474  3.921567  -0.001  -0.313221  -0.000635  3.938403  -0.001  -0.09821  -0.293324  -0.000219  3.910293  0.0
C  C50  1  0.40055505  0.01560009  0.11198130  1  -0.269508  -0.003018  3.667234  -0.003  -0.301172  -0.000473  3.921611  -0.001  -0.313268  -0.000633  3.938475  -0.001  -0.098223  -0.293338  -0.000217  3.910317  0.0
C  C51  1  0.59951148  0.51562252  0.38800565  1  -0.269275  0.003043  3.667302  0.003  -0.301127  0.000479  3.9215  0.001  -0.313218  0.000633  3.938359  0.001  -0.098011  -0.293281  0.000219  3.910223  0.0
C  C52  1  0.69097914  0.98225436  0.99129072  1  0.450521  -0.000705  3.88896  -0.001  0.437115  -0.000236  4.160884  0.0  0.462194  -0.000166  4.163226  0.0  0.116352  0.420687  -0.000347  4.158126  0.0
C  C53  1  0.30901915  0.48228839  0.50870332  1  0.450888  0.000706  3.888927  0.001  0.437569  0.000235  4.16069  0.0  0.462662  0.000168  4.163015  0.0  0.116543  0.421136  0.000347  4.157923  0.0
C  C54  1  0.30905900  0.01770661  0.00869501  1  0.450713  0.000703  3.888804  0.001  0.437094  0.000233  4.160971  0.0  0.462186  0.000168  4.163302  0.0  0.116537  0.420665  0.000346  4.158208  0.0
C  C55  1  0.69100652  0.51773274  0.49129475  1  0.45095  -0.000724  3.888762  -0.001  0.437675  -0.000238  4.160476  0.0  0.462769  -0.000167  4.162796  0.0  0.116563  0.421243  -0.000347  4.157705  0.0
C  C56  1  0.67815741  0.88396525  0.04721695  1  -0.276181  0.001135  3.683148  0.001  -0.307497  -0.000598  3.940205  -0.001  -0.320039  -0.000242  3.957887  0.0  -0.101096  -0.299405  -0.000972  3.928296  -0.001
C  C57  1  0.32182991  0.38400969  0.45277356  1  -0.276267  -0.001138  3.682899  -0.001  -0.307446  0.000604  3.940336  0.001  -0.319987  0.000233  3.957996  0.0  -0.101035  -0.299351  0.000972  3.928428  0.001
C  C58  1  0.32183528  0.11600214  0.95277349  1  -0.276207  -0.001125  3.682994  -0.001  -0.307343  0.000607  3.940343  0.001  -0.319893  0.000241  3.957994  0.0  -0.101004  -0.299223  0.000975  3.928457  0.001
C  C59  1  0.67817704  0.61601144  0.54722146  1  -0.276155  0.001138  3.68272  0.001  -0.307466  -0.000594  3.93998  -0.001  -0.320028  -0.000241  3.95762  0.0  -0.101021  -0.299342  -0.000969  3.928079  -0.001
C  C60  1  0.58600559  0.80404287  0.00417738  1  0.175674  -0.011087  3.657341  -0.012  0.163385  -0.005721  3.917254  -0.007  0.17286  -0.00396  3.928389  -0.005  0.100754  0.157121  -0.007415  3.909756  -0.008
C  C61  1  0.41402621  0.30410879  0.49582389  1  0.176068  0.011111  3.656762  0.012  0.162907  0.005721  3.917651  0.007  0.172469  0.003975  3.928829  0.005  0.100733  0.156583  0.007426  3.910123  0.008
C  C62  1  0.41400339  0.19592051  0.99582478  1  0.175984  0.01109  3.65666  0.012  0.163071  0.005714  3.917197  0.007  0.172662  0.003964  3.928334  0.005  0.100674  0.156711  0.007418  3.909784  0.008
C  C63  1  0.58598178  0.69591314  0.50417357  1  0.175836  -0.011107  3.656605  -0.012  0.16306  -0.005731  3.917136  -0.007  0.172656  -0.003968  3.928228  -0.005  0.100733  0.156743  -0.007428  3.909697  -0.008
C  C64  1  0.41283229  0.89875956  0.74343786  1  0.600827  0.002886  3.952845  0.007  0.554778  -0.001006  4.261589  0.002  0.591276  -0.000358  4.252114  0.002  0.202378  0.530033  -0.001683  4.267046  0.001
C  C65  1  0.58713113  0.39879859  0.75654656  1  0.600968  -0.002887  3.952946  -0.007  0.554919  0.001004  4.261751  -0.002  0.59143  0.000359  4.252238  -0.002  0.202627  0.530177  0.001681  4.267193  -0.001
C  C66  1  0.58715267  0.10122227  0.25655208  1  0.600916  -0.002883  3.9534  -0.007  0.554948  0.001004  4.262107  -0.002  0.591457  0.00036  4.252624  -0.002  0.202615  0.530215  0.001682  4.267554  -0.001
C  C67  1  0.41286452  0.60121613  0.24345798  1  0.600848  0.00288  3.953263  0.007  0.554698  -0.00101  4.262157  0.002  0.591201  -0.000358  4.252643  0.002  0.202398  0.529963  -0.001684  4.267574  0.001
C  C68  1  0.56569432  0.70250356  0.06266171  1  0.605644  0.000992  3.938957  0.004  0.561605  -0.002764  4.243617  -0.001  0.597219  -0.00186  4.235203  -0.001  0.206204  0.537304  -0.003784  4.248539  -0.001
C  C69  1  0.43434310  0.20254722  0.43733547  1  0.605564  -0.000995  3.940144  -0.004  0.561724  0.002762  4.244776  0.001  0.597354  0.001857  4.236349  0.001  0.205957  0.537422  0.003781  4.249723  0.001
C  C70  1  0.43428397  0.29749270  0.93733017  1  0.605808  -0.000997  3.938694  -0.004  0.561872  0.002765  4.243362  0.001  0.597495  0.00186  4.23493  0.001  0.206279  0.537595  0.003788  4.248293  0.001
C  C71  1  0.56564521  0.79747792  0.56265350  1  0.605773  0.001  3.93819  0.004  0.561718  -0.002761  4.243101  -0.001  0.59733  -0.001857  4.234683  -0.001  0.206092  0.537441  -0.003779  4.24803  -0.001
C  C72  1  0.22086852  0.16050755  0.63585055  1  0.143921  0.007586  3.671647  0.009  0.110847  0.000661  3.932387  0.002  0.121677  0.001811  3.9489  0.003  0.052454  0.103635  -0.000355  3.921872  0.001
C  C73  1  0.77914509  0.66051892  0.86414046  1  0.14387  -0.007581  3.67217  -0.009  0.110869  -0.000658  3.932844  -0.002  0.121693  -0.001811  3.949366  -0.003  0.052452  0.103659  0.000358  3.922318  -0.001
C  C74  1  0.77912481  0.83949513  0.36415814  1  0.143974  -0.007559  3.671543  -0.009  0.110878  -0.000654  3.932243  -0.002  0.121706  -0.001812  3.94877  -0.003  0.052511  0.103664  0.000359  3.921716  -0.001
C  C75  1  0.22085819  0.33948536  0.13586834  1  0.144151  0.007596  3.671799  0.009  0.111224  0.000659  3.932451  0.002  0.12205  0.001814  3.948958  0.003  0.052582  0.104017  -0.000354  3.921918  0.001
C  C76  1  0.11682139  0.23996876  0.63911309  1  -0.109359  -0.011045  3.694481  -0.012  -0.120706  -0.004698  3.943013  -0.006  -0.12908  -0.004127  3.964533  -0.005  -0.076713  -0.115433  -0.00521  3.929225  -0.006
C  C77  1  0.88320259  0.73998343  0.86088215  1  -0.109137  0.011043  3.694726  0.012  -0.120444  0.004694  3.943239  0.006  -0.128831  0.004129  3.964756  0.005  -0.076664  -0.115179  0.005211  3.929465  0.006
C  C78  1  0.88317769  0.76004275  0.36088670  1  -0.10939  0.01102  3.694721  0.012  -0.120656  0.004689  3.943247  0.006  -0.129017  0.00413  3.964782  0.005  -0.076666  -0.115382  0.005209  3.929457  0.006
C  C79  1  0.11679404  0.26001926  0.13912709  1  -0.109209  -0.011057  3.694343  -0.012  -0.120529  -0.004695  3.942918  -0.006  -0.128917  -0.00413  3.964434  -0.005  -0.076671  -0.115257  -0.005212  3.929143  -0.006
C  C80  1  0.99648343  0.24972401  0.55593128  1  0.006949  0.009019  3.664082  0.008  -0.008391  0.002739  3.904356  0.003  -0.003349  0.002971  3.9215  0.003  -0.059724  -0.011997  0.002397  3.893138  0.002
C  C81  1  0.00353338  0.74973894  0.94407087  1  0.006808  -0.00902  3.664556  -0.008  -0.008562  -0.002737  3.904786  -0.003  -0.003521  -0.002972  3.92194  -0.003  -0.05978  -0.012173  -0.002397  3.893574  -0.002
C  C82  1  0.00351803  0.75029391  0.44406209  1  0.006829  -0.008999  3.664492  -0.008  -0.00854  -0.002734  3.904781  -0.003  -0.003498  -0.002971  3.92193  -0.003  -0.059852  -0.012148  -0.002394  3.893564  -0.002
C  C83  1  0.99646665  0.25026214  0.05593514  1  0.006778  0.00903  3.664933  0.008  -0.008661  0.00274  3.905159  0.003  -0.003623  0.002974  3.922322  0.003  -0.059757  -0.01227  0.0024  3.893952  0.002
C  C84  1  0.98664932  0.18243674  0.47032301  1  -0.139527  -0.008037  3.676238  -0.008  -0.161277  -0.003273  3.930438  -0.003  -0.169479  -0.003014  3.950471  -0.003  -0.077355  -0.156036  -0.003429  3.917439  -0.003
C  C85  1  0.01334640  0.68246231  0.02968831  1  -0.139627  0.008037  3.675932  0.008  -0.161252  0.003273  3.930229  0.003  -0.16944  0.003015  3.950241  0.003  -0.077432  -0.156009  0.003431  3.917228  0.003
C  C86  1  0.01335652  0.81757477  0.52967183  1  -0.139529  0.008023  3.676579  0.008  -0.161313  0.003273  3.930736  0.003  -0.169522  0.003015  3.950779  0.003  -0.077425  -0.156078  0.003429  3.917745  0.003
C  C87  1  0.98664571  0.31753796  0.97032472  1  -0.139469  -0.008047  3.676332  -0.008  -0.161163  -0.003275  3.930662  -0.003  -0.169359  -0.003014  3.950691  -0.003  -0.077361  -0.155922  -0.003429  3.917672  -0.003
C  C88  1  0.09764843  0.10705617  0.47013620  1  0.167731  0.003569  3.775702  0.004  0.164082  -0.000951  4.021676  0.0  0.17196  0.000297  4.044278  0.001  0.114384  0.159076  -0.00196  4.006472  -0.001
C  C89  1  0.90233755  0.60706912  0.02985803  1  0.168034  -0.003561  3.77518  -0.004  0.164288  0.000949  4.021149  0.0  0.172167  -0.000298  4.043734  -0.001  0.11455  0.159288  0.00196  4.005932  0.001
C  C90  1  0.90233729  0.89294411  0.52986747  1  0.167611  -0.003557  3.775839  -0.004  0.163978  0.000948  4.021759  0.0  0.171855  -0.000298  4.044374  -0.001  0.114468  0.158974  0.001962  4.006539  0.001
C  C91  1  0.09765467  0.39293517  0.97015048  1  0.168135  0.003585  3.775154  0.004  0.164362  -0.000944  4.02114  0.0  0.172238  0.000299  4.043719  0.001  0.11452  0.159368  -0.001956  4.005918  -0.001
C  C92  1  0.10621828  0.03621755  0.38264639  1  0.173538  0.00248  3.767341  0.003  0.168645  -0.001076  4.013272  -0.001  0.176643  5.6e-05  4.034907  0.001  0.116756  0.163449  -0.002017  3.998709  -0.002
C  C93  1  0.89376692  0.53622200  0.11734042  1  0.17314  -0.002492  3.767872  -0.003  0.168556  0.001071  4.013391  0.001  0.176557  -5.4e-05  4.035016  -0.001  0.116845  0.163359  0.002018  3.998817  0.002
C  C94  1  0.89377084  0.96378433  0.61735405  1  0.173491  -0.002493  3.767195  -0.003  0.168719  0.00107  4.012965  0.001  0.176716  -5.2e-05  4.034596  -0.001  0.116916  0.163525  0.002017  3.998389  0.002
C  C95  1  0.10622742  0.46377426  0.88267222  1  0.173204  0.00249  3.767917  0.003  0.168717  -0.001071  4.013312  -0.001  0.176717  5.3e-05  4.034928  0.001  0.116818  0.163512  -0.002017  3.998736  -0.002
C  C96  1  0.00858267  0.03977888  0.28646988  1  -0.130679  -0.006026  3.66382  -0.006  -0.146202  -0.002383  3.905314  -0.002  -0.153217  -0.002204  3.925121  -0.002  -0.072691  -0.141453  -0.002521  3.891854  -0.002
C  C97  1  0.99139152  0.53979072  0.21352564  1  -0.130611  0.006034  3.664127  0.006  -0.146108  0.002387  3.905455  0.002  -0.153117  0.002204  3.925254  0.002  -0.072779  -0.141352  0.00252  3.891977  0.002
C  C98  1  0.99140178  0.96021177  0.71354040  1  -0.130588  0.006033  3.664148  0.006  -0.14608  0.002391  3.905588  0.002  -0.153089  0.002201  3.925393  0.002  -0.072689  -0.141333  0.002521  3.892137  0.002
C  C99  1  0.00857956  0.46021597  0.78648851  1  -0.130676  -0.006039  3.664438  -0.006  -0.146246  -0.002387  3.905753  -0.002  -0.153256  -0.002202  3.925545  -0.002  -0.072774  -0.141493  -0.002521  3.892288  -0.002
C  C100  1  0.03353161  0.97255910  0.20760051  1  -0.000948  0.0075  3.699399  0.007  -0.017359  0.002281  3.942064  0.002  -0.013002  0.002523  3.959285  0.002  -0.063592  -0.02007  0.001979  3.930316  0.002
C  C101  1  0.96645271  0.47254728  0.29238275  1  -0.000994  -0.007505  3.699937  -0.007  -0.017505  -0.00228  3.942523  -0.002  -0.013137  -0.002522  3.959749  -0.002  -0.063579  -0.020195  -0.001978  3.930773  -0.002
C  C102  1  0.96645421  0.02744038  0.79239940  1  -0.001191  -0.007496  3.700031  -0.007  -0.017609  -0.002282  3.942661  -0.002  -0.013262  -0.00252  3.959874  -0.002  -0.06364  -0.020351  -0.001978  3.930908  -0.002
C  C103  1  0.03352171  0.52744899  0.70763044  1  -0.001192  0.007505  3.700276  0.007  -0.017657  0.00228  3.942989  0.002  -0.013272  0.002521  3.960231  0.002  -0.063604  -0.020367  0.001978  3.931219  0.002
C  C104  1  0.15181884  0.90160999  0.22767932  1  -0.108983  -0.01008  3.694513  -0.011  -0.120536  -0.004427  3.937966  -0.005  -0.128358  -0.003795  3.958833  -0.005  -0.074696  -0.115482  -0.00489  3.924098  -0.006
C  C105  1  0.84820367  0.40156520  0.27228470  1  -0.108287  0.010089  3.694471  0.011  -0.119656  0.004423  3.937943  0.005  -0.127479  0.003794  3.958826  0.005  -0.074378  -0.114599  0.004888  3.924054  0.006
C  C106  1  0.84819487  0.09841114  0.77231075  1  -0.10851  0.010074  3.694503  0.011  -0.120091  0.004424  3.937901  0.005  -0.127909  0.003793  3.958772  0.005  -0.074544  -0.115047  0.004888  3.924051  0.006
C  C107  1  0.15179775  0.59841262  0.72771019  1  -0.108066  -0.010085  3.693852  -0.011  -0.11959  -0.004423  3.937227  -0.005  -0.127411  -0.003795  3.958097  -0.005  -0.074302  -0.114535  -0.004889  3.923351  -0.006
C  C108  1  0.24379501  0.90048936  0.32592506  1  0.164857  0.006348  3.633704  0.007  0.137621  0.00033  3.887493  0.002  0.148587  0.001536  3.90275  0.003  0.064244  0.130554  -0.000772  3.877533  0.0
C  C109  1  0.75621967  0.40045113  0.17403922  1  0.164225  -0.006357  3.634217  -0.007  0.13688  -0.000327  3.888072  -0.002  0.14784  -0.001535  3.90333  -0.003  0.064054  0.129821  0.000773  3.878097  0.0
C  C110  1  0.75622868  0.09953579  0.67406361  1  0.164657  -0.006347  3.634027  -0.007  0.137445  -0.000328  3.887825  -0.002  0.148403  -0.001535  3.903081  -0.003  0.064203  0.130384  0.000772  3.877845  0.0
C  C111  1  0.24380267  0.59952268  0.82595906  1  0.164286  0.006355  3.633716  0.007  0.136968  0.000327  3.887667  0.002  0.147928  0.001536  3.902906  0.003  0.064124  0.129902  -0.000771  3.877687  0.0
N  N112  1  0.21028165  0.09576454  0.55359452  1  -0.345236  -0.090581  3.356283  -0.11  -0.300365  -0.064952  3.651988  -0.085  -0.332379  -0.054627  3.674006  -0.075  -0.350298  -0.281134  -0.070252  3.639165  -0.088
N  N113  1  0.78972158  0.59577084  0.94639265  1  -0.34508  0.090604  3.35597  0.11  -0.300307  0.064972  3.651766  0.085  -0.332293  0.054638  3.673807  0.075  -0.3503  -0.281036  0.070276  3.638936  0.088
N  N114  1  0.78969630  0.90423333  0.44641016  1  -0.34524  0.090564  3.355841  0.11  -0.300406  0.064954  3.651573  0.085  -0.332413  0.054625  3.67357  0.075  -0.350407  -0.281148  0.070252  3.638747  0.088
N  N115  1  0.21028492  0.40423826  0.05361970  1  -0.345424  -0.090598  3.355939  -0.11  -0.300698  -0.064953  3.651759  -0.085  -0.332641  -0.054621  3.673745  -0.075  -0.350446  -0.281408  -0.070254  3.638923  -0.088
N  N116  1  0.22152267  0.96696190  0.40064404  1  -0.335932  -0.080252  3.326282  -0.097  -0.291567  -0.057214  3.620189  -0.074  -0.32278  -0.048742  3.641563  -0.067  -0.343541  -0.272693  -0.061149  3.607841  -0.076
N  N117  1  0.77847242  0.46695089  0.09933354  1  -0.335502  0.080241  3.326726  0.097  -0.291328  0.057191  3.620633  0.074  -0.322511  0.04872  3.642027  0.067  -0.34348  -0.272417  0.061123  3.608285  0.076
N  N118  1  0.77847991  0.03305202  0.59934876  1  -0.335685  0.080242  3.326519  0.097  -0.291445  0.057204  3.620456  0.074  -0.322644  0.048731  3.641817  0.067  -0.343547  -0.272541  0.061135  3.6081  0.076
N  N119  1  0.22154538  0.53303415  0.90066930  1  -0.33557  -0.080243  3.326483  -0.097  -0.291385  -0.057199  3.620253  -0.074  -0.322521  -0.048724  3.641607  -0.067  -0.343485  -0.272453  -0.061133  3.607892  -0.076
O  O120  1  0.50319698  0.81001273  0.90619758  1  -0.173718  -0.000813  2.470229  -0.001  -0.101453  -0.00078  2.684005  -0.001  -0.120019  -0.00058  2.690117  -0.001  -0.090717  -0.088853  -0.001028  2.67956  -0.001
O  O121  1  0.49681383  0.31008351  0.59378695  1  -0.174429  0.000812  2.470267  0.001  -0.101416  0.00078  2.683973  0.001  -0.120245  0.000579  2.690285  0.001  -0.090709  -0.088662  0.001028  2.679422  0.001
O  O122  1  0.49680780  0.18994423  0.09379558  1  -0.174414  0.000812  2.470376  0.001  -0.101458  0.000782  2.684042  0.001  -0.120305  0.000579  2.69035  0.001  -0.090816  -0.088773  0.001029  2.679585  0.001
O  O123  1  0.50318983  0.68993602  0.40620679  1  -0.174243  -0.000814  2.470459  -0.001  -0.101482  -0.000779  2.684048  -0.001  -0.120269  -0.00058  2.6903  -0.001  -0.090837  -0.088877  -0.001027  2.679656  -0.001
O  O124  1  0.77207552  0.05899333  0.02951365  1  -0.521163  -0.000106  1.892035  0.0  -0.485634  -1.9e-05  2.098698  0.0  -0.50396  0.000205  2.09181  0.0  -0.302029  -0.472459  -0.00062  2.102255  -0.001
O  O125  1  0.22789382  0.55902270  0.47046926  1  -0.521573  0.000107  1.89182  0.0  -0.486051  1.9e-05  2.098426  0.0  -0.504394  -0.000205  2.091535  0.0  -0.302279  -0.472861  0.000622  2.101972  0.001
O  O126  1  0.22797429  0.94095882  0.97044825  1  -0.521358  0.000103  1.891825  0.0  -0.485741  1.8e-05  2.0986  0.0  -0.504058  -0.000208  2.091676  0.0  -0.302243  -0.472585  0.00062  2.102192  0.001
O  O127  1  0.77211973  0.44100324  0.52952684  1  -0.521646  -9.3e-05  1.891773  0.0  -0.486165  -1.8e-05  2.098372  0.0  -0.504493  0.000205  2.091464  0.0  -0.30237  -0.473003  -0.000622  2.101966  -0.001
O  O128  1  0.43308461  0.98225590  0.68984190  1  -0.586206  -0.093501  2.105508  -0.12  -0.560674  -0.057006  2.397424  -0.08  -0.603697  -0.044385  2.389979  -0.066  -0.329171  -0.531474  -0.064571  2.401947  -0.087
O  O129  1  0.56686483  0.48226520  0.81016008  1  -0.586311  0.093489  2.105301  0.12  -0.560788  0.056998  2.397236  0.08  -0.603774  0.04437  2.389805  0.066  -0.329386  -0.53156  0.064557  2.401797  0.087
O  O130  1  0.56687125  0.01774518  0.31016221  1  -0.586083  0.093511  2.105325  0.12  -0.560668  0.057016  2.397387  0.08  -0.603646  0.044384  2.389824  0.066  -0.32921  -0.531376  0.064577  2.401773  0.087
O  O131  1  0.43311725  0.51773749  0.18985587  1  -0.586156  -0.0935  2.10573  -0.12  -0.560621  -0.056998  2.397525  -0.08  -0.60358  -0.044379  2.390104  -0.066  -0.329134  -0.53137  -0.064572  2.402077  -0.087
O  O132  1  0.32375916  0.82436202  0.71623975  1  -0.577894  -0.000687  1.926017  -0.002  -0.548717  -0.000472  2.157652  -0.001  -0.570772  0.000308  2.146866  0.0  -0.31177  -0.533074  -0.001142  2.164505  -0.002
O  O133  1  0.67620833  0.32440440  0.78375250  1  -0.577959  0.000683  1.926136  0.002  -0.548819  0.000466  2.15783  0.001  -0.570863  -0.000303  2.147015  0.0  -0.311818  -0.533177  0.001141  2.164681  0.002
O  O134  1  0.67623017  0.17560857  0.28375241  1  -0.577986  0.00068  1.926607  0.002  -0.548803  0.000467  2.158198  0.001  -0.570847  -0.000306  2.147387  0.0  -0.311827  -0.533171  0.001139  2.165045  0.002
O  O135  1  0.32378539  0.67561272  0.21624113  1  -0.577979  -0.000685  1.925932  -0.002  -0.548799  -0.000471  2.157617  -0.001  -0.570838  0.000306  2.146802  0.0  -0.311829  -0.533149  -0.001145  2.164445  -0.002
O  O136  1  0.47589394  0.63458353  0.00756268  1  -0.625641  -0.078374  2.158783  -0.1  -0.610958  -0.048916  2.480205  -0.067  -0.652389  -0.037875  2.465801  -0.055  -0.336896  -0.582384  -0.056636  2.489729  -0.075
O  O137  1  0.52418104  0.13465705  0.49244912  1  -0.625635  0.078426  2.158844  0.1  -0.610888  0.048944  2.480172  0.067  -0.652406  0.037887  2.46576  0.055  -0.336762  -0.582366  0.056663  2.489721  0.075
O  O138  1  0.52405504  0.36542637  0.99245090  1  -0.625715  0.078372  2.158258  0.1  -0.611048  0.048914  2.479753  0.067  -0.652469  0.037868  2.465264  0.055  -0.336742  -0.582474  0.056628  2.489256  0.075
O  O139  1  0.47577712  0.86535124  0.50755158  1  -0.625611  -0.078402  2.158083  -0.1  -0.610864  -0.048932  2.479607  -0.067  -0.652336  -0.037883  2.46511  -0.055  -0.336752  -0.58236  -0.056652  2.489113  -0.075
O  O140  1  0.63606144  0.69444660  0.15318877  1  -0.548887  -0.005622  1.932325  -0.007  -0.510639  -0.003662  2.151923  -0.005  -0.532837  -0.00215  2.147488  -0.003  -0.298403  -0.494848  -0.005368  2.154377  -0.007
O  O141  1  0.36395250  0.19446713  0.34683807  1  -0.548802  0.005609  1.9334  0.007  -0.510586  0.003655  2.152984  0.005  -0.532782  0.002147  2.148543  0.003  -0.298241  -0.494802  0.005359  2.155441  0.007
O  O142  1  0.36391206  0.30552560  0.84681746  1  -0.548859  0.005638  1.93291  0.007  -0.51063  0.003673  2.152525  0.005  -0.532827  0.002159  2.148095  0.003  -0.298458  -0.494839  0.00538  2.154969  0.007
O  O143  1  0.63606662  0.80556684  0.65315666  1  -0.548902  -0.005607  1.932133  -0.007  -0.510684  -0.003651  2.151861  -0.005  -0.532886  -0.002139  2.147432  -0.003  -0.298385  -0.494889  -0.005356  2.154306  -0.007
