# generated using pymatgen
data_CdH24C33(NO3)2
_symmetry_space_group_name_H-M   'P 1'
_cell_length_a   11.63402747
_cell_length_b   12.07398443
_cell_length_c   12.83500000
_cell_angle_alpha   64.40939536
_cell_angle_beta   73.90392790
_cell_angle_gamma   82.44440795
_symmetry_Int_Tables_number   1
_chemical_formula_structural   CdH24C33(NO3)2
_chemical_formula_sum   'Cd2 H48 C66 N4 O12'
_cell_volume   1562.17226435
_cell_formula_units_Z   2
loop_
 _symmetry_equiv_pos_site_id
 _symmetry_equiv_pos_as_xyz
  1  'x, y, z'
loop_
 _atom_site_type_symbol
 _atom_site_label
 _atom_site_symmetry_multiplicity
 _atom_site_fract_x
 _atom_site_fract_y
 _atom_site_fract_z
 _atom_site_occupancy
 _atom_site_hle17_bader_spin_density
 _atom_site_hle17_ddec_charge
 _atom_site_hle17_ddec_spin_density
 _atom_site_hle17_ddec_sum_bond_order
 _atom_site_hle17_magmom
 _atom_site_hse06_10hf_bader_spin_density
 _atom_site_hse06_10hf_ddec_charge
 _atom_site_hse06_10hf_ddec_spin_density
 _atom_site_hse06_10hf_ddec_sum_bond_order
 _atom_site_hse06_10hf_magmom
 _atom_site_hse06_bader_spin_density
 _atom_site_hse06_ddec_charge
 _atom_site_hse06_ddec_spin_density
 _atom_site_hse06_ddec_sum_bond_order
 _atom_site_hse06_magmom
 _atom_site_pbe_bader_charge
 _atom_site_pbe_bader_spin_density
 _atom_site_pbe_cm5_charge
 _atom_site_pbe_ddec_charge
 _atom_site_pbe_ddec_spin_density
 _atom_site_pbe_ddec_sum_bond_order
 _atom_site_pbe_magmom
Cd  Cd0  1  0.74929144  0.59168015  0.21097925  1  0  1.08232  0  1.689936  0  0  0.881013  0  2.138225  0  0  0.940039  0  2.087833  0  1.243578  0  0.77522  0.83928  0  2.172477  0
Cd  Cd1  1  0.25070705  0.40831904  0.78901749  1  0  1.082381  0  1.689923  0  0  0.881065  0  2.138222  0  0  0.940101  0  2.087814  0  1.243558  0  0.77525  0.839322  0  2.172497  0
H  H2  1  0.93442035  0.71461917  0.44675253  1  0  0.102148  0  0.938325  0  0  0.112848  0  0.998361  0  0  0.117015  0  0.994274  0  0.084325  0  0.103674  0.109852  0  1.001287  0
H  H3  1  0.06557544  0.28538186  0.55324336  1  0  0.102109  0  0.938332  0  0  0.112807  0  0.998367  0  0  0.116975  0  0.994279  0  0.083853  0  0.103669  0.109812  0  1.001295  0
H  H4  1  0.00536411  0.78451357  0.57090332  1  0  0.082219  0  0.9566  0  0  0.092511  0  1.018386  0  0  0.095071  0  1.017854  0  0.077974  0  0.094806  0.090665  0  1.018862  0
H  H5  1  0.99463523  0.21548929  0.42909093  1  0  0.082217  0  0.956623  0  0  0.092487  0  1.018425  0  0  0.095045  0  1.017896  0  0.077976  0  0.094808  0.09064  0  1.018902  0
H  H6  1  0.13218014  0.92046348  0.59104395  1  0  0.086519  0  0.962981  0  0  0.097028  0  1.0259  0  0  0.099391  0  1.026269  0  0.061768  0  0.09538  0.095354  0  1.025684  0
H  H7  1  0.86781834  0.07953662  0.40895476  1  0  0.086533  0  0.962972  0  0  0.097033  0  1.025908  0  0  0.099397  0  1.026279  0  0.061612  0  0.095358  0.09536  0  1.025686  0
H  H8  1  0.26764830  0.06964919  0.40814179  1  0  0.076641  0  0.955833  0  0  0.090309  0  1.013181  0  0  0.092858  0  1.011756  0  0.037277  0  0.094914  0.088438  0  1.014326  0
H  H9  1  0.73235105  0.93035275  0.59185595  1  0  0.076667  0  0.955811  0  0  0.090334  0  1.013155  0  0  0.092883  0  1.01173  0  0.037264  0  0.094931  0.088462  0  1.014301  0
H  H10  1  0.28248729  0.07765483  0.21190380  1  0  0.089376  0  0.986745  0  0  0.097962  0  1.054071  0  0  0.100404  0  1.053586  0  0.03866  0  0.095544  0.096183  0  1.054588  0
H  H11  1  0.71751203  0.92234895  0.78809164  1  0  0.089395  0  0.986713  0  0  0.097974  0  1.054052  0  0  0.100415  0  1.053569  0  0.038711  0  0.095562  0.096195  0  1.054569  0
H  H12  1  0.29012338  0.07700461  0.06236977  1  0  0.080293  0  0.97428  0  0  0.096566  0  1.039108  0  0  0.096774  0  1.039633  0  0.026626  0  0.095036  0.096346  0  1.038822  0
H  H13  1  0.70987779  0.92299458  0.93763097  1  0  0.080318  0  0.974279  0  0  0.096612  0  1.039093  0  0  0.096821  0  1.03962  0  0.026556  0  0.095045  0.096392  0  1.038802  0
H  H14  1  0.18981467  0.07921519  0.98146826  1  0  0.089663  0  0.959108  0  0  0.103398  0  1.026547  0  0  0.104964  0  1.025026  0  0.069279  0  0.096518  0.1022  0  1.027685  0
H  H15  1  0.81019002  0.92078860  0.01852973  1  0  0.089685  0  0.959139  0  0  0.103423  0  1.026582  0  0  0.105001  0  1.02505  0  0.069279  0  0.096525  0.102223  0  1.027722  0
H  H16  1  0.19413310  0.07764749  0.83151553  1  0  0.091959  0  0.989672  0  0  0.099582  0  1.057059  0  0  0.10233  0  1.056024  0  0.077932  0  0.096626  0.097637  0  1.057816  0
H  H17  1  0.80586714  0.92235446  0.16848277  1  0  0.092  0  0.98969  0  0  0.099608  0  1.057085  0  0  0.102355  0  1.056051  0  0.077906  0  0.096641  0.097662  0  1.057841  0
H  H18  1  0.21601774  0.08479902  0.63412588  1  0  0.083723  0  0.963251  0  0  0.095162  0  1.024444  0  0  0.097114  0  1.024342  0  0.064113  0  0.095639  0.093708  0  1.024609  0
H  H19  1  0.78398158  0.91520476  0.36587346  1  0  0.083715  0  0.963269  0  0  0.095154  0  1.024456  0  0  0.097109  0  1.024356  0  0.064189  0  0.095641  0.0937  0  1.024625  0
H  H20  1  0.37513340  0.95830592  0.55520468  1  0  0.084562  0  0.97091  0  0  0.09494  0  1.03484  0  0  0.097323  0  1.034895  0  0.0666  0  0.094271  0.093233  0  1.034897  0
H  H21  1  0.62486415  0.04169694  0.44479547  1  0  0.084563  0  0.970887  0  0  0.094952  0  1.034815  0  0  0.097337  0  1.034868  0  0.066692  0  0.094281  0.093236  0  1.034882  0
H  H22  1  0.51015905  0.82497527  0.68046059  1  0  0.081766  0  0.954692  0  0  0.093491  0  1.014576  0  0  0.09631  0  1.013484  0  0.053  0  0.095321  0.091417  0  1.015494  0
H  H23  1  0.48983672  0.17502668  0.31953960  1  0  0.081792  0  0.954686  0  0  0.093544  0  1.014537  0  0  0.096351  0  1.01346  0  0.053505  0  0.095358  0.091488  0  1.015437  0
H  H24  1  0.57687428  0.74373227  0.86506582  1  0  0.09974  0  0.939729  0  0  0.111526  0  0.998875  0  0  0.115431  0  0.995112  0  0.095899  0  0.103638  0.10864  0  1.001614  0
H  H25  1  0.42312332  0.25626692  0.13493348  1  0  0.099775  0  0.939716  0  0  0.111548  0  0.998866  0  0  0.11546  0  0.995096  0  0.095899  0  0.103646  0.108663  0  1.001605  0
H  H26  1  0.02634801  0.50220925  0.16508116  1  0  0.081503  0  0.928798  0  0  0.092003  0  0.98558  0  0  0.094361  0  0.9841  0  0.106472  0  0.117543  0.090246  0  0.986701  0
H  H27  1  0.97364959  0.49778902  0.83492629  1  0  0.081527  0  0.928567  0  0  0.092028  0  0.985362  0  0  0.094388  0  0.983882  0  0.106625  0  0.117534  0.090272  0  0.986481  0
H  H28  1  0.14988761  0.32636061  0.13390067  1  0  0.116268  0  0.944398  0  0  0.12721  0  0.999776  0  0  0.130551  0  0.998672  0  0.076269  0  0.110663  0.124827  0  1.000691  0
H  H29  1  0.85011261  0.67364317  0.86609922  1  0  0.116214  0  0.944506  0  0  0.127192  0  0.999841  0  0  0.130533  0  0.998736  0  0.076272  0  0.110662  0.12481  0  1.000757  0
H  H30  1  0.04598640  0.16361746  0.12282278  1  0  0.099769  0  0.945342  0  0  0.112647  0  1.001223  0  0  0.114349  0  1.001083  0  0.109177  0  0.112322  0.111374  0  1.001385  0
H  H31  1  0.95402358  0.83639183  0.87716541  1  0  0.099763  0  0.945349  0  0  0.1126  0  1.001266  0  0  0.114302  0  1.001127  0  0.109407  0  0.112326  0.111327  0  1.001428  0
H  H32  1  0.82641840  0.18883473  0.13144121  1  0  0.111461  0  0.982998  0  0  0.119058  0  1.044722  0  0  0.121209  0  1.046038  0  0.135113  0  0.108178  0.117456  0  1.044066  0
H  H33  1  0.17358723  0.81116537  0.86855647  1  0  0.111422  0  0.98298  0  0  0.119013  0  1.044726  0  0  0.121165  0  1.04604  0  0.135255  0  0.10816  0.11741  0  1.044071  0
H  H34  1  0.71712062  0.36906228  0.16219754  1  0  0.076023  0  0.930297  0  0  0.085818  0  0.990485  0  0  0.087902  0  0.989098  0  0.062561  0  0.116768  0.084334  0  0.991405  0
H  H35  1  0.28288151  0.63093232  0.83780482  1  0  0.076076  0  0.930154  0  0  0.085839  0  0.990382  0  0  0.087924  0  0.988994  0  0.062501  0  0.116776  0.084354  0  0.991303  0
H  H36  1  0.77851842  0.37800285  0.44474162  1  0  0.076846  0  0.936454  0  0  0.085893  0  0.99939  0  0  0.08798  0  0.997768  0  0.107432  0  0.115161  0.084355  0  1.000566  0
H  H37  1  0.22148098  0.62199543  0.55525682  1  0  0.076859  0  0.936448  0  0  0.085892  0  0.999395  0  0  0.087988  0  0.99776  0  0.107409  0  0.115152  0.084354  0  1.00057  0
H  H38  1  0.67016030  0.20250412  0.62356625  1  0  0.114178  0  0.979667  0  0  0.122165  0  1.040307  0  0  0.124608  0  1.041177  0  0.123598  0  0.109143  0.120383  0  1.03989  0
H  H39  1  0.32984444  0.79749599  0.37643555  1  0  0.11413  0  0.979685  0  0  0.122067  0  1.040387  0  0  0.124511  0  1.04126  0  0.123675  0  0.109147  0.120286  0  1.03997  0
H  H40  1  0.45118353  0.17844127  0.64864664  1  0  0.097583  0  0.956217  0  0  0.109737  0  1.013481  0  0  0.111301  0  1.01376  0  0.120901  0  0.108267  0.108578  0  1.013307  0
H  H41  1  0.54882127  0.82155425  0.35135468  1  0  0.097552  0  0.956186  0  0  0.109764  0  1.0134  0  0  0.111336  0  1.013658  0  0.12124  0  0.108255  0.108603  0  1.013226  0
H  H42  1  0.34895221  0.33507801  0.49792638  1  0  0.113863  0  0.941968  0  0  0.124695  0  0.997373  0  0  0.127971  0  0.996404  0  0.121943  0  0.110151  0.122332  0  0.998267  0
H  H43  1  0.65104899  0.66491934  0.50206964  1  0  0.113841  0  0.941925  0  0  0.124633  0  0.99738  0  0  0.127923  0  0.996394  0  0.12193  0  0.110128  0.122269  0  0.998274  0
H  H44  1  0.47176173  0.50564588  0.32202050  1  0  0.080125  0  0.928831  0  0  0.091219  0  0.98526  0  0  0.093476  0  0.983834  0  0.084443  0  0.117451  0.089516  0  0.986353  0
H  H45  1  0.52824220  0.49434780  0.67797944  1  0  0.080166  0  0.928767  0  0  0.09125  0  0.985205  0  0  0.093508  0  0.983775  0  0.084346  0  0.117475  0.089542  0  0.986298  0
H  H46  1  0.01576425  0.81352381  0.06015066  1  0  0.374782  0  0.920876  0  0  0.34738  0  0.996422  0  0  0.359054  0  0.983826  0  0.635643  0  0.297077  0.339132  0  1.005193  0
H  H47  1  0.98423867  0.18647905  0.93984502  1  0  0.374751  0  0.920943  0  0  0.347329  0  0.996505  0  0  0.359003  0  0.983912  0  0.635626  0  0.297059  0.339083  0  1.005279  0
H  H48  1  0.47950903  0.81896989  0.18582729  1  0  0.377509  0  0.915904  0  0  0.350052  0  0.991305  0  0  0.361686  0  0.97893  0  0.644191  0  0.298493  0.341808  0  0.999972  0
H  H49  1  0.52048851  0.18103389  0.81417249  1  0  0.377501  0  0.915901  0  0  0.350039  0  0.991307  0  0  0.361674  0  0.978931  0  0.644077  0  0.298498  0.341795  0  0.999974  0
C  C50  1  0.91141688  0.70879838  0.24877472  1  0  0.633033  0  3.922199  0  0  0.58654  0  4.205759  0  0  0.621315  0  4.199911  0  1.48774  0  0.190133  0.562936  0  4.209086  0
C  C51  1  0.08857894  0.29119989  0.75122852  1  0  0.632969  0  3.92227  0  0  0.586465  0  4.205838  0  0  0.621239  0  4.199994  0  1.487157  0  0.190081  0.562863  0  4.209159  0
C  C52  1  0.99678790  0.78344364  0.25760396  1  0  -0.195193  0  3.805347  0  0  -0.177707  0  4.050758  0  0  -0.190537  0  4.073613  0  -0.041221  0  -0.039395  -0.169415  0  4.035338  0
C  C53  1  0.00321415  0.21655739  0.74239347  1  0  -0.195171  0  3.805195  0  0  -0.177724  0  4.050597  0  0  -0.190555  0  4.073452  0  -0.040772  0  -0.039419  -0.169429  0  4.035174  0
C  C54  1  0.99578090  0.77778909  0.36789362  1  0  -0.087372  0  3.751702  0  0  -0.121172  0  4.004287  0  0  -0.116704  0  4.021139  0  -0.006911  0  -0.082622  -0.123658  0  3.992617  0
C  C55  1  0.00422024  0.22221286  0.63210055  1  0  -0.087343  0  3.751599  0  0  -0.121152  0  4.004169  0  0  -0.116685  0  4.021021  0  -0.006194  0  -0.082646  -0.12364  0  3.9925  0
C  C56  1  0.07030184  0.85300283  0.37902846  1  0  0.027872  0  3.813735  0  0  0.044884  0  4.046799  0  0  0.040852  0  4.072248  0  0.017999  0  -0.019085  0.047338  0  4.029595  0
C  C57  1  0.92970199  0.14699820  0.62096930  1  0  0.027959  0  3.813737  0  0  0.044986  0  4.0467  0  0  0.040961  0  4.072152  0  0.017074  0  -0.019013  0.047439  0  4.029497  0
C  C58  1  0.06664655  0.84845035  0.49249105  1  0  -0.107197  0  3.769797  0  0  -0.124372  0  4.01818  0  0  -0.125293  0  4.039305  0  -0.093998  0  -0.091366  -0.123558  0  4.003778  0
C  C59  1  0.93335818  0.15155068  0.50750415  1  0  -0.107179  0  3.769692  0  0  -0.124348  0  4.018064  0  0  -0.125266  0  4.039186  0  -0.093683  0  -0.091392  -0.123532  0  4.003662  0
C  C60  1  0.13635651  0.92430696  0.50372447  1  0  -0.084596  0  3.81089  0  0  -0.103032  0  4.067783  0  0  -0.106122  0  4.090291  0  -0.050744  0  -0.10354  -0.100945  0  4.052364  0
C  C61  1  0.86364551  0.07569590  0.49627223  1  0  -0.084709  0  3.810887  0  0  -0.10315  0  4.067777  0  0  -0.106243  0  4.090287  0  -0.050485  0  -0.103561  -0.101057  0  4.052354  0
C  C62  1  0.21251449  0.00856678  0.40016071  1  0  -0.069231  0  3.79453  0  0  -0.083467  0  4.049811  0  0  -0.083634  0  4.070071  0  -0.019295  0  -0.095054  -0.083131  0  4.03586  0
C  C63  1  0.78748304  0.99143792  0.59983637  1  0  -0.069159  0  3.794475  0  0  -0.083383  0  4.049732  0  0  -0.083548  0  4.069989  0  -0.019232  0  -0.095001  -0.083048  0  4.035778  0
C  C64  1  0.22010619  0.01406245  0.28880440  1  0  -0.118564  0  3.740243  0  0  -0.141675  0  3.998434  0  0  -0.144531  0  4.017836  0  -0.048282  0  -0.097016  -0.139827  0  3.985272  0
C  C65  1  0.77989495  0.98593949  0.71119367  1  0  -0.118594  0  3.740221  0  0  -0.141749  0  3.998398  0  0  -0.144599  0  4.017804  0  -0.048302  0  -0.097053  -0.1399  0  3.985235  0
C  C66  1  0.15025429  0.93645457  0.27313624  1  0  0.041316  0  3.746055  0  0  0.047013  0  3.98262  0  0  0.050853  0  4.004586  0  -0.035469  0  -0.002656  0.044684  0  3.967735  0
C  C67  1  0.84974868  0.06354370  0.72686130  1  0  0.041215  0  3.746035  0  0  0.047013  0  3.982439  0  0  0.050831  0  4.004431  0  -0.035471  0  -0.002675  0.044686  0  3.967553  0
C  C68  1  0.15580367  0.93848422  0.15987136  1  0  -0.06493  0  3.665006  0  0  -0.055361  0  3.916951  0  0  -0.061879  0  3.939928  0  0.025514  0  -0.024655  -0.051217  0  3.901642  0
C  C69  1  0.84419748  0.06151681  0.84012552  1  0  -0.064871  0  3.665053  0  0  -0.055338  0  3.916932  0  0  -0.061848  0  3.939914  0  0.025638  0  -0.024678  -0.051197  0  3.901623  0
C  C70  1  0.07811426  0.86448551  0.15290039  1  0  0.280468  0  3.782657  0  0  0.257561  0  4.050908  0  0  0.270703  0  4.06733  0  0.498613  0  0.085274  0.248633  0  4.039589  0
C  C71  1  0.92188784  0.13551092  0.84709655  1  0  0.28043  0  3.78271  0  0  0.257577  0  4.050873  0  0  0.27072  0  4.067291  0  0.498599  0  0.085343  0.24865  0  4.039551  0
C  C72  1  0.24140606  0.01779940  0.04473801  1  0  -0.141837  0  3.703109  0  0  -0.192243  0  3.946271  0  0  -0.189853  0  3.957316  0  0.005598  0  -0.157582  -0.193692  0  3.938927  0
C  C73  1  0.75859418  0.98220254  0.95526107  1  0  -0.141885  0  3.703052  0  0  -0.192357  0  3.946357  0  0  -0.189977  0  3.957401  0  0.005641  0  -0.157582  -0.193799  0  3.939002  0
C  C74  1  0.33272014  0.94503696  0.98818990  1  0  -0.047658  0  3.640603  0  0  -0.037497  0  3.890651  0  0  -0.043919  0  3.913737  0  0.066383  0  -0.019241  -0.033493  0  3.875302  0
C  C75  1  0.66727918  0.05496774  0.01180906  1  0  -0.047686  0  3.640367  0  0  -0.037574  0  3.890506  0  0  -0.043996  0  3.913596  0  0.06597  0  -0.019286  -0.033571  0  3.875157  0
C  C76  1  0.34147264  0.94941035  0.87352145  1  0  0.045375  0  3.732232  0  0  0.049673  0  3.969332  0  0  0.053757  0  3.990647  0  -0.008812  0  -0.000676  0.047192  0  3.954884  0
C  C77  1  0.65852760  0.05059159  0.12647684  1  0  0.045408  0  3.732074  0  0  0.049736  0  3.969185  0  0  0.053819  0  3.990501  0  -0.008761  0  -0.000652  0.047254  0  3.954735  0
C  C78  1  0.26498861  0.02366794  0.79900122  1  0  -0.111617  0  3.723349  0  0  -0.135048  0  3.983083  0  0  -0.137219  0  4.000584  0  -0.06876  0  -0.094178  -0.133659  0  3.971207  0
C  C79  1  0.73500990  0.97632941  0.20100015  1  0  -0.111603  0  3.723302  0  0  -0.135027  0  3.983037  0  0  -0.1372  0  4.000542  0  -0.068736  0  -0.09414  -0.133638  0  3.971161  0
C  C80  1  0.27724739  0.02700447  0.68756284  1  0  -0.075667  0  3.791826  0  0  -0.089296  0  4.047587  0  0  -0.089299  0  4.067496  0  -0.062522  0  -0.096971  -0.089063  0  4.033899  0
C  C81  1  0.72275194  0.97299931  0.31243806  1  0  -0.07563  0  3.791827  0  0  -0.089253  0  4.047576  0  0  -0.089261  0  4.067493  0  -0.062527  0  -0.096967  -0.089019  0  4.033884  0
C  C82  1  0.36645854  0.95570962  0.64296637  1  0  -0.100153  0  3.822307  0  0  -0.117532  0  4.079046  0  0  -0.120656  0  4.101017  0  -0.051234  0  -0.108311  -0.115436  0  4.064022  0
C  C83  1  0.63354255  0.04429600  0.35703334  1  0  -0.100177  0  3.822239  0  0  -0.117571  0  4.079  0  0  -0.120696  0  4.100968  0  -0.051442  0  -0.108347  -0.115468  0  4.063985  0
C  C84  1  0.44141648  0.88161081  0.71259415  1  0  -0.112447  0  3.774077  0  0  -0.129265  0  4.020247  0  0  -0.130192  0  4.041664  0  -0.071052  0  -0.092334  -0.128427  0  4.005703  0
C  C85  1  0.55857935  0.11838654  0.28740945  1  0  -0.112523  0  3.774073  0  0  -0.129365  0  4.020288  0  0  -0.130284  0  4.041708  0  -0.071525  0  -0.092375  -0.128543  0  4.005737  0
C  C86  1  0.43167410  0.87638790  0.82753866  1  0  0.034313  0  3.812245  0  0  0.051629  0  4.044334  0  0  0.047737  0  4.069785  0  -0.02198  0  -0.017547  0.054029  0  4.027044  0
C  C87  1  0.56832351  0.12361037  0.17246256  1  0  0.03435  0  3.812224  0  0  0.051643  0  4.044349  0  0  0.047751  0  4.069799  0  -0.021965  0  -0.017565  0.054042  0  4.027064  0
C  C88  1  0.50940657  0.80090783  0.89751349  1  0  -0.085598  0  3.750753  0  0  -0.12096  0  4.004564  0  0  -0.116406  0  4.020914  0  -0.02773  0  -0.083513  -0.123571  0  3.993281  0
C  C89  1  0.49058839  0.19908769  0.10248797  1  0  -0.085698  0  3.750829  0  0  -0.121057  0  4.00465  0  0  -0.116512  0  4.020999  0  -0.027899  0  -0.083536  -0.123672  0  3.993362  0
C  C90  1  0.50333790  0.79857051  0.00756680  1  0  -0.192087  0  3.801814  0  0  -0.174292  0  4.048614  0  0  -0.186317  0  4.069947  0  -0.050517  0  -0.037393  -0.166554  0  4.034309  0
C  C91  1  0.49666061  0.20142776  0.99243343  1  0  -0.192081  0  3.80188  0  0  -0.174274  0  4.048639  0  0  -0.186291  0  4.069967  0  -0.050415  0  -0.037402  -0.166522  0  4.034315  0
C  C92  1  0.41509295  0.87281535  0.05208128  1  0  0.282056  0  3.775546  0  0  0.257268  0  4.045605  0  0  0.27051  0  4.061883  0  0.531946  0  0.086438  0.248222  0  4.034428  0
C  C93  1  0.58490637  0.12718843  0.94791572  1  0  0.282054  0  3.775496  0  0  0.257305  0  4.045513  0  0  0.270543  0  4.061792  0  0.532379  0  0.08647  0.248254  0  4.034334  0
C  C94  1  0.59028049  0.72227490  0.07632820  1  0  0.633049  0  3.92798  0  0  0.585814  0  4.211282  0  0  0.620804  0  4.205166  0  1.484863  0  0.189698  0.562087  0  4.214657  0
C  C95  1  0.40971978  0.27772520  0.92367317  1  0  0.633025  0  3.92802  0  0  0.585781  0  4.211328  0  0  0.620763  0  4.205214  0  1.484926  0  0.189667  0.56205  0  4.2147  0
C  C96  1  0.98605346  0.42929425  0.15889246  1  0  0.117726  0  3.728315  0  0  0.086556  0  3.979484  0  0  0.092957  0  4.000083  0  0.462285  0  0.043878  0.082532  0  3.96533  0
C  C97  1  0.01394588  0.57070769  0.84111385  1  0  0.117651  0  3.728071  0  0  0.086465  0  3.979268  0  0  0.092863  0  3.999872  0  0.461467  0  0.043872  0.082443  0  3.96511  0
C  C98  1  0.05372253  0.33143842  0.14245077  1  0  -0.1191  0  3.723865  0  0  -0.130414  0  3.972474  0  0  -0.138138  0  3.994611  0  -0.014845  0  -0.078718  -0.125429  0  3.957515  0
C  C99  1  0.94627593  0.66856353  0.85755420  1  0  -0.119045  0  3.724158  0  0  -0.130374  0  3.972741  0  0  -0.138097  0  3.994878  0  -0.014638  0  -0.078755  -0.125391  0  3.957783  0
C  C100  1  0.99619358  0.24228253  0.13405323  1  0  0.017755  0  3.673488  0  0  -0.000286  0  3.917179  0  0  0.003761  0  3.935376  0  -0.039801  0  -0.05653  -0.002676  0  3.904723  0
C  C101  1  0.00380488  0.75771850  0.86594900  1  0  0.017813  0  3.673717  0  0  -0.000206  0  3.917422  0  0  0.003843  0  3.935616  0  -0.039633  0  -0.056497  -0.002597  0  3.904973  0
C  C102  1  0.87391340  0.25518138  0.13986912  1  0  -0.116096  0  3.716529  0  0  -0.125218  0  3.959309  0  0  -0.131964  0  3.980863  0  -0.00962  0  -0.078907  -0.12097  0  3.944939  0
C  C103  1  0.12608418  0.74481873  0.86013371  1  0  -0.11607  0  3.716434  0  0  -0.125182  0  3.959189  0  0  -0.13193  0  3.980746  0  -0.009759  0  -0.078892  -0.120931  0  3.944815  0
C  C104  1  0.81286713  0.35549943  0.15665183  1  0  0.122509  0  3.724697  0  0  0.092304  0  3.971387  0  0  0.098718  0  3.991609  0  0.465073  0  0.046121  0.088292  0  3.957436  0
C  C105  1  0.18713499  0.64449609  0.84335405  1  0  0.122417  0  3.724509  0  0  0.092235  0  3.971207  0  0  0.098649  0  3.991429  0  0.465141  0  0.046079  0.088223  0  3.957255  0
C  C106  1  0.68367877  0.36405335  0.45908106  1  0  0.123617  0  3.720472  0  0  0.092779  0  3.967831  0  0  0.099326  0  3.988217  0  0.49374  0  0.046517  0.088694  0  3.95379  0
C  C107  1  0.31631964  0.63595226  0.54092243  1  0  0.123497  0  3.720559  0  0  0.092694  0  3.967906  0  0  0.099234  0  3.988296  0  0.49367  0  0.046464  0.088609  0  3.953863  0
C  C108  1  0.62305057  0.26659335  0.55836053  1  0  -0.116333  0  3.715932  0  0  -0.125306  0  3.9581  0  0  -0.132381  0  3.979767  0  -0.041173  0  -0.079777  -0.120798  0  3.943554  0
C  C109  1  0.37694878  0.73340860  0.44164500  1  0  -0.116159  0  3.715898  0  0  -0.125126  0  3.958141  0  0  -0.132203  0  3.979817  0  -0.041155  0  -0.079759  -0.120618  0  3.943595  0
C  C110  1  0.50163320  0.25382766  0.57220859  1  0  0.013583  0  3.682748  0  0  -0.004969  0  3.926091  0  0  -0.001044  0  3.944948  0  -0.062655  0  -0.059945  -0.007231  0  3.91317  0
C  C111  1  0.49836807  0.74616418  0.42779433  1  0  0.01352  0  3.682533  0  0  -0.005058  0  3.925861  0  0  -0.001135  0  3.94473  0  -0.062899  0  -0.059953  -0.007321  0  3.91294  0
C  C112  1  0.44464112  0.33998775  0.48734112  1  0  -0.123919  0  3.732148  0  0  -0.134154  0  3.980449  0  0  -0.142168  0  4.002885  0  -0.039362  0  -0.082012  -0.128964  0  3.965295  0
C  C113  1  0.55535933  0.65999858  0.51266190  1  0  -0.123766  0  3.731859  0  0  -0.133975  0  3.980139  0  0  -0.142005  0  4.002578  0  -0.03969  0  -0.081911  -0.128785  0  3.964985  0
C  C114  1  0.51181594  0.43495248  0.39035984  1  0  0.116949  0  3.734599  0  0  0.085014  0  3.986323  0  0  0.091694  0  4.006996  0  0.475194  0  0.042168  0.08081  0  3.972096  0
C  C115  1  0.48818269  0.56503569  0.60964446  1  0  0.116959  0  3.734484  0  0  0.085054  0  3.986174  0  0  0.091736  0  4.00685  0  0.475612  0  0.042187  0.080856  0  3.971941  0
N  N116  1  0.86755854  0.44048856  0.16697482  1  0  -0.351884  0  3.310631  0  0  -0.271057  0  3.578789  0  0  -0.292695  0  3.600414  0  -1.224647  0  -0.33625  -0.256308  0  3.563638  0
N  N117  1  0.13244275  0.55950236  0.83303782  1  0  -0.351849  0  3.310577  0  0  -0.27101  0  3.578726  0  0  -0.292648  0  3.600352  0  -1.224617  0  -0.33621  -0.256261  0  3.563574  0
N  N118  1  0.62945602  0.44617526  0.37609886  1  0  -0.354432  0  3.313981  0  0  -0.272895  0  3.582222  0  0  -0.294795  0  3.603837  0  -1.266107  0  -0.338984  -0.257982  0  3.567072  0
N  N119  1  0.37054066  0.55382577  0.62390304  1  0  -0.354554  0  3.31404  0  0  -0.273032  0  3.582286  0  0  -0.294933  0  3.603902  0  -1.266195  0  -0.339041  -0.258118  0  3.567134  0
O  O120  1  0.83832505  0.63763752  0.33974535  1  0  -0.620002  0  1.915015  0  0  -0.562578  0  2.141112  0  0  -0.589173  0  2.131346  0  -1.169721  0  -0.330526  -0.544157  0  2.147258  0
O  O121  1  0.16167434  0.36236167  0.66025583  1  0  -0.620034  0  1.914889  0  0  -0.562609  0  2.140986  0  0  -0.589205  0  2.131217  0  -1.169644  0  -0.330556  -0.544188  0  2.147136  0
O  O122  1  0.91213629  0.72113058  0.14233253  1  0  -0.65934  0  2.020163  0  0  -0.587348  0  2.261227  0  0  -0.615955  0  2.249398  0  -1.15223  0  -0.331  -0.567282  0  2.268543  0
O  O123  1  0.08786133  0.27886677  0.85766985  1  0  -0.659218  0  2.020252  0  0  -0.58721  0  2.261316  0  0  -0.61581  0  2.249477  0  -1.152156  0  -0.33091  -0.567144  0  2.268633  0
O  O124  1  0.08093781  0.87084998  0.04460826  1  0  -0.503311  0  2.149048  0  0  -0.453899  0  2.372819  0  0  -0.474181  0  2.366057  0  -1.159404  0  -0.347102  -0.439325  0  2.376868  0
O  O125  1  0.91906426  0.12914920  0.95539069  1  0  -0.503365  0  2.149027  0  0  -0.453901  0  2.372724  0  0  -0.474191  0  2.365972  0  -1.159347  0  -0.347138  -0.439338  0  2.376786  0
O  O126  1  0.41090718  0.87470357  0.15740374  1  0  -0.509132  0  2.155791  0  0  -0.458006  0  2.380515  0  0  -0.479485  0  2.375837  0  -1.170555  0  -0.344755  -0.442636  0  2.383248  0
O  O127  1  0.58909307  0.12529838  0.84259611  1  0  -0.509097  0  2.155865  0  0  -0.457983  0  2.380595  0  0  -0.479459  0  2.375919  0  -1.170437  0  -0.344744  -0.442614  0  2.383328  0
O  O128  1  0.58569578  0.72748128  0.17659822  1  0  -0.646603  0  2.011032  0  0  -0.574281  0  2.248439  0  0  -0.603115  0  2.238172  0  -1.156289  0  -0.327172  -0.554116  0  2.254772  0
O  O129  1  0.41430268  0.27252066  0.82340208  1  0  -0.646628  0  2.011075  0  0  -0.574277  0  2.248438  0  0  -0.603126  0  2.238207  0  -1.156256  0  -0.327175  -0.554111  0  2.254778  0
O  O130  1  0.66792222  0.65516599  0.03875767  1  0  -0.626147  0  1.919433  0  0  -0.567907  0  2.147692  0  0  -0.594787  0  2.137379  0  -1.174772  0  -0.333219  -0.549208  0  2.154088  0
O  O131  1  0.33207539  0.34483228  0.96124122  1  0  -0.626132  0  1.919468  0  0  -0.567887  0  2.147714  0  0  -0.594767  0  2.137411  0  -1.174823  0  -0.333216  -0.549188  0  2.154105  0
