# generated using pymatgen
data_HgH6C10(Br3N)2
_symmetry_space_group_name_H-M   'P 1'
_cell_length_a   3.98688068
_cell_length_b   14.45148246
_cell_length_c   14.53211816
_cell_angle_alpha   87.02673450
_cell_angle_beta   83.05420022
_cell_angle_gamma   82.67171219
_symmetry_Int_Tables_number   1
_chemical_formula_structural   HgH6C10(Br3N)2
_chemical_formula_sum   'Hg2 H12 C20 Br12 N4'
_cell_volume   823.78846322
_cell_formula_units_Z   2
loop_
 _symmetry_equiv_pos_site_id
 _symmetry_equiv_pos_as_xyz
  1  'x, y, z'
loop_
 _atom_site_type_symbol
 _atom_site_label
 _atom_site_symmetry_multiplicity
 _atom_site_fract_x
 _atom_site_fract_y
 _atom_site_fract_z
 _atom_site_occupancy
 _atom_site_pbe_bader_charge
 _atom_site_pbe_bader_spin_density
 _atom_site_pbe_cm5_charge
 _atom_site_pbe_ddec_charge
 _atom_site_pbe_ddec_spin_density
 _atom_site_pbe_ddec_sum_bond_order
 _atom_site_pbe_magmom
Hg  Hg0  1  0.99999386  0.00000278  0.99999735  1  0.741812  0  0.438572  0.47572  0  2.623428  0
Hg  Hg1  1  0.50013123  0.50000377  0.50001337  1  0.738441  0  0.435744  0.494749  0  2.649199  0
H  H2  1  0.66688220  0.22062010  0.02877197  1  0.130422  0  0.093699  0.084786  0  1.064574  0
H  H3  1  0.33305010  0.77938531  0.97122118  1  0.130232  0  0.093781  0.084896  0  1.064482  0
H  H4  1  0.72569056  0.31602145  0.30374980  1  0.149812  0  0.08953  0.13212  0  1.036035  0
H  H5  1  0.27428023  0.68397699  0.69624932  1  0.149498  0  0.089499  0.13202  0  1.036161  0
H  H6  1  0.11614687  0.03538400  0.21907962  1  0.14049  0  0.094001  0.084595  0  1.061216  0
H  H7  1  0.88383308  0.96461652  0.78090807  1  0.14042  0  0.094039  0.084629  0  1.061239  0
H  H8  1  0.64235097  0.53794580  0.27028838  1  0.116256  0  0.097096  0.084645  0  1.044033  0
H  H9  1  0.35769967  0.46203801  0.72973775  1  0.116422  0  0.097113  0.08469  0  1.044043  0
H  H10  1  0.99557309  0.80747637  0.20231473  1  0.130973  0  0.088248  0.127388  0  1.044318  0
H  H11  1  0.00435220  0.19252205  0.79767283  1  0.131183  0  0.088201  0.127423  0  1.044397  0
H  H12  1  0.46829181  0.73902986  0.47093055  1  0.116721  0  0.097832  0.084636  0  1.042205  0
H  H13  1  0.53176275  0.26097348  0.52907927  1  0.116635  0  0.09777  0.084601  0  1.042322  0
C  C14  1  0.74241164  0.20978004  0.09858870  1  0.569938  0  0.027039  0.017946  0  3.949013  0
C  C15  1  0.25753330  0.79022538  0.90141021  1  0.570041  0  0.026987  0.017915  0  3.948877  0
C  C16  1  0.68238783  0.28013011  0.16290836  1  -0.134452  0  -0.016496  0.082322  0  3.950067  0
C  C17  1  0.31754665  0.71987042  0.83708635  1  -0.133719  0  -0.016506  0.082291  0  3.950076  0
C  C18  1  0.77547655  0.26242944  0.25221766  1  0.120165  0  -0.089226  -0.141759  0  3.940434  0
C  C19  1  0.22449078  0.73757108  0.74777665  1  0.120286  0  -0.089157  -0.141583  0  3.940711  0
C  C20  1  0.93003831  0.17297320  0.27308078  1  -0.141384  0  -0.016984  0.081742  0  3.94734  0
C  C21  1  0.06993062  0.82702942  0.72691542  1  -0.141608  0  -0.016981  0.08171  0  3.947232  0
C  C22  1  0.98990346  0.10548665  0.20576536  1  0.522894  0  0.028193  0.018524  0  3.944403  0
C  C23  1  0.01007810  0.89451596  0.79422835  1  0.522836  0  0.028141  0.018473  0  3.944335  0
C  C24  1  0.67103821  0.60873697  0.28805398  1  0.582557  0  0.027024  0.021886  0  3.963338  0
C  C25  1  0.32901312  0.39125660  0.71196129  1  0.582519  0  0.027002  0.021757  0  3.963283  0
C  C26  1  0.83065887  0.66977548  0.22471774  1  -0.170198  0  -0.015691  0.085075  0  3.933248  0
C  C27  1  0.16932355  0.33021389  0.77528697  1  -0.170256  0  -0.015565  0.085427  0  3.932732  0
C  C28  1  0.86355306  0.75968124  0.24993225  1  0.08572  0  -0.089223  -0.133572  0  3.93113  0
C  C29  1  0.13639908  0.24031371  0.75006974  1  0.085682  0  -0.089276  -0.133823  0  3.930958  0
C  C30  1  0.72499834  0.78541364  0.33898011  1  -0.117727  0  -0.015521  0.082011  0  3.938777  0
C  C31  1  0.27498699  0.21458619  0.66101845  1  -0.11799  0  -0.015567  0.08196  0  3.938443  0
C  C32  1  0.57144876  0.72141758  0.40016949  1  0.592331  0  0.027991  0.022055  0  3.962316  0
C  C33  1  0.42859817  0.27858016  0.59983607  1  0.592283  0  0.028141  0.022142  0  3.962207  0
Br  Br34  1  0.54875919  0.09863647  0.89981234  1  -0.446881  0  -0.202592  -0.335874  0  1.49844  0
Br  Br35  1  0.45122076  0.90136405  0.10017879  1  -0.446959  0  -0.202629  -0.335925  0  1.498558  0
Br  Br36  1  0.47206426  0.40025552  0.12829089  1  -0.03494  0  0.037137  -0.050516  0  1.685188  0
Br  Br37  1  0.52783774  0.59974992  0.87171909  1  -0.034967  0  0.037151  -0.050517  0  1.685224  0
Br  Br38  1  0.05561413  0.14154143  0.39395947  1  -0.037197  0  0.036876  -0.053357  0  1.696192  0
Br  Br39  1  0.94437939  0.85845700  0.60603545  1  -0.037063  0  0.036933  -0.053314  0  1.696082  0
Br  Br40  1  0.15292365  0.41240728  0.39794702  1  -0.426887  0  -0.208069  -0.336309  0  1.511775  0
Br  Br41  1  0.84735900  0.58760023  0.60205979  1  -0.426809  0  -0.207945  -0.336115  0  1.511865  0
Br  Br42  1  0.74969146  0.90802092  0.37704125  1  -0.037558  0  0.040525  -0.051308  0  1.678625  0
Br  Br43  1  0.25029453  0.09198309  0.62295086  1  -0.037605  0  0.040533  -0.051287  0  1.678669  0
Br  Br44  1  0.00898349  0.63017925  0.10397811  1  -0.035951  0  0.039782  -0.053799  0  1.679769  0
Br  Br45  1  0.99097743  0.36980733  0.89602884  1  -0.036019  0  0.039762  -0.053895  0  1.679752  0
N  N46  1  0.89477539  0.12493262  0.12087391  1  -1.215124  0  -0.301909  -0.159372  0  3.496493  0
N  N47  1  0.10518343  0.87507000  0.87912401  1  -1.215329  0  -0.302016  -0.159471  0  3.496552  0
N  N48  1  0.54990876  0.63498891  0.37407288  1  -1.200081  0  -0.306463  -0.179162  0  3.47544  0
N  N49  1  0.45014638  0.36500745  0.62594348  1  -1.199866  0  -0.306524  -0.179177  0  3.475432  0
