# generated using pymatgen
data_ZnH19C24N6O5
_symmetry_space_group_name_H-M   'P 1'
_cell_length_a   9.51946027
_cell_length_b   11.93348335
_cell_length_c   11.97400000
_cell_angle_alpha   115.72087586
_cell_angle_beta   90.20965954
_cell_angle_gamma   102.47789687
_symmetry_Int_Tables_number   1
_chemical_formula_structural   ZnH19C24N6O5
_chemical_formula_sum   'Zn2 H38 C48 N12 O10'
_cell_volume   1189.16692436
_cell_formula_units_Z   2
loop_
 _symmetry_equiv_pos_site_id
 _symmetry_equiv_pos_as_xyz
  1  'x, y, z'
loop_
 _atom_site_type_symbol
 _atom_site_label
 _atom_site_symmetry_multiplicity
 _atom_site_fract_x
 _atom_site_fract_y
 _atom_site_fract_z
 _atom_site_occupancy
 _atom_site_hle17_bader_spin_density
 _atom_site_hle17_ddec_charge
 _atom_site_hle17_ddec_spin_density
 _atom_site_hle17_ddec_sum_bond_order
 _atom_site_hle17_magmom
 _atom_site_hse06_10hf_bader_spin_density
 _atom_site_hse06_10hf_ddec_charge
 _atom_site_hse06_10hf_ddec_spin_density
 _atom_site_hse06_10hf_ddec_sum_bond_order
 _atom_site_hse06_10hf_magmom
 _atom_site_hse06_bader_spin_density
 _atom_site_hse06_ddec_charge
 _atom_site_hse06_ddec_spin_density
 _atom_site_hse06_ddec_sum_bond_order
 _atom_site_hse06_magmom
 _atom_site_pbe_bader_charge
 _atom_site_pbe_bader_spin_density
 _atom_site_pbe_cm5_charge
 _atom_site_pbe_ddec_charge
 _atom_site_pbe_ddec_spin_density
 _atom_site_pbe_ddec_sum_bond_order
 _atom_site_pbe_magmom
Zn  Zn0  1  0.40049920  0.65921772  0.24125330  1  0  1.000161  0  1.879913  0  0  0.803906  0  2.366509  0  0  0.850512  0  2.310001  0  1.263333  0  0.708358  0.769993  0  2.406407  0
Zn  Zn1  1  0.59950540  0.34078149  0.75874679  1  0  1.000233  0  1.879896  0  0  0.804006  0  2.366493  0  0  0.850614  0  2.30998  0  1.263203  0  0.708395  0.77009  0  2.406392  0
H  H2  1  0.96284009  0.67949447  0.21354840  1  0  0.124312  0  0.936271  0  0  0.132354  0  0.998472  0  0  0.137229  0  0.994243  0  0.132484  0  0.110696  0.128606  0  1.001779  0
H  H3  1  0.03716188  0.32051432  0.78645332  1  0  0.124242  0  0.936238  0  0  0.132305  0  0.998433  0  0  0.137217  0  0.994162  0  0.132498  0  0.110701  0.128578  0  1.001715  0
H  H4  1  0.19418338  0.07484876  0.40145937  1  0  0.107875  0  0.978198  0  0  0.112676  0  1.051576  0  0  0.116814  0  1.048708  0  0.078988  0  0.099962  0.109555  0  1.053882  0
H  H5  1  0.80581597  0.92515045  0.59854405  1  0  0.107888  0  0.978251  0  0  0.112719  0  1.051587  0  0  0.116858  0  1.048718  0  0.079005  0  0.099977  0.109599  0  1.053891  0
H  H6  1  0.72752433  0.97457802  0.32402987  1  0  0.11652  0  0.944244  0  0  0.126551  0  1.007621  0  0  0.130866  0  1.003949  0  0.067192  0  0.105078  0.123415  0  1.010273  0
H  H7  1  0.27247502  0.02542118  0.67597438  1  0  0.116537  0  0.944198  0  0  0.126564  0  1.00759  0  0  0.130878  0  1.003916  0  0.067221  0  0.105091  0.123428  0  1.010241  0
H  H8  1  0.15932762  0.24518151  0.39271258  1  0  0.042899  0  0.938031  0  0  0.054894  0  1.007673  0  0  0.055773  0  1.005654  0  0.013318  0  0.092949  0.054326  0  1.008816  0
H  H9  1  0.84066937  0.75481674  0.60728874  1  0  0.042932  0  0.938068  0  0  0.054906  0  1.007704  0  0  0.055786  0  1.005686  0  0.013262  0  0.092959  0.054338  0  1.008847  0
H  H10  1  0.12667817  0.26975535  0.54806753  1  0  0.074807  0  0.928204  0  0  0.087304  0  0.991935  0  0  0.087272  0  0.992212  0  0.066339  0  0.104491  0.087203  0  0.991748  0
H  H11  1  0.87332538  0.73024769  0.45193672  1  0  0.07485  0  0.928274  0  0  0.087328  0  0.991983  0  0  0.087296  0  0.992262  0  0.066406  0  0.104488  0.087227  0  0.991796  0
H  H12  1  0.88777865  0.37757563  0.61395206  1  0  0.102751  0  0.951026  0  0  0.112248  0  1.014286  0  0  0.114771  0  1.013476  0  0.070101  0  0.102788  0.110277  0  1.015117  0
H  H13  1  0.11221913  0.62242166  0.38604885  1  0  0.102824  0  0.95099  0  0  0.112311  0  1.014254  0  0  0.114834  0  1.013443  0  0.070186  0  0.102824  0.110341  0  1.015081  0
H  H14  1  0.18427885  0.42532674  0.35769403  1  0  0.079929  0  0.976845  0  0  0.085002  0  1.05076  0  0  0.087628  0  1.049974  0  0.046293  0  0.090996  0.083237  0  1.05101  0
H  H15  1  0.81571683  0.57467055  0.64230521  1  0  0.079924  0  0.976812  0  0  0.084969  0  1.050752  0  0  0.087596  0  1.049965  0  0.046271  0  0.091011  0.083204  0  1.051002  0
H  H16  1  0.54062668  0.41595423  0.13511118  1  0  0.135778  0  0.941635  0  0  0.143558  0  1.00199  0  0  0.146859  0  0.998286  0  0.22379  0  0.148893  0.141018  0  1.004857  0
H  H17  1  0.45937267  0.58404498  0.86488472  1  0  0.135759  0  0.941645  0  0  0.143514  0  1.002031  0  0  0.146815  0  0.998327  0  0.223773  0  0.148873  0.140974  0  1.004898  0
H  H18  1  0.10715648  0.19500436  0.01713685  1  0  0.10364  0  0.92344  0  0  0.115881  0  0.980677  0  0  0.117958  0  0.979074  0  0.120399  0  0.143494  0.114492  0  0.981661  0
H  H19  1  0.89284155  0.80499772  0.98286530  1  0  0.103672  0  0.923439  0  0  0.115914  0  0.980673  0  0  0.117991  0  0.97907  0  0.120418  0  0.143516  0.114525  0  0.981656  0
H  H20  1  0.38560747  0.11654962  0.90547440  1  0  0.101959  0  0.935551  0  0  0.113178  0  1.003813  0  0  0.114103  0  1.003172  0  0.093833  0  0.116087  0.112436  0  1.004287  0
H  H21  1  0.61438951  0.88344863  0.09452358  1  0  0.101945  0  0.935559  0  0  0.113161  0  1.003835  0  0  0.114086  0  1.003193  0  0.093839  0  0.116081  0.11242  0  1.004309  0
H  H22  1  0.30979465  0.07049415  0.01931512  1  0  0.078783  0  0.938464  0  0  0.092285  0  1.003719  0  0  0.092638  0  1.004315  0  0.069388  0  0.110419  0.091781  0  1.003563  0
H  H23  1  0.69020443  0.92950793  0.98068786  1  0  0.078761  0  0.938482  0  0  0.092257  0  1.00375  0  0  0.092608  0  1.004347  0  0.069386  0  0.110419  0.091755  0  1.003592  0
H  H24  1  0.62736526  0.20322951  0.91055081  1  0  0.103075  0  0.972023  0  0  0.112615  0  1.036745  0  0  0.115492  0  1.035187  0  0.120834  0  0.104162  0.110449  0  1.038125  0
H  H25  1  0.37263120  0.79677065  0.08944800  1  0  0.103049  0  0.97204  0  0  0.112604  0  1.03674  0  0  0.115482  0  1.03518  0  0.120868  0  0.104155  0.110438  0  1.03812  0
H  H26  1  0.88359336  0.25371051  0.99210631  1  0  0.10252  0  0.948017  0  0  0.112561  0  1.007635  0  0  0.114907  0  1.007269  0  0.106903  0  0.106387  0.110787  0  1.008183  0
H  H27  1  0.11640703  0.74628869  0.00788875  1  0  0.102575  0  0.948084  0  0  0.112575  0  1.007727  0  0  0.114918  0  1.007366  0  0.106879  0  0.106399  0.110799  0  1.008276  0
H  H28  1  0.94298680  0.24194455  0.19174914  1  0  0.086321  0  0.96382  0  0  0.094479  0  1.028846  0  0  0.096926  0  1.028338  0  0.093931  0  0.098482  0.092507  0  1.029635  0
H  H29  1  0.05701176  0.75805561  0.80824800  1  0  0.086316  0  0.963884  0  0  0.094494  0  1.028886  0  0  0.096942  0  1.028377  0  0.093892  0  0.098486  0.092541  0  1.029656  0
H  H30  1  0.74824391  0.18085358  0.30194435  1  0  0.10137  0  0.972735  0  0  0.105399  0  1.044724  0  0  0.1089  0  1.042897  0  0.115513  0  0.10215  0.102918  0  1.046002  0
H  H31  1  0.25175622  0.81914850  0.69805447  1  0  0.101384  0  0.972748  0  0  0.105396  0  1.04474  0  0  0.108892  0  1.04292  0  0.11553  0  0.102152  0.102914  0  1.046021  0
H  H32  1  0.35038116  0.12239665  0.21193629  1  0  0.080821  0  0.925064  0  0  0.095328  0  0.988733  0  0  0.096433  0  0.98752  0  0.045705  0  0.111555  0.094558  0  0.989573  0
H  H33  1  0.64961766  0.87759680  0.78806464  1  0  0.080775  0  0.925017  0  0  0.095302  0  0.988654  0  0  0.096406  0  0.987442  0  0.045674  0  0.111564  0.094533  0  0.989496  0
H  H34  1  0.45151650  0.02849231  0.24062129  1  0  0.107734  0  0.928372  0  0  0.12189  0  0.991174  0  0  0.122841  0  0.99087  0  0.113479  0  0.122519  0.121261  0  0.991198  0
H  H35  1  0.54849178  0.97150498  0.75937631  1  0  0.107602  0  0.928403  0  0  0.121743  0  0.991257  0  0  0.122692  0  0.990952  0  0.113354  0  0.122434  0.121114  0  0.991282  0
H  H36  1  0.52140561  0.09908040  0.46940439  1  0  0.141415  0  0.936567  0  0  0.148835  0  0.998666  0  0  0.152313  0  0.993973  0  0.219847  0  0.150561  0.146128  0  1.002241  0
H  H37  1  0.47859584  0.90091880  0.53059819  1  0  0.141433  0  0.936511  0  0  0.148813  0  0.998651  0  0  0.152291  0  0.993958  0  0.219874  0  0.15055  0.146105  0  1.002227  0
H  H38  1  0.48127584  0.39552028  0.37421887  1  0  0.106003  0  0.967529  0  0  0.106121  0  1.044356  0  0  0.110025  0  1.03994  0  0.184718  0  0.136437  0.103289  0  1.047427  0
H  H39  1  0.51872798  0.60447605  0.62577746  1  0  0.105961  0  0.967574  0  0  0.106119  0  1.044365  0  0  0.110023  0  1.039948  0  0.18463  0  0.136432  0.103287  0  1.047436  0
C  C40  1  0.69005821  0.71617071  0.22394705  1  0  0.626451  0  3.93256  0  0  0.578991  0  4.224612  0  0  0.611733  0  4.218796  0  1.553485  0  0.192313  0.556839  0  4.227648  0
C  C41  1  0.30994193  0.28382753  0.77605094  1  0  0.626413  0  3.932572  0  0  0.578963  0  4.224601  0  0  0.611703  0  4.218792  0  1.553494  0  0.192295  0.556811  0  4.227638  0
C  C42  1  0.83049698  0.81681256  0.26267883  1  0  -0.053358  0  3.797857  0  0  -0.027655  0  4.036379  0  0  -0.034052  0  4.058982  0  -0.029828  0  -0.025981  -0.023726  0  4.021442  0
C  C43  1  0.16949948  0.18318760  0.73731831  1  0  -0.053492  0  3.797997  0  0  -0.02777  0  4.036486  0  0  -0.034169  0  4.0591  0  -0.029802  0  -0.026029  -0.023845  0  4.021561  0
C  C44  1  0.96209692  0.78053794  0.25505135  1  0  -0.106984  0  3.716842  0  0  -0.148419  0  3.972677  0  0  -0.147415  0  3.990455  0  -0.022557  0  -0.090563  -0.148415  0  3.960752  0
C  C45  1  0.03790347  0.21946510  0.74494871  1  0  -0.106825  0  3.716804  0  0  -0.148286  0  3.972644  0  0  -0.147313  0  3.990408  0  -0.022966  0  -0.090573  -0.148302  0  3.960713  0
C  C46  1  0.09164642  0.87454772  0.30362606  1  0  -0.040463  0  3.789921  0  0  -0.01479  0  4.024582  0  0  -0.021242  0  4.047451  0  0.001501  0  -0.022941  -0.010594  0  4.00865  0
C  C47  1  0.90835267  0.12545053  0.69637360  1  0  -0.040446  0  3.78995  0  0  -0.014775  0  4.024603  0  0  -0.021232  0  4.047491  0  0.001835  0  -0.022912  -0.01058  0  4.008676  0
C  C48  1  0.23295046  0.83714395  0.30038143  1  0  0.632422  0  3.927599  0  0  0.584775  0  4.218304  0  0  0.618587  0  4.210883  0  1.579953  0  0.199563  0.562418  0  4.221203  0
C  C49  1  0.76705282  0.16285813  0.69962324  1  0  0.632254  0  3.927557  0  0  0.584638  0  4.218228  0  0  0.61845  0  4.21081  0  1.579896  0  0.199486  0.562282  0  4.221125  0
C  C50  1  0.09151137  0.00503708  0.35947341  1  0  -0.212689  0  3.745924  0  0  -0.245445  0  3.997426  0  0  -0.248795  0  4.017297  0  -0.059338  0  -0.109394  -0.243415  0  3.984689  0
C  C51  1  0.90849034  0.99496309  0.64052875  1  0  -0.212705  0  3.746031  0  0  -0.245483  0  3.997511  0  0  -0.248838  0  4.01738  0  -0.059307  0  -0.109375  -0.243453  0  3.984774  0
C  C52  1  0.96051109  0.04085927  0.36363186  1  0  0.262913  0  3.84001  0  0  0.258208  0  4.099327  0  0  0.267378  0  4.116772  0  0.427016  0  0.076645  0.251632  0  4.087997  0
C  C53  1  0.03949115  0.95913898  0.63637032  1  0  0.262919  0  3.840076  0  0  0.258235  0  4.099391  0  0  0.267416  0  4.116822  0  0.426996  0  0.076643  0.25166  0  4.088063  0
C  C54  1  0.82994294  0.94650842  0.31551356  1  0  -0.17381  0  3.697505  0  0  -0.209457  0  3.95142  0  0  -0.210692  0  3.967874  0  -0.009632  0  -0.098243  -0.208729  0  3.940873  0
C  C55  1  0.17005352  0.05349174  0.68448859  1  0  -0.173816  0  3.697552  0  0  -0.209468  0  3.951448  0  0  -0.210705  0  3.967896  0  -0.009627  0  -0.098255  -0.208737  0  3.940899  0
C  C56  1  0.08001595  0.26569502  0.46148461  1  0  0.061226  0  3.629608  0  0  -0.001901  0  3.890708  0  0  0.007183  0  3.894422  0  0.432548  0  -0.060315  -0.007865  0  3.887915  0
C  C57  1  0.91998339  0.73430419  0.53851880  1  0  0.061042  0  3.629914  0  0  -0.001974  0  3.890908  0  0  0.007104  0  3.894632  0  0.432743  0  -0.060343  -0.007936  0  3.888116  0
C  C58  1  0.04033280  0.38780794  0.48315475  1  0  0.055713  0  3.769656  0  0  0.077118  0  4.002208  0  0  0.075635  0  4.026689  0  -0.029352  0  -0.016094  0.077997  0  3.985733  0
C  C59  1  0.95966393  0.61218935  0.51684616  1  0  0.055636  0  3.769712  0  0  0.076999  0  4.002273  0  0  0.075518  0  4.026757  0  -0.029804  0  -0.016157  0.077881  0  3.985796  0
C  C60  1  0.93666257  0.43073572  0.56354433  1  0  -0.088273  0  3.712688  0  0  -0.109347  0  3.957141  0  0  -0.111324  0  3.978845  0  -0.004865  0  -0.088215  -0.108015  0  3.94291  0
C  C61  1  0.06333179  0.56926061  0.43645448  1  0  -0.088232  0  3.712591  0  0  -0.109291  0  3.957052  0  0  -0.111267  0  3.978753  0  -0.004729  0  -0.088186  -0.10796  0  3.94282  0
C  C62  1  0.10315106  0.45794936  0.42027344  1  0  -0.12019  0  3.777647  0  0  -0.13847  0  4.026002  0  0  -0.142115  0  4.04983  0  -0.035016  0  -0.096189  -0.136122  0  4.009799  0
C  C63  1  0.89684671  0.54204793  0.57972663  1  0  -0.120009  0  3.777606  0  0  -0.138248  0  4.025978  0  0  -0.141894  0  4.049808  0  -0.034481  0  -0.096133  -0.135902  0  4.009775  0
C  C64  1  0.42332306  0.38607780  0.11696222  1  0  0.165211  0  3.607667  0  0  0.096834  0  3.872107  0  0  0.110838  0  3.883481  0  0.949517  0  0.165271  0.087586  0  3.864476  0
C  C65  1  0.57667550  0.61392237  0.88303493  1  0  0.165253  0  3.607704  0  0  0.0969  0  3.872132  0  0  0.110906  0  3.883506  0  0.949378  0  0.1653  0.087651  0  3.864501  0
C  C66  1  0.20002500  0.27622639  0.05851502  1  0  0.123966  0  3.676573  0  0  0.066182  0  3.954594  0  0  0.075618  0  3.968115  0  0.984858  0  0.15088  0.060228  0  3.945448  0
C  C67  1  0.79997172  0.72377474  0.94148754  1  0  0.123896  0  3.676687  0  0  0.066109  0  3.954705  0  0  0.075543  0  3.968226  0  0.984816  0  0.150848  0.060154  0  3.945561  0
C  C68  1  0.38894336  0.14424539  0.00593140  1  0  -0.041629  0  3.650892  0  0  -0.113161  0  3.907608  0  0  -0.108226  0  3.918422  0  0.270717  0  -0.048403  -0.116428  0  3.900719  0
C  C69  1  0.61105624  0.85575477  0.99406909  1  0  -0.041597  0  3.650785  0  0  -0.113144  0  3.907569  0  0  -0.108206  0  3.918379  0  0.270851  0  -0.048394  -0.116414  0  3.900684  0
C  C70  1  0.54106263  0.16357799  0.05894394  1  0  0.00457  0  3.7495  0  0  0.023047  0  3.985941  0  0  0.020841  0  4.011983  0  0.001283  0  -0.01779  0.024605  0  3.968428  0
C  C71  1  0.45893436  0.83642026  0.94105572  1  0  0.004617  0  3.749576  0  0  0.023061  0  3.986054  0  0  0.020858  0  4.012095  0  0.001456  0  -0.01782  0.024621  0  3.968539  0
C  C72  1  0.65408739  0.19596002  0.99540235  1  0  -0.108276  0  3.729822  0  0  -0.1273  0  3.973891  0  0  -0.13036  0  3.996629  0  -0.07282  0  -0.088559  -0.12569  0  3.95902  0
C  C73  1  0.34591064  0.80404206  0.00459730  1  0  -0.108198  0  3.729961  0  0  -0.127206  0  3.974  0  0  -0.130268  0  3.996741  0  -0.072882  0  -0.088476  -0.125596  0  3.959124  0
C  C74  1  0.79858360  0.22379478  0.04122656  1  0  -0.063065  0  3.756538  0  0  -0.076565  0  4.001076  0  0  -0.078451  0  4.022884  0  -0.076509  0  -0.086751  -0.075499  0  3.9872  0
C  C75  1  0.20141470  0.77620826  0.95877183  1  0  -0.063192  0  3.756813  0  0  -0.076672  0  4.001363  0  0  -0.078558  0  4.023171  0  -0.076481  0  -0.086829  -0.075606  0  3.987493  0
C  C76  1  0.83113989  0.21743302  0.15184177  1  0  -0.057737  0  3.769604  0  0  -0.070186  0  4.016045  0  0  -0.071633  0  4.037418  0  -0.086178  0  -0.087508  -0.069072  0  4.002104  0
C  C77  1  0.16885946  0.78257003  0.84815662  1  0  -0.057696  0  3.769747  0  0  -0.070158  0  4.016157  0  0  -0.071605  0  4.037528  0  -0.086093  0  -0.08748  -0.06906  0  4.002209  0
C  C78  1  0.71981273  0.18364961  0.21501602  1  0  -0.110682  0  3.734257  0  0  -0.133122  0  3.986091  0  0  -0.135682  0  4.007396  0  -0.080816  0  -0.091642  -0.131203  0  3.971211  0
C  C79  1  0.28018793  0.81635822  0.78498445  1  0  -0.110716  0  3.734255  0  0  -0.133136  0  3.986078  0  0  -0.135692  0  4.007382  0  -0.080597  0  -0.091651  -0.131221  0  3.971208  0
C  C80  1  0.57419248  0.15722006  0.17052039  1  0  0.013408  0  3.720976  0  0  0.029878  0  3.960068  0  0  0.027977  0  3.98528  0  -0.024309  0  -0.015129  0.031513  0  3.942754  0
C  C81  1  0.42580713  0.84278011  0.82947843  1  0  0.013344  0  3.72096  0  0  0.029826  0  3.96004  0  0  0.027923  0  3.985251  0  -0.024656  0  -0.015108  0.031462  0  3.942725  0
C  C82  1  0.45853636  0.12357948  0.24516857  1  0  -0.036428  0  3.637646  0  0  -0.106458  0  3.893217  0  0  -0.101446  0  3.903431  0  0.309763  0  -0.043488  -0.109846  0  3.886347  0
C  C83  1  0.54146561  0.87641781  0.75482985  1  0  -0.036141  0  3.637454  0  0  -0.10618  0  3.892963  0  0  -0.101161  0  3.903175  0  0.309975  0  -0.043427  -0.109573  0  3.886095  0
C  C84  1  0.52176658  0.19241633  0.47544812  1  0  0.176992  0  3.583973  0  0  0.109447  0  3.846877  0  0  0.123768  0  3.85754  0  0.995668  0  0.17082  0.099758  0  3.840024  0
C  C85  1  0.47823460  0.80758192  0.52454988  1  0  0.176974  0  3.583887  0  0  0.10945  0  3.846754  0  0  0.123772  0  3.857419  0  0.995519  0  0.17082  0.099756  0  3.8399  0
C  C86  1  0.49906248  0.34411334  0.42681734  1  0  0.140281  0  3.649091  0  0  0.085406  0  3.919657  0  0  0.095695  0  3.932097  0  0.958168  0  0.15292  0.078974  0  3.910629  0
C  C87  1  0.50093976  0.65588491  0.57318149  1  0  0.140398  0  3.649052  0  0  0.085455  0  3.919624  0  0  0.095747  0  3.932066  0  0.958265  0  0.152957  0.079019  0  3.910594  0
N  N88  1  0.33756811  0.46638059  0.14561008  1  0  -0.258723  0  3.229358  0  0  -0.182802  0  3.53998  0  0  -0.199634  0  3.549514  0  -0.776279  0  -0.237345  -0.17126  0  3.533181  0
N  N89  1  0.66243071  0.53362053  0.85438832  1  0  -0.258812  0  3.229496  0  0  -0.182905  0  3.540145  0  0  -0.199742  0  3.549676  0  -0.775914  0  -0.237397  -0.17136  0  3.533343  0
N  N90  1  0.19546829  0.39763576  0.10902346  1  0  -0.191036  0  2.879384  0  0  -0.177444  0  3.151183  0  0  -0.182901  0  3.164772  0  -0.666402  0  -0.216672  -0.173676  0  3.142353  0
N  N91  1  0.80453079  0.60236633  0.89097702  1  0  -0.190942  0  2.879454  0  0  -0.177348  0  3.151253  0  0  -0.182803  0  3.164843  0  -0.666324  0  -0.216613  -0.173581  0  3.142422  0
N  N92  1  0.33987252  0.26428885  0.06272808  1  0  -0.087323  0  3.525437  0  0  0.008481  0  3.750399  0  0  -0.007957  0  3.774467  0  -1.208716  0  -0.231131  0.019323  0  3.7343  0
N  N93  1  0.66012604  0.73571131  0.93727073  1  0  -0.087354  0  3.52547  0  0  0.008464  0  3.750396  0  0  -0.007973  0  3.774463  0  -1.209134  0  -0.231148  0.019307  0  3.734298  0
N  N94  1  0.48899746  0.21506545  0.37760010  1  0  -0.088293  0  3.540732  0  0  0.007119  0  3.763922  0  0  -0.009459  0  3.787419  0  -1.232506  0  -0.231941  0.017995  0  3.748053  0
N  N95  1  0.51100162  0.78493280  0.62239789  1  0  -0.088463  0  3.540755  0  0  0.007003  0  3.7639  0  0  -0.009581  0  3.787402  0  -1.232494  0  -0.231993  0.017893  0  3.748018  0
N  N96  1  0.53435920  0.39860866  0.54825961  1  0  -0.223089  0  2.967949  0  0  -0.201999  0  3.246598  0  0  -0.210362  0  3.263378  0  -0.720275  0  -0.218963  -0.196012  0  3.234358  0
N  N97  1  0.46564408  0.60138958  0.45173923  1  0  -0.223173  0  2.967996  0  0  -0.202086  0  3.246668  0  0  -0.210448  0  3.263448  0  -0.720353  0  -0.21901  -0.1961  0  3.234429  0
N  N98  1  0.54892788  0.30237414  0.57821374  1  0  -0.264825  0  3.249679  0  0  -0.192125  0  3.557877  0  0  -0.209656  0  3.571462  0  -0.789091  0  -0.238867  -0.180118  0  3.548497  0
N  N99  1  0.45107751  0.69762411  0.42178427  1  0  -0.264716  0  3.249535  0  0  -0.191992  0  3.557676  0  0  -0.209526  0  3.571266  0  -0.788933  0  -0.2388  -0.179985  0  3.548296  0
O  O100  1  0.68730339  0.60945274  0.21988940  1  0  -0.598724  0  1.891028  0  0  -0.554541  0  2.099959  0  0  -0.575808  0  2.091628  0  -1.168771  0  -0.323508  -0.539551  0  2.105095  0
O  O101  1  0.31269753  0.39054838  0.78010983  1  0  -0.598683  0  1.890974  0  0  -0.5545  0  2.099899  0  0  -0.575767  0  2.091573  0  -1.168761  0  -0.323473  -0.539509  0  2.105035  0
O  O102  1  0.57629846  0.75194402  0.20260469  1  0  -0.672666  0  2.051436  0  0  -0.601541  0  2.334589  0  0  -0.629403  0  2.318143  0  -1.173328  0  -0.347057  -0.581987  0  2.345571  0
O  O103  1  0.42370351  0.24805710  0.79739371  1  0  -0.672651  0  2.05148  0  0  -0.60154  0  2.334633  0  0  -0.629402  0  2.318186  0  -1.173295  0  -0.347052  -0.581981  0  2.345601  0
O  O104  1  0.22568280  0.71650428  0.23119037  1  0  -0.638263  0  2.051369  0  0  -0.561696  0  2.322993  0  0  -0.589722  0  2.306124  0  -1.171372  0  -0.331971  -0.541681  0  2.333657  0
O  O105  1  0.77432520  0.28349972  0.76880929  1  0  -0.638184  0  2.051251  0  0  -0.561648  0  2.322892  0  0  -0.589677  0  2.306029  0  -1.171303  0  -0.33196  -0.541634  0  2.333559  0
O  O106  1  0.34642378  0.91949225  0.36087608  1  0  -0.633019  0  1.918927  0  0  -0.589517  0  2.148201  0  0  -0.611667  0  2.138294  0  -1.198554  0  -0.331131  -0.572867  0  2.153529  0
O  O107  1  0.65357582  0.08050792  0.63913526  1  0  -0.632935  0  1.918877  0  0  -0.589457  0  2.148178  0  0  -0.611608  0  2.138272  0  -1.198447  0  -0.331081  -0.572804  0  2.153493  0
O  O108  1  0.94835569  0.16480778  0.41313942  1  0  -0.292389  0  2.323316  0  0  -0.218722  0  2.55496  0  0  -0.237618  0  2.559043  0  -1.074565  0  -0.179136  -0.205444  0  2.551885  0
O  O109  1  0.05164497  0.83518855  0.58686359  1  0  -0.292322  0  2.323326  0  0  -0.218726  0  2.554962  0  0  -0.23762  0  2.559043  0  -1.074795  0  -0.179131  -0.205457  0  2.551896  0
