# generated using pymatgen
data_Cr2NiH16C12N4O7
_symmetry_space_group_name_H-M   'P 1'
_cell_length_a   9.22864107
_cell_length_b   8.47129591
_cell_length_c   10.42587651
_cell_angle_alpha   97.15624290
_cell_angle_beta   89.99775975
_cell_angle_gamma   89.99883351
_symmetry_Int_Tables_number   1
_chemical_formula_structural   Cr2NiH16C12N4O7
_chemical_formula_sum   'Cr4 Ni2 H32 C24 N8 O14'
_cell_volume   808.73053320
_cell_formula_units_Z   2
loop_
 _symmetry_equiv_pos_site_id
 _symmetry_equiv_pos_as_xyz
  1  'x, y, z'
loop_
 _atom_site_type_symbol
 _atom_site_label
 _atom_site_symmetry_multiplicity
 _atom_site_fract_x
 _atom_site_fract_y
 _atom_site_fract_z
 _atom_site_occupancy
 _atom_site_pbe_bader_spin_density
 _atom_site_pbe_cm5_charge
 _atom_site_pbe_ddec_charge
 _atom_site_pbe_ddec_spin_density
 _atom_site_pbe_ddec_sum_bond_order
 _atom_site_pbe_magmom
Cr  Cr0  1  0.34237768  0.85214870  0.22642499  1  0  1.259551  1.726446  0  4.129022  0
Cr  Cr1  1  0.84233827  0.14786316  0.77357724  1  0  1.259573  1.726428  0  4.130009  0
Cr  Cr2  1  0.56768427  0.14973298  0.25592031  1  0  1.258211  1.736459  0  4.093478  0
Cr  Cr3  1  0.06770378  0.85028160  0.74406459  1  0  1.258121  1.736362  0  4.09339  0
Ni  Ni4  1  0.95188730  0.01155238  0.25533471  1  0  0.660271  0.509818  0  2.853823  0
Ni  Ni5  1  0.45188257  0.98844790  0.74466721  1  0  0.660356  0.509953  0  2.854056  0
H  H6  1  0.68462980  0.52186763  0.30443714  1  0  0.110785  0.125305  0  1.018843  0
H  H7  1  0.18464534  0.47815366  0.69556483  1  0  0.110717  0.125307  0  1.018806  0
H  H8  1  0.75340774  0.37036166  0.09135597  1  0  0.108313  0.131038  0  1.030782  0
H  H9  1  0.25340986  0.62964560  0.90864771  1  0  0.108282  0.130955  0  1.030789  0
H  H10  1  0.91598016  0.50588420  0.94273422  1  0  0.1124  0.12809  0  1.011751  0
H  H11  1  0.41597523  0.49411033  0.05725764  1  0  0.112394  0.128008  0  1.011728  0
H  H12  1  0.99996646  0.77579403  0.01186610  1  0  0.12249  0.085249  0  1.051281  0
H  H13  1  0.49995407  0.22418637  0.98811736  1  0  0.122473  0.085187  0  1.051415  0
H  H14  1  0.79366905  0.75212237  0.48032509  1  0  0.11763  0.110789  0  0.956969  0
H  H15  1  0.29368696  0.24786282  0.51966107  1  0  0.117608  0.110828  0  0.956979  0
H  H16  1  0.66455224  0.86010495  0.40052312  1  0  0.118645  0.110978  0  0.999165  0
H  H17  1  0.16455881  0.13990502  0.59947811  1  0  0.118686  0.111013  0  0.999196  0
H  H18  1  0.21500522  0.50304892  0.19931600  1  0  0.112763  0.127084  0  1.022287  0
H  H19  1  0.71501993  0.49693723  0.80067483  1  0  0.112722  0.127  0  1.022251  0
H  H20  1  0.14023401  0.65958620  0.40924975  1  0  0.109642  0.11463  0  1.014754  0
H  H21  1  0.64022199  0.34040525  0.59075480  1  0  0.109688  0.114708  0  1.014902  0
H  H22  1  0.97857199  0.52591331  0.55915347  1  0  0.110074  0.129973  0  1.02437  0
H  H23  1  0.47857085  0.47410005  0.44086166  1  0  0.110074  0.129915  0  1.024654  0
H  H24  1  0.90033475  0.25212885  0.49498864  1  0  0.122225  0.090503  0  1.049881  0
H  H25  1  0.40035927  0.74789011  0.50503460  1  0  0.122221  0.090525  0  1.050035  0
H  H26  1  0.25030037  0.16848584  0.11298945  1  0  0.117999  0.105829  0  1.000116  0
H  H27  1  0.75030288  0.83153880  0.88699826  1  0  0.117976  0.105815  0  1.000099  0
H  H28  1  0.11368000  0.25989079  0.02875436  1  0  0.120855  0.112977  0  0.956515  0
H  H29  1  0.61370209  0.74011704  0.97124831  1  0  0.120886  0.113049  0  0.956583  0
H  H30  1  0.80866943  0.05459814  0.46180832  1  0  0.297459  0.288378  0  0.96847  0
H  H31  1  0.30866065  0.94538181  0.53821219  1  0  0.297476  0.288408  0  0.968328  0
H  H32  1  0.95746072  0.94514157  0.47531791  1  0  0.293178  0.300893  0  0.964318  0
H  H33  1  0.45746138  0.05482077  0.52467145  1  0  0.293196  0.300928  0  0.964483  0
H  H34  1  0.98099946  0.04174757  0.02193371  1  0  0.301975  0.304464  0  0.939576  0
H  H35  1  0.48097724  0.95823653  0.97806235  1  0  0.302046  0.304642  0  0.939347  0
H  H36  1  0.12117844  0.95050199  0.08134958  1  0  0.289911  0.273288  0  1.010121  0
H  H37  1  0.62114952  0.04949876  0.91864428  1  0  0.289923  0.273468  0  1.01012  0
C  C38  1  0.81122689  0.72605049  0.27331283  1  0  0.125575  0.227535  0  3.914027  0
C  C39  1  0.31123288  0.27395432  0.72667805  1  0  0.125588  0.227569  0  3.913991  0
C  C40  1  0.75668041  0.57372073  0.23852504  1  0  -0.07824  -0.157862  0  3.934608  0
C  C41  1  0.25668745  0.42628185  0.76147315  1  0  -0.078174  -0.157906  0  3.934613  0
C  C42  1  0.79316483  0.49062222  0.11950027  1  0  -0.064579  -0.017801  0  3.92557  0
C  C43  1  0.29315743  0.50938073  0.88049099  1  0  -0.064431  -0.017539  0  3.925626  0
C  C44  1  0.88338513  0.56428383  0.03745779  1  0  -0.083369  -0.137483  0  3.96272  0
C  C45  1  0.38337974  0.43572014  0.96253057  1  0  -0.083424  -0.137506  0  3.962727  0
C  C46  1  0.93167056  0.71780462  0.07629979  1  0  0.045687  0.089611  0  3.919835  0
C  C47  1  0.43165782  0.28218695  0.92369502  1  0  0.045689  0.089675  0  3.919552  0
C  C48  1  0.77832343  0.82180017  0.39914579  1  0  -0.058579  -0.066191  0  3.873643  0
C  C49  1  0.27832816  0.17819470  0.60084976  1  0  -0.058705  -0.066453  0  3.87397  0
C  C50  1  0.09462132  0.29576612  0.23521203  1  0  0.127928  0.228887  0  3.896585  0
C  C51  1  0.59463381  0.70423619  0.76479347  1  0  0.127913  0.228988  0  3.89632  0
C  C52  1  0.14453012  0.45102100  0.26649024  1  0  -0.075489  -0.158999  0  3.928762  0
C  C53  1  0.64453928  0.54897767  0.73350930  1  0  -0.075413  -0.158848  0  3.928664  0
C  C54  1  0.10364962  0.53741746  0.38308224  1  0  -0.063903  -0.02021  0  3.943819  0
C  C55  1  0.60364826  0.46257737  0.61692491  1  0  -0.06398  -0.020377  0  3.944071  0
C  C56  1  0.01326676  0.46488383  0.46585674  1  0  -0.082383  -0.133872  0  3.956614  0
C  C57  1  0.51326994  0.53511357  0.53415280  1  0  -0.082321  -0.133663  0  3.956733  0
C  C58  1  0.96809865  0.30944448  0.42940913  1  0  0.048186  0.083579  0  3.901003  0
C  C59  1  0.46811262  0.69056802  0.57060529  1  0  0.048227  0.083489  0  3.901166  0
C  C60  1  0.13377811  0.19565692  0.11230952  1  0  -0.053189  -0.05777  0  3.856348  0
C  C61  1  0.63378216  0.80435268  0.88769365  1  0  -0.053283  -0.057933  0  3.856419  0
N  N62  1  0.89683543  0.79939534  0.19222521  1  0  -0.333483  -0.209052  0  3.57321  0
N  N63  1  0.39683589  0.20060112  0.80776178  1  0  -0.333497  -0.209074  0  3.573315  0
N  N64  1  0.00810796  0.22430305  0.31655625  1  0  -0.328995  -0.188055  0  3.560793  0
N  N65  1  0.50811628  0.77569800  0.68345583  1  0  -0.329086  -0.188291  0  3.560645  0
N  N66  1  0.87142214  0.96513719  0.41491283  1  0  -0.625989  -0.489566  0  3.454919  0
N  N67  1  0.37143238  0.03485703  0.58509104  1  0  -0.62594  -0.489546  0  3.454929  0
N  N68  1  0.04992560  0.04550689  0.09991298  1  0  -0.626765  -0.48233  0  3.448865  0
N  N69  1  0.54990358  0.95448381  0.90008682  1  0  -0.626874  -0.482606  0  3.448734  0
O  O70  1  0.72647088  0.14217496  0.18844524  1  0  -0.498038  -0.67425  0  1.667403  0
O  O71  1  0.22646989  0.85787271  0.81155285  1  0  -0.498033  -0.674068  0  1.667265  0
O  O72  1  0.43055107  0.71019127  0.28189722  1  0  -0.502505  -0.670164  0  1.573351  0
O  O73  1  0.93045843  0.28988311  0.71815492  1  0  -0.50261  -0.670199  0  1.573789  0
O  O74  1  0.48809826  0.31633417  0.23945842  1  0  -0.500581  -0.66496  0  1.559657  0
O  O75  1  0.98811890  0.68365420  0.76058015  1  0  -0.500578  -0.665122  0  1.559093  0
O  O76  1  0.58317302  0.12771747  0.40957234  1  0  -0.514818  -0.728041  0  1.665669  0
O  O77  1  0.08318817  0.87221775  0.59041466  1  0  -0.514748  -0.728006  0  1.666251  0
O  O78  1  0.24668666  0.78337560  0.10014820  1  0  -0.503347  -0.683731  0  1.654152  0
O  O79  1  0.74661107  0.21653128  0.89986244  1  0  -0.503322  -0.683789  0  1.65473  0
O  O80  1  0.46464159  0.99182454  0.17012585  1  0  -0.593214  -0.902663  0  2.040671  0
O  O81  1  0.96463799  0.00819715  0.82983417  1  0  -0.593113  -0.90252  0  2.040782  0
O  O82  1  0.23586033  0.94170035  0.33653746  1  0  -0.50431  -0.698814  0  1.642337  0
O  O83  1  0.73585026  0.05832068  0.66342918  1  0  -0.504283  -0.698763  0  1.642325  0
