# generated using pymatgen
data_Zn4H36C53(N2O5)4
_symmetry_space_group_name_H-M   'P 1'
_cell_length_a   17.44519081
_cell_length_b   17.44497605
_cell_length_c   17.44513970
_cell_angle_alpha   92.54007669
_cell_angle_beta   118.54475840
_cell_angle_gamma   118.54434559
_symmetry_Int_Tables_number   1
_chemical_formula_structural   Zn4H36C53(N2O5)4
_chemical_formula_sum   'Zn8 H72 C106 N16 O40'
_cell_volume   3832.60602220
_cell_formula_units_Z   2
loop_
 _symmetry_equiv_pos_site_id
 _symmetry_equiv_pos_as_xyz
  1  'x, y, z'
loop_
 _atom_site_type_symbol
 _atom_site_label
 _atom_site_symmetry_multiplicity
 _atom_site_fract_x
 _atom_site_fract_y
 _atom_site_fract_z
 _atom_site_occupancy
 _atom_site_pbe_bader_charge
 _atom_site_pbe_bader_spin_density
 _atom_site_pbe_cm5_charge
 _atom_site_pbe_ddec_charge
 _atom_site_pbe_ddec_spin_density
 _atom_site_pbe_ddec_sum_bond_order
 _atom_site_pbe_magmom
Zn  Zn0  1  0.02255367  0.46421689  0.77939207  1  1.271296  0  0.693209  0.772203  0  2.36719  0
Zn  Zn1  1  0.47744939  0.25684182  0.44166179  1  1.271035  0  0.693217  0.772227  0  2.367318  0
Zn  Zn2  1  0.31518075  0.77939165  0.25684839  1  1.272277  0  0.693145  0.772122  0  2.367326  0
Zn  Zn3  1  0.18482031  0.44166672  0.46420982  1  1.272932  0  0.693147  0.772106  0  2.367453  0
Zn  Zn4  1  0.97744981  0.53578652  0.22060845  1  1.271315  0  0.69318  0.772177  0  2.367306  0
Zn  Zn5  1  0.52255322  0.74316003  0.55833821  1  1.271057  0  0.693214  0.772239  0  2.367221  0
Zn  Zn6  1  0.68481988  0.22061021  0.74315470  1  1.272228  0  0.693146  0.772131  0  2.367393  0
Zn  Zn7  1  0.81517923  0.55833274  0.53579030  1  1.272869  0  0.69315  0.77215  0  2.367418  0
H  H8  1  0.86232198  0.52287621  0.93554527  1  0.118712  0  0.117093  0.130016  0  0.97824  0
H  H9  1  0.63768472  0.57322965  0.66055715  1  0.116896  0  0.11711  0.130031  0  0.978259  0
H  H10  1  0.41267705  0.93555410  0.57323309  1  0.118388  0  0.117123  0.130053  0  0.978274  0
H  H11  1  0.08731973  0.66055124  0.52287473  1  0.113258  0  0.117146  0.130062  0  0.978296  0
H  H12  1  0.13767822  0.47712190  0.06445276  1  0.118804  0  0.117114  0.130051  0  0.978168  0
H  H13  1  0.36231504  0.42676861  0.33944471  1  0.116954  0  0.117107  0.130027  0  0.978273  0
H  H14  1  0.58732599  0.06444943  0.42677181  1  0.118475  0  0.117135  0.130048  0  0.978287  0
H  H15  1  0.91268025  0.33944796  0.47712557  1  0.113242  0  0.117142  0.130065  0  0.978266  0
H  H16  1  0.01336197  0.69431287  0.02554711  1  0.107014  0  0.111265  0.108055  0  0.997212  0
H  H17  1  0.48664796  0.51219116  0.68095579  1  0.098925  0  0.111284  0.108091  0  0.997194  0
H  H18  1  0.33123282  0.02554857  0.51219017  1  0.109933  0  0.111219  0.107973  0  0.997209  0
H  H19  1  0.16876437  0.68095272  0.69431106  1  0.10444  0  0.111241  0.108018  0  0.997137  0
H  H20  1  0.98663690  0.30568595  0.97445265  1  0.106995  0  0.111262  0.108029  0  0.997221  0
H  H21  1  0.51335158  0.48780620  0.31904533  1  0.099025  0  0.111247  0.108042  0  0.997223  0
H  H22  1  0.66876737  0.97445351  0.48781388  1  0.110042  0  0.111235  0.108005  0  0.997182  0
H  H23  1  0.83123429  0.31904519  0.30568854  1  0.10454  0  0.11125  0.108025  0  0.997223  0
H  H24  1  0.16339784  0.76159355  0.00877169  1  0.155207  0  0.114605  0.131135  0  1.011538  0
H  H25  1  0.33660995  0.34537874  0.59819697  1  0.138674  0  0.1146  0.131173  0  1.011563  0
H  H26  1  0.24717013  0.00876438  0.34537416  1  0.150647  0  0.114613  0.131172  0  1.011573  0
H  H27  1  0.25282275  0.59819621  0.76158831  1  0.153133  0  0.114631  0.131172  0  1.011587  0
H  H28  1  0.83660234  0.23840866  0.99122778  1  0.155115  0  0.114605  0.131135  0  1.011556  0
H  H29  1  0.66338760  0.65461886  0.40179923  1  0.139008  0  0.114609  0.131207  0  1.011544  0
H  H30  1  0.75282456  0.99123368  0.65462648  1  0.150713  0  0.114613  0.131183  0  1.011594  0
H  H31  1  0.74717415  0.40180071  0.23840868  1  0.153131  0  0.114618  0.131165  0  1.011588  0
H  H32  1  0.20438357  0.46310176  0.81330071  1  0.147165  0  0.123899  0.101846  0  0.997412  0
H  H33  1  0.29561125  0.10891284  0.25871170  1  0.144085  0  0.123886  0.101829  0  0.997431  0
H  H34  1  0.35019842  0.81329623  0.10891849  1  0.146408  0  0.123884  0.101868  0  0.997363  0
H  H35  1  0.14980099  0.25871834  0.46310079  1  0.140207  0  0.123916  0.101889  0  0.997381  0
H  H36  1  0.79561948  0.53690190  0.18669962  1  0.147259  0  0.123892  0.101856  0  0.997394  0
H  H37  1  0.70438873  0.89108635  0.74128918  1  0.144143  0  0.123897  0.101833  0  0.997435  0
H  H38  1  0.64980133  0.18670413  0.89108180  1  0.146416  0  0.123888  0.101881  0  0.99736  0
H  H39  1  0.85020030  0.74128213  0.53690136  1  0.140227  0  0.12391  0.101885  0  0.997401  0
H  H40  1  0.25865019  0.35548143  0.83193630  1  0.106675  0  0.116777  0.14143  0  1.007178  0
H  H41  1  0.24134862  0.07328533  0.09682765  1  0.106505  0  0.116772  0.141395  0  1.007219  0
H  H42  1  0.47645661  0.83193721  0.07328982  1  0.108155  0  0.116736  0.141359  0  1.007175  0
H  H43  1  0.02354416  0.09683108  0.35547931  1  0.11434  0  0.116748  0.141396  0  1.007247  0
H  H44  1  0.74135197  0.64452074  0.16806122  1  0.106719  0  0.116738  0.141364  0  1.007146  0
H  H45  1  0.75865003  0.92671257  0.90317252  1  0.106566  0  0.116762  0.141409  0  1.007227  0
H  H46  1  0.52354380  0.16806381  0.92671082  1  0.108373  0  0.11673  0.141363  0  1.007169  0
H  H47  1  0.97645802  0.90316893  0.64452150  1  0.114279  0  0.11673  0.141359  0  1.007205  0
H  H48  1  0.98391623  0.16637949  0.83501964  1  0.145764  0  0.116481  0.149111  0  0.998454  0
H  H49  1  0.51608602  0.35110573  0.18246704  1  0.144947  0  0.116484  0.149112  0  0.998459  0
H  H50  1  0.66863778  0.83501509  0.35110583  1  0.147779  0  0.116455  0.149085  0  0.998495  0
H  H51  1  0.83136314  0.18246856  0.16637911  1  0.128687  0  0.11647  0.149117  0  0.998489  0
H  H52  1  0.01608396  0.83362070  0.16497797  1  0.145707  0  0.116465  0.149109  0  0.998503  0
H  H53  1  0.48391152  0.64889386  0.81753160  1  0.144929  0  0.116492  0.149112  0  0.998448  0
H  H54  1  0.33136132  0.16498462  0.64889467  1  0.147827  0  0.116434  0.149056  0  0.998515  0
H  H55  1  0.16863927  0.81753032  0.83362057  1  0.128646  0  0.116467  0.149094  0  0.998499  0
H  H56  1  0.93905650  0.28383687  0.81144612  1  0.135334  0  0.1171  0.091739  0  1.038262  0
H  H57  1  0.56094151  0.37238912  0.34478037  1  0.143984  0  0.117066  0.091692  0  1.038318  0
H  H58  1  0.52761101  0.81144317  0.37239151  1  0.139911  0  0.11704  0.091646  0  1.038371  0
H  H59  1  0.97239115  0.34478318  0.28383708  1  0.142863  0  0.117042  0.091654  0  1.038361  0
H  H60  1  0.06094369  0.71616537  0.18855221  1  0.135297  0  0.117057  0.091688  0  1.038376  0
H  H61  1  0.43905869  0.62761102  0.65521896  1  0.143978  0  0.117063  0.091689  0  1.038313  0
H  H62  1  0.47238830  0.18855538  0.62760901  1  0.140198  0  0.117034  0.091649  0  1.038406  0
H  H63  1  0.02760992  0.65521645  0.71616262  1  0.142779  0  0.117031  0.091648  0  1.038354  0
H  H64  1  0.31199867  0.27189871  0.91574562  1  0.092681  0  0.113981  0.091141  0  0.967495  0
H  H65  1  0.18800261  0.10374781  0.95989721  1  0.06877  0  0.114019  0.09122  0  0.96748  0
H  H66  1  0.64385088  0.91574994  0.10375187  1  0.069982  0  0.113999  0.091154  0  0.967534  0
H  H67  1  0.85614895  0.95990088  0.27189778  1  0.073769  0  0.114001  0.091162  0  0.967481  0
H  H68  1  0.68800152  0.72810145  0.08425313  1  0.092768  0  0.113982  0.091144  0  0.967519  0
H  H69  1  0.81199693  0.89624960  0.04010219  1  0.068771  0  0.11402  0.091229  0  0.967461  0
H  H70  1  0.35614931  0.08425017  0.89624860  1  0.069978  0  0.114002  0.091168  0  0.967511  0
H  H71  1  0.14385169  0.04009899  0.72810231  1  0.073772  0  0.113995  0.091163  0  0.967495  0
H  H72  1  0.23504900  0.21311752  0.79223542  1  0.066221  0  0.115396  0.091695  0  0.9677  0
H  H73  1  0.26495316  0.05718755  0.97806738  1  0.072829  0  0.115367  0.091673  0  0.967652  0
H  H74  1  0.57911790  0.79223725  0.05718956  1  0.077626  0  0.115361  0.091625  0  0.967664  0
H  H75  1  0.92088084  0.97806810  0.21311885  1  0.065793  0  0.115378  0.091647  0  0.967665  0
H  H76  1  0.76495273  0.78688278  0.20776406  1  0.066213  0  0.115388  0.091671  0  0.967676  0
H  H77  1  0.73504660  0.94281081  0.02193104  1  0.072872  0  0.115393  0.091699  0  0.967648  0
H  H78  1  0.42088185  0.20776313  0.94281015  1  0.077623  0  0.115368  0.091643  0  0.967689  0
H  H79  1  0.07912002  0.02193063  0.78688068  1  0.065839  0  0.115391  0.091672  0  0.967638  0
C  C80  1  0.85277945  0.40011425  0.81468600  1  1.579229  0  0.210768  0.540672  0  4.208651  0
C  C81  1  0.64722652  0.46191068  0.54733785  1  1.596331  0  0.210836  0.540872  0  4.208644  0
C  C82  1  0.41457955  0.81469003  0.46191927  1  1.592461  0  0.210924  0.541125  0  4.208653  0
C  C83  1  0.08541561  0.54733701  0.40010747  1  1.597774  0  0.210892  0.541133  0  4.208526  0
C  C84  1  0.14722382  0.59988617  0.18531478  1  1.579327  0  0.210757  0.540673  0  4.208776  0
C  C85  1  0.35277544  0.53809046  0.45266408  1  1.596376  0  0.210851  0.540909  0  4.208727  0
C  C86  1  0.58542460  0.18531393  0.53808503  1  1.592076  0  0.210852  0.540887  0  4.208605  0
C  C87  1  0.91458259  0.45266323  0.59989152  1  1.597742  0  0.210928  0.541115  0  4.20848  0
C  C88  1  0.93380700  0.50261971  0.87167025  1  0.507018  0  0.118809  0.118474  0  3.964593  0
C  C89  1  0.56619855  0.43786952  0.56881508  1  0.519749  0  0.118722  0.118311  0  3.964702  0
C  C90  1  0.36905406  0.87167323  0.43787291  1  0.507482  0  0.118742  0.118336  0  3.964572  0
C  C91  1  0.13094070  0.56881403  0.50261387  1  0.498951  0  0.118716  0.118271  0  3.964497  0
C  C92  1  0.06619628  0.49738073  0.12832995  1  0.506942  0  0.118781  0.118462  0  3.96469  0
C  C93  1  0.43380208  0.56213037  0.43118444  1  0.519854  0  0.11871  0.118324  0  3.964714  0
C  C94  1  0.63094789  0.12832991  0.56213145  1  0.507524  0  0.11875  0.118375  0  3.964652  0
C  C95  1  0.86905751  0.43118417  0.49738440  1  0.499009  0  0.11871  0.118315  0  3.964531  0
C  C96  1  0.92937524  0.55575203  0.92964782  1  -0.007222  0  -0.068741  -0.126122  0  3.917381  0
C  C97  1  0.57063091  0.50027757  0.62637881  1  0.00501  0  -0.068766  -0.126148  0  3.917575  0
C  C98  1  0.37390262  0.92965507  0.50028211  1  -0.024513  0  -0.068824  -0.126272  0  3.917481  0
C  C99  1  0.12609581  0.62637688  0.55575057  1  0.002502  0  -0.068821  -0.126252  0  3.917541  0
C  C100  1  0.07062539  0.44424784  0.07035226  1  -0.007477  0  -0.068785  -0.126233  0  3.917427  0
C  C101  1  0.42936929  0.49972050  0.37362095  1  0.0049  0  -0.068727  -0.126103  0  3.917564  0
C  C102  1  0.62609933  0.07034807  0.49972226  1  -0.018962  0  -0.068756  -0.126165  0  3.917425  0
C  C103  1  0.87390482  0.37362299  0.44424951  1  0.002792  0  -0.068782  -0.126223  0  3.917546  0
C  C104  1  0.01282622  0.65008297  0.97886772  1  -0.035233  0  -0.059034  -0.016412  0  3.925371  0
C  C105  1  0.48718041  0.46604559  0.63726030  1  -0.054008  0  -0.059043  -0.01643  0  3.925454  0
C  C106  1  0.32878132  0.97886776  0.46604440  1  -0.032022  0  -0.058987  -0.016231  0  3.925194  0
C  C107  1  0.17121559  0.63725777  0.65008190  1  -0.057727  0  -0.059009  -0.016279  0  3.925407  0
C  C108  1  0.98717376  0.34991626  0.02113202  1  -0.035124  0  -0.05902  -0.016341  0  3.925277  0
C  C109  1  0.51281825  0.53395236  0.36273816  1  -0.054072  0  -0.059066  -0.016429  0  3.925427  0
C  C110  1  0.67121821  0.02113369  0.53395872  1  -0.037655  0  -0.059066  -0.016341  0  3.925333  0
C  C111  1  0.82878263  0.36274041  0.34991694  1  -0.058255  0  -0.059001  -0.016278  0  3.925453  0
C  C112  1  0.09746962  0.68861142  0.96944790  1  -0.00762  0  -0.062691  -0.1052  0  3.886714  0
C  C113  1  0.40253613  0.37198143  0.59114002  1  0.031949  0  -0.062668  -0.105277  0  3.886883  0
C  C114  1  0.28083365  0.96944463  0.37197975  1  -0.013288  0  -0.06271  -0.105341  0  3.886807  0
C  C115  1  0.21916131  0.59114067  0.68860562  1  0.018052  0  -0.062713  -0.105345  0  3.886886  0
C  C116  1  0.90252969  0.31138919  0.03055277  1  -0.00721  0  -0.062654  -0.105173  0  3.886645  0
C  C117  1  0.59746297  0.62801628  0.40885805  1  0.031478  0  -0.062629  -0.10525  0  3.886784  0
C  C118  1  0.71916456  0.03055552  0.62802267  1  -0.013325  0  -0.062688  -0.105345  0  3.886886  0
C  C119  1  0.78083581  0.40885713  0.31139211  1  0.018148  0  -0.062711  -0.105337  0  3.886863  0
C  C120  1  0.09653519  0.63097641  0.91035756  1  0.488529  0  0.117843  0.112556  0  3.934332  0
C  C121  1  0.40346924  0.31382765  0.53443744  1  0.462524  0  0.117844  0.112659  0  3.934163  0
C  C122  1  0.27938430  0.91035432  0.31382846  1  0.483941  0  0.117873  0.112671  0  3.934115  0
C  C123  1  0.22060914  0.53443718  0.63096297  1  0.465829  0  0.117863  0.112655  0  3.934013  0
C  C124  1  0.90346675  0.36902683  0.08964338  1  0.488349  0  0.117864  0.11263  0  3.934324  0
C  C125  1  0.59652853  0.68617085  0.46555893  1  0.462964  0  0.117849  0.112599  0  3.934282  0
C  C126  1  0.72061369  0.08964490  0.68617494  1  0.483767  0  0.117893  0.112707  0  3.934073  0
C  C127  1  0.77938864  0.46556127  0.36903511  1  0.465722  0  0.117858  0.112639  0  3.934007  0
C  C128  1  0.18246023  0.66182133  0.89209335  1  1.619105  0  0.191357  0.527142  0  4.283869  0
C  C129  1  0.31754187  0.20963544  0.47935564  1  1.613317  0  0.191367  0.527098  0  4.283596  0
C  C130  1  0.23027231  0.89208869  0.20963624  1  1.625359  0  0.1914  0.527139  0  4.283906  0
C  C131  1  0.26972209  0.47935644  0.66181996  1  1.608138  0  0.191381  0.527165  0  4.284244  0
C  C132  1  0.81754171  0.33818394  0.10790888  1  1.618423  0  0.19141  0.527136  0  4.283702  0
C  C133  1  0.68245656  0.79036376  0.52063936  1  1.612912  0  0.191358  0.527091  0  4.283701  0
C  C134  1  0.76972196  0.10790336  0.79036663  1  1.625537  0  0.191287  0.527024  0  4.28402  0
C  C135  1  0.73027524  0.52064225  0.33817851  1  1.608165  0  0.19136  0.527175  0  4.284325  0
C  C136  1  0.15797600  0.39741892  0.81942209  1  0.485961  0  0.056804  0.132135  0  3.930567  0
C  C137  1  0.34202159  0.16144266  0.23943945  1  0.484286  0  0.056836  0.132192  0  3.930476  0
C  C138  1  0.42200354  0.81941761  0.16144996  1  0.481816  0  0.056768  0.132039  0  3.93074  0
C  C139  1  0.07799799  0.23944541  0.39741652  1  0.499615  0  0.05675  0.132067  0  3.93062  0
C  C140  1  0.84202683  0.60258387  0.18057693  1  0.486084  0  0.056752  0.132067  0  3.930696  0
C  C141  1  0.65797707  0.83855525  0.76056015  1  0.484451  0  0.056812  0.132206  0  3.930577  0
C  C142  1  0.57799555  0.18058208  0.83855112  1  0.481783  0  0.056762  0.13205  0  3.930725  0
C  C143  1  0.92200331  0.76055513  0.60258334  1  0.499613  0  0.056738  0.132037  0  3.930688  0
C  C144  1  0.18872383  0.33633931  0.83057024  1  -0.006255  0  -0.100143  -0.266766  0  3.961234  0
C  C145  1  0.31127554  0.14184535  0.14761296  1  0.000555  0  -0.100129  -0.266699  0  3.961164  0
C  C146  1  0.49423097  0.83056824  0.14185021  1  -0.008068  0  -0.100115  -0.266678  0  3.961127  0
C  C147  1  0.00577079  0.14761770  0.33633778  1  0.003516  0  -0.10013  -0.266737  0  3.961299  0
C  C148  1  0.81127900  0.66366349  0.16942821  1  -0.006287  0  -0.100109  -0.266723  0  3.961224  0
C  C149  1  0.68872355  0.85815437  0.85238697  1  0.000294  0  -0.100136  -0.266765  0  3.96117  0
C  C150  1  0.50576966  0.16943368  0.85815060  1  -0.008297  0  -0.100094  -0.266673  0  3.961149  0
C  C151  1  0.99423138  0.85238229  0.66366360  1  0.003587  0  -0.100104  -0.26669  0  3.961137  0
C  C152  1  0.12646372  0.25235229  0.83756673  1  0.445104  0  0.105893  0.30307  0  4.069152  0
C  C153  1  0.37353710  0.21110441  0.12588981  1  0.476824  0  0.105902  0.303078  0  4.069138  0
C  C154  1  0.58521445  0.83756623  0.21110603  1  0.475601  0  0.105847  0.303068  0  4.069064  0
C  C155  1  0.91478741  0.12589103  0.25235276  1  0.449847  0  0.105866  0.303087  0  4.069166  0
C  C156  1  0.87353493  0.74764778  0.16242958  1  0.44508  0  0.105924  0.303144  0  4.069135  0
C  C157  1  0.62646001  0.78889333  0.87411020  1  0.476861  0  0.10592  0.303057  0  4.069143  0
C  C158  1  0.41478618  0.16243366  0.78889348  1  0.475432  0  0.105822  0.302995  0  4.069131  0
C  C159  1  0.08521543  0.87410755  0.74764883  1  0.449522  0  0.105843  0.303048  0  4.0691  0
C  C160  1  0.03497734  0.23181300  0.83124549  1  0.035262  0  -0.095401  -0.245965  0  3.94902  0
C  C161  1  0.46502342  0.29626980  0.19683809  1  -0.003254  0  -0.09542  -0.246003  0  3.949172  0
C  C162  1  0.59943420  0.83124234  0.29627139  1  0.001622  0  -0.095364  -0.245924  0  3.949164  0
C  C163  1  0.90056586  0.19683597  0.23180868  1  0.029853  0  -0.095421  -0.245994  0  3.949163  0
C  C164  1  0.96502526  0.76819092  0.16875466  1  0.035158  0  -0.095448  -0.246041  0  3.949123  0
C  C165  1  0.53497478  0.70373043  0.80316146  1  -0.003235  0  -0.095405  -0.24596  0  3.949319  0
C  C166  1  0.40056467  0.16875649  0.70372780  1  0.001567  0  -0.095342  -0.245865  0  3.949163  0
C  C167  1  0.09943522  0.80316161  0.76819031  1  0.030223  0  -0.095419  -0.245961  0  3.94923  0
C  C168  1  0.01027550  0.29657530  0.81909525  1  0.420659  0  0.043244  0.10499  0  3.959255  0
C  C169  1  0.48972352  0.30881831  0.28629891  1  0.426224  0  0.043296  0.105073  0  3.959417  0
C  C170  1  0.52252230  0.81909000  0.30882342  1  0.425305  0  0.04327  0.104987  0  3.959396  0
C  C171  1  0.97747843  0.28630075  0.29657076  1  0.409764  0  0.043297  0.105025  0  3.959369  0
C  C172  1  0.98972579  0.70342735  0.18090304  1  0.420648  0  0.043332  0.105026  0  3.959361  0
C  C173  1  0.51027557  0.69118140  0.71370159  1  0.426213  0  0.043278  0.105038  0  3.959499  0
C  C174  1  0.47747768  0.18090921  0.69117688  1  0.425064  0  0.043282  0.104993  0  3.959452  0
C  C175  1  0.02252220  0.71369917  0.70342761  1  0.409791  0  0.043304  0.104984  0  3.959402  0
C  C176  1  0.24156799  0.20655804  0.85718428  1  0.390497  0  -0.057255  -0.033096  0  3.848066  0
C  C177  1  0.25843499  0.11561967  0.96499074  1  0.411584  0  -0.05735  -0.033294  0  3.848282  0
C  C178  1  0.65062899  0.85718778  0.11562083  1  0.405394  0  -0.057259  -0.033043  0  3.848259  0
C  C179  1  0.84937056  0.96499028  0.20655751  1  0.409263  0  -0.057281  -0.033055  0  3.848209  0
C  C180  1  0.75843286  0.79344276  0.14281483  1  0.390444  0  -0.057298  -0.033147  0  3.848171  0
C  C181  1  0.74156454  0.88437979  0.03500938  1  0.41153  0  -0.057357  -0.033338  0  3.848238  0
C  C182  1  0.34937120  0.14281233  0.88437964  1  0.405406  0  -0.0573  -0.033137  0  3.84822  0
C  C183  1  0.15062919  0.03500805  0.79344148  1  0.409339  0  -0.057306  -0.033178  0  3.848308  0
C  C184  1  0.25000030  0.12499830  0.87499841  1  0.067395  0  -0.019477  0.048997  0  3.846079  0
C  C185  1  0.74999923  0.87500116  0.12500171  1  0.067537  0  -0.019529  0.048882  0  3.846229  0
N  N186  1  0.07110420  0.37884504  0.81436451  1  -1.257607  0  -0.345149  -0.249969  0  3.579548  0
N  N187  1  0.42889319  0.24325878  0.30773807  1  -1.263137  0  -0.345151  -0.249994  0  3.579555  0
N  N188  1  0.43552110  0.81436100  0.24326413  1  -1.260465  0  -0.345022  -0.249792  0  3.57967  0
N  N189  1  0.06447825  0.30774234  0.37884119  1  -1.262059  0  -0.345087  -0.249868  0  3.579565  0
N  N190  1  0.92889994  0.62115906  0.18563464  1  -1.257595  0  -0.345069  -0.249822  0  3.579612  0
N  N191  1  0.57110678  0.75674043  0.69226223  1  -1.263144  0  -0.34513  -0.249973  0  3.57955  0
N  N192  1  0.56447865  0.18563935  0.75673673  1  -1.260461  0  -0.345024  -0.249817  0  3.579689  0
N  N193  1  0.93552128  0.69225714  0.62115835  1  -1.262076  0  -0.345055  -0.249793  0  3.579547  0
N  N194  1  0.01574629  0.54088848  0.86379971  1  -1.279384  0  -0.326673  -0.269072  0  3.64338  0
N  N195  1  0.48426061  0.34805968  0.52514294  1  -1.27872  0  -0.326674  -0.269035  0  3.643148  0
N  N196  1  0.32291588  0.86380004  0.34806484  1  -1.272811  0  -0.326673  -0.269026  0  3.643107  0
N  N197  1  0.17708152  0.52514590  0.54087970  1  -1.264692  0  -0.326642  -0.268902  0  3.643032  0
N  N198  1  0.98425632  0.45911337  0.13620029  1  -1.279385  0  -0.326688  -0.269114  0  3.643344  0
N  N199  1  0.51573893  0.65193986  0.47485432  1  -1.278937  0  -0.326673  -0.26906  0  3.643273  0
N  N200  1  0.67708497  0.13620061  0.65193999  1  -1.272869  0  -0.326676  -0.26905  0  3.643254  0
N  N201  1  0.82291736  0.47485295  0.45911892  1  -1.264657  0  -0.326662  -0.268987  0  3.643039  0
O  O202  1  0.86725706  0.36269053  0.76380345  1  -1.164352  0  -0.301609  -0.528253  0  2.254363  0
O  O203  1  0.63274785  0.39655129  0.49543611  1  -1.167371  0  -0.301614  -0.528321  0  2.254538  0
O  O204  1  0.40111973  0.76380384  0.39655675  1  -1.170091  0  -0.301656  -0.528493  0  2.254453  0
O  O205  1  0.09887594  0.49543418  0.36268141  1  -1.165941  0  -0.301633  -0.528496  0  2.254414  0
O  O206  1  0.13274510  0.63731153  0.23619808  1  -1.164458  0  -0.301588  -0.52826  0  2.254435  0
O  O207  1  0.36725124  0.60344848  0.50456210  1  -1.167362  0  -0.30164  -0.528362  0  2.254663  0
O  O208  1  0.59888749  0.23620036  0.60345015  1  -1.169725  0  -0.301666  -0.528392  0  2.254288  0
O  O209  1  0.90112051  0.50456502  0.63731668  1  -1.165955  0  -0.301671  -0.528539  0  2.254387  0
O  O210  1  0.77524475  0.35654695  0.82258376  1  -1.153578  0  -0.31749  -0.509652  0  2.263103  0
O  O211  1  0.72476482  0.54734494  0.58130930  1  -1.160939  0  -0.317521  -0.509727  0  2.26305  0
O  O212  1  0.46604703  0.82259243  0.54734949  1  -1.152563  0  -0.317558  -0.509831  0  2.263275  0
O  O213  1  0.03394930  0.58130202  0.35654307  1  -1.152333  0  -0.317559  -0.509853  0  2.263203  0
O  O214  1  0.22475721  0.64345213  0.17741803  1  -1.153567  0  -0.317506  -0.509647  0  2.263147  0
O  O215  1  0.27523625  0.45265464  0.41869212  1  -1.161029  0  -0.317535  -0.50974  0  2.262951  0
O  O216  1  0.53395710  0.17741357  0.45265611  1  -1.152425  0  -0.317526  -0.509734  0  2.263293  0
O  O217  1  0.96605088  0.41870017  0.64345697  1  -1.152266  0  -0.317549  -0.50979  0  2.263181  0
O  O218  1  0.16598146  0.59656716  0.83556384  1  -1.170153  0  -0.334571  -0.568556  0  2.269202  0
O  O219  1  0.33402554  0.16958709  0.43058362  1  -1.171076  0  -0.33458  -0.56857  0  2.269051  0
O  O220  1  0.23899396  0.83555264  0.16958658  1  -1.173944  0  -0.334588  -0.568602  0  2.269113  0
O  O221  1  0.26099501  0.43058081  0.59655117  1  -1.168554  0  -0.334666  -0.56874  0  2.268696  0
O  O222  1  0.83402356  0.40343835  0.16444098  1  -1.169573  0  -0.334619  -0.568608  0  2.269126  0
O  O223  1  0.66597686  0.83041392  0.56941393  1  -1.171189  0  -0.334587  -0.568577  0  2.269126  0
O  O224  1  0.76099656  0.16444060  0.83041293  1  -1.17405  0  -0.334596  -0.568595  0  2.268903  0
O  O225  1  0.73900123  0.56941541  0.40344718  1  -1.168526  0  -0.334636  -0.568744  0  2.26874  0
O  O226  1  0.25892901  0.74555678  0.93102294  1  -1.178781  0  -0.342686  -0.552274  0  2.076669  0
O  O227  1  0.24107109  0.17209263  0.48662069  1  -1.171335  0  -0.342644  -0.552229  0  2.076659  0
O  O228  1  0.18546948  0.93101732  0.17209823  1  -1.169848  0  -0.342613  -0.552153  0  2.076962  0
O  O229  1  0.31451215  0.48661369  0.74553278  1  -1.171363  0  -0.342539  -0.552076  0  2.077891  0
O  O230  1  0.74106852  0.25444691  0.06897713  1  -1.178668  0  -0.342691  -0.55226  0  2.076643  0
O  O231  1  0.75892382  0.82790454  0.51337024  1  -1.171036  0  -0.342634  -0.552183  0  2.076673  0
O  O232  1  0.81451993  0.06897751  0.82790374  1  -1.169949  0  -0.342543  -0.552103  0  2.077268  0
O  O233  1  0.68548651  0.51338424  0.25446625  1  -1.171352  0  -0.342555  -0.552087  0  2.077946  0
O  O234  1  0.14805078  0.18728733  0.84983610  1  -1.075017  0  -0.168194  -0.188277  0  2.566805  0
O  O235  1  0.35195007  0.20178815  0.03923709  1  -1.080415  0  -0.168154  -0.188261  0  2.566928  0
O  O236  1  0.66255125  0.84983887  0.20179219  1  -1.077397  0  -0.168121  -0.18823  0  2.566663  0
O  O237  1  0.83745194  0.03924043  0.18728753  1  -1.079357  0  -0.168112  -0.18825  0  2.566754  0
O  O238  1  0.85194985  0.81271466  0.15016241  1  -1.075061  0  -0.168164  -0.18824  0  2.566817  0
O  O239  1  0.64804748  0.79821142  0.96076269  1  -1.080472  0  -0.168187  -0.188202  0  2.566843  0
O  O240  1  0.33744960  0.15016187  0.79820920  1  -1.077228  0  -0.168131  -0.188218  0  2.566639  0
O  O241  1  0.16255134  0.96076002  0.81271211  1  -1.079357  0  -0.168098  -0.188169  0  2.566774  0
