# generated using pymatgen
data_V2ZnH14C10(N2O3)2
_symmetry_space_group_name_H-M   'P 1'
_cell_length_a   9.18451378
_cell_length_b   10.55907699
_cell_length_c   18.41111291
_cell_angle_alpha   97.20158541
_cell_angle_beta   89.98544072
_cell_angle_gamma   115.78784275
_symmetry_Int_Tables_number   1
_chemical_formula_structural   V2ZnH14C10(N2O3)2
_chemical_formula_sum   'V8 Zn4 H56 C40 N16 O24'
_cell_volume   1592.06234983
_cell_formula_units_Z   4
loop_
 _symmetry_equiv_pos_site_id
 _symmetry_equiv_pos_as_xyz
  1  'x, y, z'
loop_
 _atom_site_type_symbol
 _atom_site_label
 _atom_site_symmetry_multiplicity
 _atom_site_fract_x
 _atom_site_fract_y
 _atom_site_fract_z
 _atom_site_occupancy
 _atom_site_hle17_bader_spin_density
 _atom_site_hle17_ddec_charge
 _atom_site_hle17_ddec_spin_density
 _atom_site_hle17_ddec_sum_bond_order
 _atom_site_hle17_magmom
 _atom_site_hse06_10hf_bader_spin_density
 _atom_site_hse06_10hf_ddec_charge
 _atom_site_hse06_10hf_ddec_spin_density
 _atom_site_hse06_10hf_ddec_sum_bond_order
 _atom_site_hse06_10hf_magmom
 _atom_site_hse06_bader_spin_density
 _atom_site_hse06_ddec_charge
 _atom_site_hse06_ddec_spin_density
 _atom_site_hse06_ddec_sum_bond_order
 _atom_site_hse06_magmom
 _atom_site_pbe_bader_spin_density
 _atom_site_pbe_cm5_charge
 _atom_site_pbe_ddec_charge
 _atom_site_pbe_ddec_spin_density
 _atom_site_pbe_ddec_sum_bond_order
 _atom_site_pbe_magmom
V  V0  1  0.91855791  0.85301772  0.33458808  1  0  1.987964  0  3.059226  0  0  2.047524  0  3.457351  0  0  2.142691  0  3.429649  0  0  1.447182  1.966486  0  3.506498  0
V  V1  1  0.93432731  0.85309233  0.83447787  1  0  1.98756  0  3.061376  0  0  2.046358  0  3.460736  0  0  2.142363  0  3.431681  0  0  1.44766  1.965711  0  3.50935  0
V  V2  1  0.22447918  0.76126307  0.38857601  1  0  1.991091  0  3.051633  0  0  2.054526  0  3.43898  0  0  2.146451  0  3.418574  0  0  1.454106  1.97484  0  3.484749  0
V  V3  1  0.53670463  0.76134741  0.88852810  1  0  1.990628  0  3.050205  0  0  2.054594  0  3.436648  0  0  2.146065  0  3.416972  0  0  1.453813  1.974898  0  3.482654  0
V  V4  1  0.31040752  0.49561519  0.31908481  1  0  1.967183  0  3.077642  0  0  2.021186  0  3.487829  0  0  2.12097  0  3.450329  0  0  1.438603  1.940154  0  3.537282  0
V  V5  1  0.18509829  0.49564890  0.81932509  1  0  1.966166  0  3.078382  0  0  2.020679  0  3.488079  0  0  2.11968  0  3.451672  0  0  1.438628  1.939793  0  3.537342  0
V  V6  1  0.60392988  0.69416296  0.22438137  1  0  1.949113  0  3.097166  0  0  1.999208  0  3.51295  0  0  2.101055  0  3.47284  0  0  1.436807  1.918874  0  3.560329  0
V  V7  1  0.09048755  0.69415007  0.72450394  1  0  1.948523  0  3.0982  0  0  1.997994  0  3.51489  0  0  2.100151  0  3.47441  0  0  1.435895  1.917694  0  3.562241  0
Zn  Zn8  1  0.25996170  0.78189290  0.56868576  1  0  1.063869  0  1.945101  0  0  0.900756  0  2.433581  0  0  0.945578  0  2.379194  0  0  0.70465  0.870465  0  2.468998  0
Zn  Zn9  1  0.52201516  0.78182213  0.06865102  1  0  1.063948  0  1.945944  0  0  0.901026  0  2.434367  0  0  0.945822  0  2.379899  0  0  0.704958  0.870758  0  2.469805  0
Zn  Zn10  1  0.99475112  0.20108477  0.35327886  1  0  1.074321  0  1.959814  0  0  0.916036  0  2.448488  0  0  0.960696  0  2.392285  0  0  0.709542  0.885041  0  2.48589  0
Zn  Zn11  1  0.20627777  0.20113148  0.85335230  1  0  1.073653  0  1.962002  0  0  0.915516  0  2.451059  0  0  0.960146  0  2.394869  0  0  0.709771  0.884547  0  2.488498  0
H  H12  1  0.13028926  0.46868024  0.48133173  1  0  0.11382  0  0.972329  0  0  0.122668  0  1.035444  0  0  0.125641  0  1.033481  0  0  0.120063  0.120317  0  1.037082  0
H  H13  1  0.33862367  0.46872792  0.98138239  1  0  0.113086  0  0.972858  0  0  0.122185  0  1.035626  0  0  0.125147  0  1.033674  0  0  0.119801  0.119811  0  1.0373  0
H  H14  1  0.07463155  0.42462983  0.62688978  1  0  0.129263  0  0.980113  0  0  0.136427  0  1.045657  0  0  0.140247  0  1.042952  0  0  0.122538  0.133392  0  1.048171  0
H  H15  1  0.34993108  0.42465462  0.12696396  1  0  0.129577  0  0.980355  0  0  0.136473  0  1.046198  0  0  0.140181  0  1.043615  0  0  0.122773  0.133518  0  1.048594  0
H  H16  1  0.92095720  0.02677261  0.49191325  1  0  0.10834  0  0.970048  0  0  0.117576  0  1.03636  0  0  0.121163  0  1.031816  0  0  0.134721  0.114896  0  1.039856  0
H  H17  1  0.10594937  0.02683534  0.99195036  1  0  0.108011  0  0.969903  0  0  0.117681  0  1.035748  0  0  0.1213  0  1.031132  0  0  0.13464  0.114994  0  1.039242  0
H  H18  1  0.01269749  0.20140522  0.68990941  1  0  0.096033  0  0.940159  0  0  0.113867  0  0.99789  0  0  0.115283  0  0.997304  0  0  0.113139  0.112773  0  0.998579  0
H  H19  1  0.18879509  0.20158426  0.18997163  1  0  0.096293  0  0.940852  0  0  0.114204  0  0.998454  0  0  0.115625  0  0.997876  0  0  0.112921  0.113114  0  0.999138  0
H  H20  1  0.94389471  0.03482263  0.63439948  1  0  0.076394  0  0.912429  0  0  0.09485  0  0.969161  0  0  0.095226  0  0.969852  0  0  0.113155  0.094816  0  0.968101  0
H  H21  1  0.09096247  0.03493451  0.13451674  1  0  0.07709  0  0.91183  0  0  0.095321  0  0.968745  0  0  0.095721  0  0.969437  0  0  0.11322  0.095291  0  0.967683  0
H  H22  1  0.73989013  0.20118381  0.66094281  1  0  0.069987  0  0.931964  0  0  0.088427  0  0.993216  0  0  0.089291  0  0.993804  0  0  0.091257  0.088003  0  0.992118  0
H  H23  1  0.46138790  0.20138930  0.16093076  1  0  0.069853  0  0.93213  0  0  0.088465  0  0.993171  0  0  0.089312  0  0.993752  0  0  0.091292  0.088018  0  0.992107  0
H  H24  1  0.67618728  0.03225071  0.60871438  1  0  0.067014  0  0.944735  0  0  0.082902  0  1.010023  0  0  0.083067  0  1.011661  0  0  0.088736  0.082371  0  1.009594  0
H  H25  1  0.35615011  0.03246529  0.10869145  1  0  0.066611  0  0.945586  0  0  0.082888  0  1.010518  0  0  0.083032  0  1.012163  0  0  0.088603  0.082378  0  1.01005  0
H  H26  1  0.56911635  0.96955590  0.72320674  1  0  0.085029  0  0.939023  0  0  0.104033  0  0.998042  0  0  0.104683  0  0.998639  0  0  0.097016  0.103388  0  0.99779  0
H  H27  1  0.40077392  0.96984288  0.22316886  1  0  0.084959  0  0.938678  0  0  0.10401  0  0.997677  0  0  0.104655  0  0.998296  0  0  0.09713  0.103362  0  0.997412  0
H  H28  1  0.75134492  0.95419152  0.72843287  1  0  0.075832  0  0.952061  0  0  0.090705  0  1.018241  0  0  0.09109  0  1.019178  0  0  0.095901  0.090523  0  1.017383  0
H  H29  1  0.20303903  0.95417156  0.22837682  1  0  0.075389  0  0.952275  0  0  0.090329  0  1.018462  0  0  0.090768  0  1.019354  0  0  0.095789  0.090112  0  1.017631  0
H  H30  1  0.74104789  0.07361062  0.84342233  1  0  0.079107  0  0.942191  0  0  0.092648  0  1.009814  0  0  0.093683  0  1.00903  0  0  0.111725  0.091909  0  1.010293  0
H  H31  1  0.33232614  0.07360862  0.34338258  1  0  0.079886  0  0.942734  0  0  0.093701  0  1.010056  0  0  0.094759  0  1.009245  0  0  0.11208  0.09294  0  1.010554  0
H  H32  1  0.88028389  0.21307182  0.79869983  1  0  0.078883  0  0.95533  0  0  0.094066  0  1.020598  0  0  0.095269  0  1.019875  0  0  0.110906  0.093096  0  1.021614  0
H  H33  1  0.33263493  0.21308312  0.29867956  1  0  0.079663  0  0.954492  0  0  0.094333  0  1.020421  0  0  0.095563  0  1.019631  0  0  0.111218  0.093357  0  1.021429  0
H  H34  1  0.80905859  0.41752545  0.78310418  1  0  0.12509  0  0.982929  0  0  0.131385  0  1.05023  0  0  0.135201  0  1.047245  0  0  0.123606  0.128539  0  1.052694  0
H  H35  1  0.60852180  0.41767540  0.28320181  1  0  0.124969  0  0.982439  0  0  0.131169  0  1.05005  0  0  0.134879  0  1.047207  0  0  0.123733  0.128384  0  1.052437  0
H  H36  1  0.53027314  0.45707340  0.80805790  1  0  0.111619  0  0.969895  0  0  0.120241  0  1.032357  0  0  0.123619  0  1.030031  0  0  0.120181  0.118032  0  1.03367  0
H  H37  1  0.92677948  0.45719742  0.30819801  1  0  0.111225  0  0.97054  0  0  0.119482  0  1.033362  0  0  0.122827  0  1.031085  0  0  0.11995  0.117278  0  1.034685  0
H  H38  1  0.43531981  0.03771504  0.83876742  1  0  0.131071  0  0.948747  0  0  0.146238  0  1.000183  0  0  0.150008  0  0.99525  0  0  0.139388  0.143362  0  1.004166  0
H  H39  1  0.60217240  0.03784818  0.33885043  1  0  0.132421  0  0.948343  0  0  0.146965  0  1.000295  0  0  0.150901  0  0.99516  0  0  0.139485  0.14399  0  1.004435  0
H  H40  1  0.25278391  0.01967289  0.69663848  1  0  0.111686  0  0.975543  0  0  0.119194  0  1.041558  0  0  0.121887  0  1.040134  0  0  0.120654  0.117191  0  1.042565  0
H  H41  1  0.76635989  0.01963958  0.19663494  1  0  0.111733  0  0.974838  0  0  0.118886  0  1.041264  0  0  0.121545  0  1.039901  0  0  0.120437  0.116893  0  1.042269  0
H  H42  1  0.35743470  0.29938887  0.67059804  1  0  0.121857  0  0.948445  0  0  0.131283  0  1.010989  0  0  0.133916  0  1.009871  0  0  0.12708  0.129036  0  1.01251  0
H  H43  1  0.94154144  0.29934047  0.17058412  1  0  0.121484  0  0.949855  0  0  0.130902  0  1.012331  0  0  0.133553  0  1.011156  0  0  0.126851  0.128638  0  1.013877  0
H  H44  1  0.41233229  0.05273510  0.48140334  1  0  0.106635  0  0.986106  0  0  0.114765  0  1.054421  0  0  0.118439  0  1.0497  0  0  0.133196  0.112095  0  1.057731  0
H  H45  1  0.64022913  0.05260886  0.98137296  1  0  0.106364  0  0.985791  0  0  0.114748  0  1.053811  0  0  0.118411  0  1.049067  0  0  0.133345  0.112097  0  1.05712  0
H  H46  1  0.43962514  0.41805992  0.55690888  1  0  0.075445  0  0.94809  0  0  0.08777  0  1.016084  0  0  0.087891  0  1.017767  0  0  0.109753  0.088271  0  1.013477  0
H  H47  1  0.97832595  0.41793504  0.05693061  1  0  0.075911  0  0.946536  0  0  0.088517  0  1.014388  0  0  0.088615  0  1.016116  0  0  0.109735  0.089013  0  1.01181  0
H  H48  1  0.42207727  0.31360574  0.47207278  1  0  0.088298  0  0.909931  0  0  0.107584  0  0.964262  0  0  0.108277  0  0.964211  0  0  0.113169  0.106942  0  0.964487  0
H  H49  1  0.89164944  0.31351008  0.97207972  1  0  0.088388  0  0.909988  0  0  0.107557  0  0.964465  0  0  0.108217  0  0.964462  0  0  0.113537  0.106932  0  0.964661  0
H  H50  1  0.68774168  0.31170580  0.50004592  1  0  0.068012  0  0.933998  0  0  0.086858  0  0.993445  0  0  0.087025  0  0.995166  0  0  0.090843  0.087079  0  0.991281  0
H  H51  1  0.62404794  0.31169974  0.99988469  1  0  0.068631  0  0.933156  0  0  0.086858  0  0.992977  0  0  0.087035  0  0.994698  0  0  0.091148  0.087108  0  0.990781  0
H  H52  1  0.71215500  0.41819924  0.58499625  1  0  0.066781  0  0.930493  0  0  0.084338  0  0.993566  0  0  0.085088  0  0.993914  0  0  0.092105  0.083811  0  0.993067  0
H  H53  1  0.70589219  0.41812744  0.08486977  1  0  0.066927  0  0.930351  0  0  0.084138  0  0.99356  0  0  0.084869  0  0.99393  0  0  0.091917  0.083629  0  0.993062  0
H  H54  1  0.85480548  0.53367574  0.46778858  1  0  0.08736  0  0.940291  0  0  0.105659  0  1.001043  0  0  0.106108  0  1.002193  0  0  0.097177  0.105238  0  1.000169  0
H  H55  1  0.67951762  0.53371372  0.96760158  1  0  0.08688  0  0.940461  0  0  0.105299  0  1.000738  0  0  0.105699  0  1.001956  0  0  0.097123  0.104896  0  0.999858  0
H  H56  1  0.66363587  0.52300975  0.44300655  1  0  0.084181  0  0.947128  0  0  0.104026  0  1.006185  0  0  0.10488  0  1.006717  0  0  0.093918  0.103224  0  1.006135  0
H  H57  1  0.86010130  0.52296358  0.94299288  1  0  0.084944  0  0.946944  0  0  0.104006  0  1.006642  0  0  0.104929  0  1.007092  0  0  0.093844  0.103177  0  1.006597  0
H  H58  1  0.87604808  0.68111764  0.58414132  1  0  0.089752  0  0.970846  0  0  0.104518  0  1.034385  0  0  0.106436  0  1.032991  0  0  0.107927  0.103228  0  1.035629  0
H  H59  1  0.80511601  0.68095098  0.08402982  1  0  0.089465  0  0.972203  0  0  0.104944  0  1.035055  0  0  0.106889  0  1.033591  0  0  0.108041  0.103651  0  1.036299  0
H  H60  1  0.85187791  0.75724991  0.50654647  1  0  0.091146  0  0.953294  0  0  0.109802  0  1.011526  0  0  0.111237  0  1.010422  0  0  0.110426  0.108586  0  1.012721  0
H  H61  1  0.90556044  0.75719311  0.00648730  1  0  0.091419  0  0.954087  0  0  0.109548  0  1.012928  0  0  0.111051  0  1.011741  0  0  0.110251  0.10829  0  1.014173  0
H  H62  1  0.55908763  0.74956846  0.48358843  1  0  0.121821  0  0.929992  0  0  0.132767  0  0.988556  0  0  0.136113  0  0.983862  0  0  0.144847  0.130187  0  0.992257  0
H  H63  1  0.19097801  0.75005640  0.98370624  1  0  0.122355  0  0.929318  0  0  0.13303  0  0.98825  0  0  0.136471  0  0.983441  0  0  0.145073  0.130386  0  0.992024  0
H  H64  1  0.40447844  0.68569427  0.69872783  1  0  0.103394  0  0.998066  0  0  0.106788  0  1.07103  0  0  0.109809  0  1.069065  0  0  0.117872  0.104706  0  1.072355  0
H  H65  1  0.28125954  0.68591981  0.19882249  1  0  0.102934  0  0.997991  0  0  0.106301  0  1.071206  0  0  0.10931  0  1.069272  0  0  0.117772  0.104249  0  1.072455  0
H  H66  1  0.67926034  0.64033003  0.68107974  1  0  0.133289  0  0.956141  0  0  0.146047  0  1.010704  0  0  0.149788  0  1.008125  0  0  0.126986  0.143383  0  1.012791  0
H  H67  1  0.96109523  0.64051899  0.18110064  1  0  0.133721  0  0.955759  0  0  0.146381  0  1.01038  0  0  0.150103  0  1.007833  0  0  0.126696  0.143713  0  1.012468  0
C  C68  1  0.07943260  0.37049852  0.50508063  1  0  0.012096  0  3.720548  0  0  -0.019995  0  3.982635  0  0  -0.017795  0  4.002251  0  0  0.001216  -0.020582  0  3.966695  0
C  C69  1  0.29126094  0.37055117  0.00513574  1  0  0.012637  0  3.720341  0  0  -0.019343  0  3.982085  0  0  -0.017167  0  4.001716  0  0  0.001376  -0.019927  0  3.966211  0
C  C70  1  0.05351886  0.35060980  0.57710474  1  0  -0.059418  0  3.635513  0  0  -0.098008  0  3.888474  0  0  -0.097062  0  3.906691  0  0  0.00458  -0.098451  0  3.874827  0
C  C71  1  0.29716572  0.35067283  0.07716126  1  0  -0.05884  0  3.635025  0  0  -0.097188  0  3.887982  0  0  -0.09616  0  3.906259  0  0  0.004781  -0.097667  0  3.874259  0
C  C72  1  0.97306670  0.14113382  0.50840871  1  0  0.152497  0  3.648558  0  0  0.092679  0  3.906287  0  0  0.106063  0  3.919204  0  0  0.141137  0.083699  0  3.898016  0
C  C73  1  0.16821996  0.14118513  0.00846501  1  0  0.153279  0  3.648533  0  0  0.09332  0  3.906005  0  0  0.106687  0  3.918911  0  0  0.141364  0.084362  0  3.89772  0
C  C74  1  0.93046343  0.13396053  0.64279601  1  0  -0.007736  0  3.615464  0  0  -0.068626  0  3.87312  0  0  -0.065143  0  3.884952  0  0  -0.052396  -0.071104  0  3.86505  0
C  C75  1  0.20355648  0.13408349  0.14287022  1  0  -0.009586  0  3.617654  0  0  -0.070361  0  3.875479  0  0  -0.067002  0  3.887485  0  0  -0.052599  -0.072816  0  3.867373  0
C  C76  1  0.75432853  0.10224598  0.65644406  1  0  -0.118319  0  3.665569  0  0  -0.161427  0  3.930989  0  0  -0.162965  0  3.945405  0  0  -0.165453  -0.160052  0  3.920704  0
C  C77  1  0.34801472  0.10243032  0.15644353  1  0  -0.117359  0  3.666151  0  0  -0.160913  0  3.931619  0  0  -0.162342  0  3.945962  0  0  -0.165014  -0.159552  0  3.921353  0
C  C78  1  0.70146922  0.03107834  0.72557475  1  0  -0.127986  0  3.65725  0  0  -0.16487  0  3.910543  0  0  -0.166359  0  3.925081  0  0  -0.162266  -0.16347  0  3.900119  0
C  C79  1  0.32977944  0.03120711  0.22555085  1  0  -0.127231  0  3.656205  0  0  -0.163967  0  3.909512  0  0  -0.165566  0  3.924078  0  0  -0.162173  -0.162491  0  3.89904  0
C  C80  1  0.75373620  0.13358987  0.79738801  1  0  0.000231  0  3.603806  0  0  -0.061076  0  3.855353  0  0  -0.05677  0  3.866124  0  0  -0.051883  -0.064168  0  3.848462  0
C  C81  1  0.37973747  0.13364755  0.29737514  1  0  -0.002025  0  3.605079  0  0  -0.063513  0  3.857261  0  0  -0.059224  0  3.867991  0  0  -0.052759  -0.066631  0  3.850512  0
C  C82  1  0.68953656  0.34617663  0.79773123  1  0  -0.064277  0  3.662563  0  0  -0.104374  0  3.919374  0  0  -0.10316  0  3.938281  0  0  0.005199  -0.104885  0  3.906665  0
C  C83  1  0.65662197  0.34632625  0.29786277  1  0  -0.063688  0  3.664118  0  0  -0.103567  0  3.920864  0  0  -0.10229  0  3.939847  0  0  0.005576  -0.104118  0  3.908114  0
C  C84  1  0.55205060  0.36453715  0.81040258  1  0  -0.008539  0  3.750574  0  0  -0.041561  0  4.015778  0  0  -0.040461  0  4.036488  0  0  -0.003335  -0.042075  0  4.001478  0
C  C85  1  0.81244856  0.36468529  0.31056381  1  0  -0.008659  0  3.753291  0  0  -0.041598  0  4.018715  0  0  -0.04045  0  4.039352  0  0  -0.003406  -0.042128  0  4.004423  0
C  C86  1  0.49635585  0.14701665  0.82779900  1  0  0.16522  0  3.615814  0  0  0.106248  0  3.867985  0  0  0.120348  0  3.879291  0  0  0.145555  0.096849  0  3.860343  0
C  C87  1  0.65050461  0.14714794  0.32787835  1  0  0.164286  0  3.617027  0  0  0.105959  0  3.868882  0  0  0.119926  0  3.880172  0  0  0.145849  0.096624  0  3.861279  0
C  C88  1  0.30095371  0.06839007  0.64812353  1  0  0.004774  0  3.723733  0  0  -0.028456  0  3.987839  0  0  -0.026828  0  4.008257  0  0  -0.00064  -0.029105  0  3.972463  0
C  C89  1  0.76697608  0.06834003  0.14810936  1  0  0.005551  0  3.721816  0  0  -0.027301  0  3.986057  0  0  -0.025658  0  4.006423  0  0  -0.000176  -0.027989  0  3.970755  0
C  C90  1  0.35279058  0.20674246  0.63589700  1  0  -0.054646  0  3.656869  0  0  -0.098387  0  3.919893  0  0  -0.096847  0  3.939617  0  0  0.005144  -0.099388  0  3.905928  0
C  C91  1  0.85355080  0.20669249  0.13589422  1  0  -0.055081  0  3.656782  0  0  -0.098859  0  3.919695  0  0  -0.097305  0  3.939405  0  0  0.004788  -0.099838  0  3.905689  0
C  C92  1  0.38245598  0.08115488  0.53632657  1  0  0.147735  0  3.653945  0  0  0.08648  0  3.913554  0  0  0.099605  0  3.926459  0  0  0.141438  0.077557  0  3.905713  0
C  C93  1  0.69849348  0.08106605  0.03629207  1  0  0.148468  0  3.651539  0  0  0.087134  0  3.911078  0  0  0.100274  0  3.923958  0  0  0.140903  0.078193  0  3.903255  0
C  C94  1  0.47605497  0.33986165  0.52840466  1  0  -0.000202  0  3.605324  0  0  -0.061859  0  3.864636  0  0  -0.05765  0  3.87558  0  0  -0.052609  -0.064738  0  3.856734  0
C  C95  1  0.86374880  0.33975292  0.02839197  1  0  -0.00044  0  3.605641  0  0  -0.062597  0  3.86544  0  0  -0.058349  0  3.87632  0  0  -0.052757  -0.065529  0  3.857632  0
C  C96  1  0.66055349  0.39652064  0.52821181  1  0  -0.119093  0  3.672297  0  0  -0.162907  0  3.941489  0  0  -0.164328  0  3.955996  0  0  -0.162319  -0.161771  0  3.930781  0
C  C97  1  0.73601005  0.39646032  0.02810920  1  0  -0.120284  0  3.672645  0  0  -0.163098  0  3.941137  0  0  -0.164536  0  3.955641  0  0  -0.162892  -0.161984  0  3.930432  0
C  C98  1  0.74180277  0.52921162  0.48989329  1  0  -0.127461  0  3.650706  0  0  -0.166663  0  3.904269  0  0  -0.168596  0  3.918926  0  0  -0.163612  -0.164914  0  3.894247  0
C  C99  1  0.78791974  0.52917685  0.98980300  1  0  -0.127653  0  3.650417  0  0  -0.165908  0  3.9032  0  0  -0.167845  0  3.917797  0  0  -0.163227  -0.164152  0  3.893223  0
C  C100  1  0.79152761  0.67064397  0.53919484  1  0  -0.015738  0  3.605058  0  0  -0.077161  0  3.853359  0  0  -0.073431  0  3.863688  0  0  -0.060873  -0.080191  0  3.847236  0
C  C101  1  0.87941334  0.67063067  0.03914464  1  0  -0.015874  0  3.606363  0  0  -0.077769  0  3.854727  0  0  -0.07407  0  3.865025  0  0  -0.061257  -0.080781  0  3.848643  0
C  C102  1  0.55124794  0.72643649  0.53965552  1  0  0.179989  0  3.603035  0  0  0.122304  0  3.857365  0  0  0.137317  0  3.868039  0  0  0.152291  0.112481  0  3.849716  0
C  C103  1  0.17557069  0.72689999  0.03976832  1  0  0.179337  0  3.604219  0  0  0.121606  0  3.858748  0  0  0.136536  0  3.869362  0  0  0.152174  0.111841  0  3.851143  0
C  C104  1  0.47376760  0.68892430  0.65080419  1  0  -0.003818  0  3.757381  0  0  -0.037155  0  4.025751  0  0  -0.035262  0  4.045841  0  0  -0.00102  -0.03827  0  4.012404  0
C  C105  1  0.21530738  0.68921609  0.15089184  1  0  -0.002766  0  3.755732  0  0  -0.036225  0  4.023996  0  0  -0.034337  0  4.044075  0  0  -0.00183  -0.037347  0  4.010672  0
C  C106  1  0.60869543  0.66513495  0.64289900  1  0  -0.067738  0  3.657311  0  0  -0.106597  0  3.908792  0  0  -0.105686  0  3.927064  0  0  0.004351  -0.107538  0  3.897246  0
C  C107  1  0.05658403  0.66542820  0.14295589  1  0  -0.069539  0  3.656235  0  0  -0.108386  0  3.908174  0  0  -0.107466  0  3.926436  0  0  0.004558  -0.109329  0  3.896652  0
N  N108  1  0.02937510  0.23900130  0.46273788  1  0  -0.414467  0  3.341988  0  0  -0.336737  0  3.649655  0  0  -0.357835  0  3.662152  0  0  -0.362576  -0.322249  0  3.640288  0
N  N109  1  0.20986846  0.23904320  0.96279642  1  0  -0.414875  0  3.341369  0  0  -0.337524  0  3.649466  0  0  -0.358593  0  3.661934  0  0  -0.362964  -0.323057  0  3.640106  0
N  N110  1  0.98690597  0.20547451  0.57811341  1  0  -0.055204  0  3.582671  0  0  0.037723  0  3.803567  0  0  0.023364  0  3.830922  0  0  -0.23932  0.047369  0  3.7849  0
N  N111  1  0.21860434  0.20553650  0.07817356  1  0  -0.055295  0  3.582848  0  0  0.037509  0  3.803711  0  0  0.023189  0  3.831059  0  0  -0.239123  0.047145  0  3.785067  0
N  N112  1  0.65216814  0.20869385  0.80927770  1  0  -0.0576  0  3.556599  0  0  0.038458  0  3.773761  0  0  0.023522  0  3.801157  0  0  -0.238971  0.048575  0  3.754822  0
N  N113  1  0.55641806  0.20883182  0.30936842  1  0  -0.057576  0  3.55693  0  0  0.038257  0  3.774672  0  0  0.023313  0  3.802034  0  0  -0.240218  0.048369  0  3.755757  0
N  N114  1  0.43274453  0.23933404  0.82907084  1  0  -0.40614  0  3.34151  0  0  -0.325488  0  3.640831  0  0  -0.346267  0  3.653896  0  0  -0.365573  -0.310887  0  3.631103  0
N  N115  1  0.80648196  0.23945123  0.32919617  1  0  -0.406334  0  3.34193  0  0  -0.325288  0  3.640671  0  0  -0.346093  0  3.653779  0  0  -0.364745  -0.310662  0  3.630909  0
N  N116  1  0.31990514  0.99094420  0.58539054  1  0  -0.403289  0  3.325652  0  0  -0.32141  0  3.627062  0  0  -0.342386  0  3.639988  0  0  -0.358605  -0.307252  0  3.618094  0
N  N117  1  0.67071054  0.99089158  0.08537207  1  0  -0.404067  0  3.325306  0  0  -0.322228  0  3.626849  0  0  -0.343205  0  3.639791  0  0  -0.358671  -0.308082  0  3.617894  0
N  N118  1  0.40293523  0.21256201  0.56502296  1  0  -0.058123  0  3.573864  0  0  0.035942  0  3.793925  0  0  0.021504  0  3.820687  0  0  -0.239053  0.045599  0  3.776029  0
N  N119  1  0.80940055  0.21247441  0.06500076  1  0  -0.057807  0  3.572831  0  0  0.036349  0  3.793076  0  0  0.021915  0  3.819833  0  0  -0.238542  0.046013  0  3.775179  0
N  N120  1  0.65581640  0.68924586  0.57258034  1  0  -0.05002  0  3.549528  0  0  0.046037  0  3.765595  0  0  0.03153  0  3.792234  0  0  -0.238157  0.055948  0  3.74748  0
N  N121  1  0.03370774  0.68954982  0.07263479  1  0  -0.048762  0  3.549413  0  0  0.047495  0  3.765391  0  0  0.032976  0  3.792078  0  0  -0.237553  0.05741  0  3.747237  0
N  N122  1  0.43942630  0.72782369  0.58615070  1  0  -0.412054  0  3.326215  0  0  -0.330165  0  3.628339  0  0  -0.351658  0  3.641006  0  0  -0.361342  -0.315218  0  3.618703  0
N  N123  1  0.28867299  0.72820381  0.08626148  1  0  -0.412522  0  3.32682  0  0  -0.330406  0  3.628889  0  0  -0.351907  0  3.64158  0  0  -0.361222  -0.315464  0  3.619252  0
O  O124  1  0.79984807  0.72032361  0.25849980  1  0  -0.992491  0  1.550069  0  0  -1.011235  0  1.840822  0  0  -1.057774  0  1.83066  0  0  -0.691055  -0.972645  0  1.851533  0
O  O125  1  0.92064598  0.72054533  0.75837509  1  0  -0.992184  0  1.549895  0  0  -1.010483  0  1.840615  0  0  -1.057333  0  1.830315  0  0  -0.691141  -0.972006  0  1.851258  0
O  O126  1  0.56587902  0.82527901  0.25889944  1  0  -0.792096  0  1.33068  0  0  -0.814509  0  1.604761  0  0  -0.848917  0  1.598119  0  0  -0.590427  -0.78779  0  1.610922  0
O  O127  1  0.25970076  0.82527257  0.75898979  1  0  -0.791648  0  1.330857  0  0  -0.813929  0  1.605004  0  0  -0.848451  0  1.598317  0  0  -0.589863  -0.787264  0  1.611242  0
O  O128  1  0.45169050  0.52823905  0.24739593  1  0  -1.001859  0  1.59657  0  0  -1.016909  0  1.901166  0  0  -1.064847  0  1.89065  0  0  -0.695076  -0.97826  0  1.911914  0
O  O129  1  0.07630996  0.52828297  0.74775646  1  0  -1.001951  0  1.597896  0  0  -1.016971  0  1.902351  0  0  -1.064906  0  1.892118  0  0  -0.695386  -0.978327  0  1.912997  0
O  O130  1  0.16070521  0.32880179  0.29626821  1  0  -0.905941  0  1.552777  0  0  -0.879597  0  1.867766  0  0  -0.916725  0  1.845985  0  0  -0.630458  -0.851399  0  1.885797  0
O  O131  1  0.16775570  0.32879405  0.79647663  1  0  -0.905697  0  1.554364  0  0  -0.879461  0  1.869193  0  0  -0.916324  0  1.847499  0  0  -0.630542  -0.851279  0  1.887121  0
O  O132  1  0.40019690  0.50778294  0.39753460  1  0  -0.787189  0  1.272248  0  0  -0.809629  0  1.531242  0  0  -0.841751  0  1.523761  0  0  -0.602069  -0.784417  0  1.539759  0
O  O133  1  0.10788726  0.50801320  0.89789558  1  0  -0.786965  0  1.272361  0  0  -0.809475  0  1.531198  0  0  -0.841381  0  1.523997  0  0  -0.60187  -0.784282  0  1.539584  0
O  O134  1  0.21861664  0.61550636  0.32419937  1  0  -1.00286  0  1.606458  0  0  -1.022258  0  1.909369  0  0  -1.069886  0  1.902813  0  0  -0.692742  -0.982036  0  1.917731  0
O  O135  1  0.39680484  0.61545423  0.82421849  1  0  -1.002257  0  1.60658  0  0  -1.022166  0  1.909696  0  0  -1.069428  0  1.903246  0  0  -0.6927  -0.981974  0  1.918018  0
O  O136  1  0.40736415  0.89031940  0.40246836  1  0  -0.782595  0  1.293498  0  0  -0.792955  0  1.53583  0  0  -0.822142  0  1.52669  0  0  -0.602422  -0.768918  0  1.546653  0
O  O137  1  0.48276742  0.89030439  0.90254269  1  0  -0.78248  0  1.293778  0  0  -0.792963  0  1.535816  0  0  -0.822006  0  1.526741  0  0  -0.602553  -0.768953  0  1.546669  0
O  O138  1  0.09441398  0.82660478  0.35144179  1  0  -1.006094  0  1.591371  0  0  -1.026826  0  1.888495  0  0  -1.072102  0  1.879435  0  0  -0.703726  -0.986963  0  1.899903  0
O  O139  1  0.73200141  0.82672642  0.85124061  1  0  -1.006697  0  1.592538  0  0  -1.027406  0  1.88984  0  0  -1.072798  0  1.880698  0  0  -0.703685  -0.987651  0  1.901205  0
O  O140  1  0.15980419  0.70299062  0.46952166  1  0  -0.901482  0  1.544655  0  0  -0.884765  0  1.864493  0  0  -0.921938  0  1.847277  0  0  -0.620445  -0.8556  0  1.879565  0
O  O141  1  0.54331316  0.70306286  0.96944560  1  0  -0.900811  0  1.542607  0  0  -0.884301  0  1.862294  0  0  -0.92127  0  1.844993  0  0  -0.620138  -0.855156  0  1.877398  0
O  O142  1  0.97858238  0.01780592  0.31123460  1  0  -0.907664  0  1.53388  0  0  -0.885583  0  1.854297  0  0  -0.923245  0  1.834464  0  0  -0.628699  -0.856279  0  1.871302  0
O  O143  1  0.03939242  0.01788765  0.81117223  1  0  -0.907663  0  1.535098  0  0  -0.885839  0  1.856512  0  0  -0.923752  0  1.836574  0  0  -0.629294  -0.856637  0  1.873374  0
O  O144  1  0.81666930  0.83877058  0.40807065  1  0  -0.789248  0  1.299205  0  0  -0.805849  0  1.545577  0  0  -0.836891  0  1.537068  0  0  -0.598388  -0.7808  0  1.55632  0
O  O145  1  0.02164568  0.83864280  0.90797340  1  0  -0.788885  0  1.298961  0  0  -0.805039  0  1.545238  0  0  -0.836376  0  1.536593  0  0  -0.598628  -0.780089  0  1.555826  0
O  O146  1  0.08719746  0.68240262  0.63171572  1  0  -0.891328  0  1.550533  0  0  -0.858515  0  1.858225  0  0  -0.897366  0  1.837932  0  0  -0.623876  -0.829911  0  1.87428  0
O  O147  1  0.59596210  0.68267629  0.13159391  1  0  -0.891234  0  1.549639  0  0  -0.859033  0  1.857635  0  0  -0.897808  0  1.837396  0  0  -0.624274  -0.83042  0  1.873687  0
