# generated using pymatgen
data_MnH16C18S2(NO2)4
_symmetry_space_group_name_H-M   'P 1'
_cell_length_a   6.91935650
_cell_length_b   7.60746803
_cell_length_c   10.47354578
_cell_angle_alpha   106.40940678
_cell_angle_beta   95.99897101
_cell_angle_gamma   107.90620339
_symmetry_Int_Tables_number   1
_chemical_formula_structural   MnH16C18S2(NO2)4
_chemical_formula_sum   'Mn1 H16 C18 S2 N4 O8'
_cell_volume   492.05740529
_cell_formula_units_Z   1
loop_
 _symmetry_equiv_pos_site_id
 _symmetry_equiv_pos_as_xyz
  1  'x, y, z'
loop_
 _atom_site_type_symbol
 _atom_site_label
 _atom_site_symmetry_multiplicity
 _atom_site_fract_x
 _atom_site_fract_y
 _atom_site_fract_z
 _atom_site_occupancy
 _atom_site_pbe_cm5_charge
 _atom_site_pbe_ddec_charge
 _atom_site_pbe_ddec_spin_density
 _atom_site_pbe_ddec_sum_bond_order
 _atom_site_pbe_magmom
Mn  Mn0  1  0.00001307  0.00000000  0.00000192  1  0.63525  0.672682  1.176202  3.157991  1.139
H  H1  1  0.30537349  0.87085115  0.42896406  1  0.110543  0.12007  -2.2e-05  1.016021  0.0
H  H2  1  0.69463015  0.12914767  0.57103400  1  0.110529  0.120061  -2.2e-05  1.016013  0.0
H  H3  1  0.37722830  0.93502880  0.68018936  1  0.103963  0.101275  -0.000521  1.004992  0.0
H  H4  1  0.62277098  0.06497002  0.31980837  1  0.103966  0.101245  -0.00052  1.004982  0.0
H  H5  1  0.34783770  0.66176667  0.77094608  1  0.1014  0.103422  -0.000541  1.032316  0.0
H  H6  1  0.65215776  0.33823363  0.22905262  1  0.101398  0.103391  -0.000541  1.032341  0.0
H  H7  1  0.23955004  0.31799897  0.61456192  1  0.114116  0.125213  -4.8e-05  0.974071  0.0
H  H8  1  0.76044633  0.68199987  0.38543751  1  0.114127  0.125211  -4.8e-05  0.974083  0.0
H  H9  1  0.75007020  0.25345631  0.94527215  1  0.118506  0.085449  -0.00026  1.079036  0.0
H  H10  1  0.24993274  0.74654836  0.05472606  1  0.118515  0.085466  -0.000261  1.079104  0.0
H  H11  1  0.04022943  0.31303519  0.91085887  1  0.309963  0.397221  -0.00037  0.931388  0.0
H  H12  1  0.95977217  0.68696223  0.08914448  1  0.30994  0.39716  -0.00037  0.931472  0.0
H  H13  1  0.99079507  0.10469850  0.79033151  1  0.297756  0.376075  -0.00026  0.973535  0.0
H  H14  1  0.00920563  0.89530038  0.20967111  1  0.297788  0.376181  -0.000259  0.973388  0.0
H  H15  1  0.39606967  0.24867187  0.94148025  1  0.124878  0.121329  -1.6e-05  1.026439  0.0
H  H16  1  0.60393291  0.75133575  0.05852043  1  0.124876  0.121353  -1.6e-05  1.026413  0.0
C  C17  1  0.14660695  0.21195590  0.32239119  1  0.234812  0.482157  -0.006059  4.147599  -0.004
C  C18  1  0.85339086  0.78804296  0.67760931  1  0.234761  0.482124  -0.006057  4.147688  -0.004
C  C19  1  0.21924070  0.40327813  0.43494931  1  -0.010401  -0.049839  -0.00077  4.034741  0.0
C  C20  1  0.78075566  0.59672072  0.56505012  1  -0.010361  -0.049812  -0.00077  4.034722  0.0
C  C21  1  0.24247671  0.55961178  0.38590599  1  -0.014806  -0.120564  -0.001946  4.021111  -0.001
C  C22  1  0.75751911  0.44038559  0.61409215  1  -0.014795  -0.120563  -0.001946  4.021212  -0.001
C  C23  1  0.29802628  0.75228150  0.46955168  1  -0.075008  -0.072717  -4.8e-05  3.943452  0.0
C  C24  1  0.70197300  0.24771732  0.53044605  1  -0.074995  -0.072709  -4.8e-05  3.943468  0.0
C  C25  1  0.33572788  0.78626245  0.61008856  1  -0.078787  -0.059856  -0.002626  3.94116  -0.002
C  C26  1  0.66427140  0.21373638  0.38991013  1  -0.078798  -0.059811  -0.002625  3.941145  -0.002
C  C27  1  0.31783228  0.63222020  0.66157864  1  -0.082928  -0.070751  0.000178  3.949791  0.0
C  C28  1  0.68216354  0.36777717  0.33841950  1  -0.082939  -0.070775  0.000178  3.949753  0.0
C  C29  1  0.25755255  0.43844495  0.57463395  1  -0.070407  -0.069929  -0.002837  3.921332  -0.002
C  C30  1  0.74244582  0.56155535  0.42536497  1  -0.070431  -0.069923  -0.002837  3.921284  -0.002
C  C31  1  0.64021606  0.13751034  0.96905681  1  0.04097  0.025527  -0.015007  3.920942  -0.005
C  C32  1  0.35978139  0.86249146  0.03094520  1  0.040921  0.02547  -0.015053  3.920743  -0.005
C  C33  1  0.43963913  0.13554622  0.96706550  1  0.042289  0.0226  -0.01436  3.891394  -0.005
C  C34  1  0.56036580  0.86445993  0.03293506  1  0.042324  0.022601  -0.014311  3.891356  -0.005
S  S35  1  0.18999758  0.46286873  0.20678219  1  0.569013  1.116383  -0.00185  5.849827  -0.001
S  S36  1  0.81000405  0.53712864  0.79321638  1  0.569019  1.116447  -0.00185  5.849652  -0.001
N  N37  1  0.11977871  0.22913345  0.19609971  1  -0.379143  -0.573879  -0.010206  3.33244  -0.007
N  N38  1  0.88022436  0.77086392  0.80389993  1  -0.379122  -0.573897  -0.010205  3.332419  -0.007
N  N39  1  0.70773850  0.00311146  0.00244051  1  -0.331612  -0.160863  -0.043671  3.534311  -0.041
N  N40  1  0.29226116  0.99689617  0.99756091  1  -0.331619  -0.160794  -0.043627  3.534257  -0.041
O  O41  1  0.10965042  0.05123264  0.34399461  1  -0.288592  -0.46962  -0.002089  2.180032  -0.002
O  O42  1  0.89034392  0.94876477  0.65600725  1  -0.288556  -0.469536  -0.002088  2.180123  -0.002
O  O43  1  0.37705947  0.52394255  0.15513028  1  -0.298101  -0.516045  -0.000232  2.151482  0.0
O  O44  1  0.62294470  0.47605776  0.84487098  1  -0.298153  -0.516112  -0.000232  2.151424  0.0
O  O45  1  0.05787598  0.18532212  0.89161007  1  -0.554485  -0.703264  0.015491  2.302782  0.011
O  O46  1  0.94213165  0.81467965  0.10839077  1  -0.554493  -0.703297  0.015496  2.302856  0.011
O  O47  1  0.01178486  0.49715118  0.14531429  1  -0.301558  -0.545773  -6e-05  2.247691  0.0
O  O48  1  0.98821568  0.50284324  0.85468171  1  -0.301533  -0.545781  -6.1e-05  2.24757  0.0
