# generated using pymatgen
data_ZnH19C24SN3O5
_symmetry_space_group_name_H-M   'P 1'
_cell_length_a   9.07564576
_cell_length_b   17.51136020
_cell_length_c   17.51137616
_cell_angle_alpha   116.98318390
_cell_angle_beta   89.99976865
_cell_angle_gamma   89.99952409
_symmetry_Int_Tables_number   1
_chemical_formula_structural   ZnH19C24SN3O5
_chemical_formula_sum   'Zn4 H76 C96 S4 N12 O20'
_cell_volume   2480.06749940
_cell_formula_units_Z   4
loop_
 _symmetry_equiv_pos_site_id
 _symmetry_equiv_pos_as_xyz
  1  'x, y, z'
loop_
 _atom_site_type_symbol
 _atom_site_label
 _atom_site_symmetry_multiplicity
 _atom_site_fract_x
 _atom_site_fract_y
 _atom_site_fract_z
 _atom_site_occupancy
 _atom_site_pbe_bader_charge
 _atom_site_pbe_bader_spin_density
 _atom_site_pbe_cm5_charge
 _atom_site_pbe_ddec_charge
 _atom_site_pbe_ddec_spin_density
 _atom_site_pbe_ddec_sum_bond_order
 _atom_site_pbe_magmom
Zn  Zn0  1  0.36073896  0.29026787  0.82200895  1  1.331467  0  0.667515  0.914634  0  2.336174  0
Zn  Zn1  1  0.86072471  0.70973759  0.17799404  1  1.330772  0  0.667517  0.914694  0  2.33613  0
Zn  Zn2  1  0.63926585  0.82201428  0.29026476  1  1.331288  0  0.667545  0.914795  0  2.335945  0
Zn  Zn3  1  0.13927507  0.17798940  0.70973622  1  1.330713  0  0.667528  0.914727  0  2.336012  0
H  H4  1  0.61420316  0.11098214  0.86573783  1  0.082034  0  0.100579  0.100396  0  1.033036  0
H  H5  1  0.11418485  0.88902043  0.13426274  1  0.082077  0  0.100548  0.100445  0  1.032909  0
H  H6  1  0.38580547  0.86572668  0.11097611  1  0.081797  0  0.100567  0.100392  0  1.032998  0
H  H7  1  0.88584857  0.13426140  0.88902220  1  0.082078  0  0.100613  0.100497  0  1.033046  0
H  H8  1  0.75036608  0.99224897  0.87466382  1  0.109649  0  0.097941  0.10412  0  1.052166  0
H  H9  1  0.25035187  0.00775359  0.12534559  1  0.109966  0  0.09794  0.104097  0  1.052339  0
H  H10  1  0.24963743  0.87465101  0.99224843  1  0.109697  0  0.097922  0.104116  0  1.052266  0
H  H11  1  0.74964811  0.12534362  0.00774899  1  0.109941  0  0.097896  0.104085  0  1.052066  0
H  H12  1  0.47067362  0.81022379  0.67687773  1  0.062776  0  0.096186  0.093528  0  1.035054  0
H  H13  1  0.97066642  0.18979301  0.32312647  1  0.062586  0  0.096214  0.093473  0  1.03494  0
H  H14  1  0.52932120  0.67685983  0.81021396  1  0.062497  0  0.096179  0.093508  0  1.034945  0
H  H15  1  0.02931029  0.32313642  0.18978979  1  0.062534  0  0.096229  0.093543  0  1.034915  0
H  H16  1  0.33356069  0.92969120  0.67122542  1  0.093227  0  0.105701  0.113868  0  1.011806  0
H  H17  1  0.83354652  0.07032629  0.32877195  1  0.09271  0  0.105646  0.113735  0  1.012138  0
H  H18  1  0.66644930  0.67121676  0.92967743  1  0.092813  0  0.105669  0.113845  0  1.011836  0
H  H19  1  0.16645800  0.32877744  0.07033028  1  0.092659  0  0.105671  0.113795  0  1.01193  0
H  H20  1  0.78969506  0.61015681  0.64281688  1  0.067439  0  0.103593  0.105279  0  0.997436  0
H  H21  1  0.28971370  0.38985517  0.35719878  1  0.067335  0  0.103618  0.105318  0  0.997489  0
H  H22  1  0.21029374  0.64280786  0.61015234  1  0.067235  0  0.103608  0.105299  0  0.997456  0
H  H23  1  0.71029327  0.35719469  0.38984743  1  0.067233  0  0.103577  0.105261  0  0.997309  0
H  H24  1  0.66640258  0.73366601  0.64366833  1  0.086079  0  0.105017  0.108282  0  0.99799  0
H  H25  1  0.16641547  0.26635121  0.35634756  1  0.086055  0  0.105063  0.108322  0  0.998074  0
H  H26  1  0.33358694  0.64365105  0.73365617  1  0.086199  0  0.105004  0.108208  0  0.998084  0
H  H27  1  0.83357977  0.35633780  0.26633516  1  0.086264  0  0.105078  0.108324  0  0.998159  0
H  H28  1  0.76397522  0.50772844  0.68430024  1  0.055239  0  0.097943  0.096041  0  1.013915  0
H  H29  1  0.26397495  0.49226930  0.31569849  1  0.055258  0  0.097895  0.095939  0  1.01392  0
H  H30  1  0.23603414  0.68430633  0.50772609  1  0.055095  0  0.097952  0.096092  0  1.013968  0
H  H31  1  0.73603350  0.31570150  0.49226505  1  0.055119  0  0.09795  0.096054  0  1.013964  0
H  H32  1  0.87384063  0.37607143  0.68163988  1  0.099018  0  0.10498  0.111904  0  1.004361  0
H  H33  1  0.37383715  0.62392886  0.31836257  1  0.099024  0  0.10501  0.111943  0  1.004347  0
H  H34  1  0.12618246  0.68164441  0.37606804  1  0.09878  0  0.105011  0.111987  0  1.004247  0
H  H35  1  0.62617630  0.31836037  0.62392431  1  0.098939  0  0.105097  0.112095  0  1.004248  0
H  H36  1  0.20596778  0.52794043  0.85949210  1  0.102153  0  0.104478  0.110426  0  1.012262  0
H  H37  1  0.70598403  0.47206169  0.14051379  1  0.102314  0  0.104448  0.110394  0  1.012315  0
H  H38  1  0.79401391  0.85947438  0.52793541  1  0.102457  0  0.104431  0.110352  0  1.012437  0
H  H39  1  0.29403336  0.14051359  0.47206019  1  0.102452  0  0.104455  0.110419  0  1.012067  0
H  H40  1  0.10105849  0.66032300  0.86121425  1  0.082877  0  0.098403  0.100255  0  1.054711  0
H  H41  1  0.60107244  0.33968231  0.13879095  1  0.082664  0  0.098401  0.100258  0  1.054895  0
H  H42  1  0.89891058  0.86119388  0.66031780  1  0.082269  0  0.098399  0.100259  0  1.054671  0
H  H43  1  0.39893333  0.13879980  0.33968004  1  0.082637  0  0.098396  0.100266  0  1.054661  0
H  H44  1  0.55382681  0.27123142  0.94507776  1  0.097265  0  0.102484  0.165308  0  1.009332  0
H  H45  1  0.05381828  0.72877698  0.05493631  1  0.097161  0  0.10253  0.165371  0  1.009275  0
H  H46  1  0.44618007  0.94506691  0.27122641  1  0.09721  0  0.102494  0.165345  0  1.009233  0
H  H47  1  0.94617282  0.05492076  0.72877102  1  0.09727  0  0.102489  0.165313  0  1.009226  0
H  H48  1  0.71605780  0.31979950  0.00413971  1  0.059539  0  0.098197  0.148263  0  1.0242  0
H  H49  1  0.21604685  0.68020323  0.99586756  1  0.059712  0  0.098218  0.148274  0  1.024209  0
H  H50  1  0.28394321  0.00412677  0.31979648  1  0.059627  0  0.098228  0.148253  0  1.024296  0
H  H51  1  0.78394902  0.99586043  0.68019254  1  0.059509  0  0.098231  0.148267  0  1.024324  0
H  H52  1  0.72805168  0.25295405  0.89237989  1  0.081772  0  0.105865  0.167842  0  0.988288  0
H  H53  1  0.22805016  0.74704549  0.10762941  1  0.095188  0  0.105855  0.167764  0  0.988161  0
H  H54  1  0.27195494  0.89236270  0.25293990  1  0.094783  0  0.105874  0.167833  0  0.988081  0
H  H55  1  0.77195112  0.10761870  0.74704264  1  0.081863  0  0.105879  0.167818  0  0.988364  0
H  H56  1  0.60358150  0.49681283  0.88614426  1  0.098282  0  0.112165  0.130417  0  1.005602  0
H  H57  1  0.10357938  0.50317721  0.11385836  1  0.098479  0  0.112155  0.130431  0  1.005586  0
H  H58  1  0.39640575  0.88613586  0.49681388  1  0.098204  0  0.112171  0.130461  0  1.005546  0
H  H59  1  0.89642364  0.11385847  0.50318424  1  0.098262  0  0.112178  0.130429  0  1.00565  0
H  H60  1  0.79808877  0.51131929  0.88242646  1  0.064022  0  0.099582  0.113112  0  1.02952  0
H  H61  1  0.29808574  0.48867771  0.11757645  1  0.064323  0  0.099593  0.113134  0  1.029558  0
H  H62  1  0.20189725  0.88241938  0.51131707  1  0.064279  0  0.099566  0.113094  0  1.029593  0
H  H63  1  0.70191630  0.11757764  0.48868664  1  0.064355  0  0.099553  0.113102  0  1.029594  0
H  H64  1  0.70285173  0.56657276  0.98166934  1  0.07669  0  0.106263  0.130538  0  1.005678  0
H  H65  1  0.20285369  0.43342222  0.01832948  1  0.076637  0  0.106281  0.130535  0  1.005609  0
H  H66  1  0.29713134  0.98166484  0.56656622  1  0.076884  0  0.10628  0.130585  0  1.005705  0
H  H67  1  0.79714909  0.01833315  0.43342684  1  0.076586  0  0.106259  0.130543  0  1.005623  0
H  H68  1  0.88677612  0.38387042  0.99551713  1  0.052921  0  0.103202  0.115018  0  1.04434  0
H  H69  1  0.38675877  0.61611951  0.00447969  1  0.053169  0  0.103281  0.115  0  1.044235  0
H  H70  1  0.11321778  0.99549168  0.38385175  1  0.053057  0  0.103169  0.11506  0  1.044227  0
H  H71  1  0.61323318  0.00448232  0.61612338  1  0.053094  0  0.103243  0.115005  0  1.044235  0
H  H72  1  0.89915181  0.49646595  0.02920560  1  0.096141  0  0.107332  0.130177  0  1.037982  0
H  H73  1  0.39913505  0.50352402  0.97079521  1  0.096051  0  0.107289  0.13008  0  1.037942  0
H  H74  1  0.10082806  0.02918701  0.49644787  1  0.096552  0  0.107289  0.130135  0  1.037981  0
H  H75  1  0.60087315  0.97079152  0.50352810  1  0.095928  0  0.107306  0.130165  0  1.037801  0
H  H76  1  0.96323898  0.42179921  0.92572228  1  0.067099  0  0.103511  0.124464  0  1.001217  0
H  H77  1  0.46323048  0.57819475  0.07427782  1  0.067461  0  0.103513  0.12443  0  1.00114  0
H  H78  1  0.03675200  0.92569748  0.42178351  1  0.067007  0  0.103498  0.124537  0  1.001241  0
H  H79  1  0.53677651  0.07427444  0.57819033  1  0.067207  0  0.103512  0.124449  0  1.001257  0
C  C80  1  0.38730080  0.10056238  0.76146877  1  1.585748  0  0.207732  0.574702  0  4.205783  0
C  C81  1  0.88725771  0.89945430  0.23853442  1  1.586717  0  0.207778  0.575061  0  4.204917  0
C  C82  1  0.61272132  0.76147302  0.10055730  1  1.586602  0  0.207765  0.574963  0  4.20547  0
C  C83  1  0.11273467  0.23852066  0.89944172  1  1.586641  0  0.207781  0.575015  0  4.205337  0
C  C84  1  0.46717115  0.02808554  0.76682401  1  -0.066579  0  -0.023643  -0.048803  0  3.99131  0
C  C85  1  0.96714239  0.97192495  0.23317977  1  -0.066051  0  -0.023593  -0.049255  0  3.991407  0
C  C86  1  0.53284847  0.76682600  0.02808189  1  -0.06617  0  -0.023609  -0.04892  0  3.991129  0
C  C87  1  0.03286572  0.23317592  0.97192200  1  -0.066013  0  -0.023515  -0.049026  0  3.990868  0
C  C88  1  0.58391951  0.04458361  0.82451172  1  -0.092104  0  -0.091847  -0.109638  0  4.032949  0
C  C89  1  0.08388880  0.95542632  0.17549608  1  -0.087474  0  -0.091931  -0.109644  0  4.032565  0
C  C90  1  0.41610364  0.82450453  0.04457593  1  -0.091913  0  -0.091886  -0.109618  0  4.032658  0
C  C91  1  0.91611469  0.17548846  0.95542385  1  -0.087631  0  -0.092061  -0.109833  0  4.032743  0
C  C92  1  0.66083666  0.97813353  0.82895987  1  -0.050112  0  -0.090932  -0.122327  0  3.942605  0
C  C93  1  0.16082736  0.02187837  0.17104575  1  -0.055187  0  -0.090946  -0.122378  0  3.942391  0
C  C94  1  0.33917307  0.82895379  0.97812385  1  -0.05049  0  -0.090933  -0.122457  0  3.94253  0
C  C95  1  0.83918513  0.17104395  0.02187016  1  -0.055182  0  -0.090867  -0.122281  0  3.942408  0
C  C96  1  0.62474977  0.89206589  0.77433287  1  -0.011719  0  -0.003665  0.087117  0  3.967437  0
C  C97  1  0.12474638  0.10794361  0.22566952  1  -0.012907  0  -0.003695  0.087151  0  3.966925  0
C  C98  1  0.37524732  0.77432954  0.89205988  1  -0.011461  0  -0.003688  0.087145  0  3.966875  0
C  C99  1  0.87525781  0.22567255  0.10793935  1  -0.011488  0  -0.003773  0.08702  0  3.9671  0
C  C100  1  0.50563794  0.87598906  0.71729659  1  -0.035267  0  -0.092771  -0.133538  0  3.969774  0
C  C101  1  0.00561511  0.12401938  0.28270788  1  -0.033764  0  -0.092759  -0.133452  0  3.969279  0
C  C102  1  0.49437765  0.71728933  0.87598108  1  -0.035663  0  -0.092716  -0.133418  0  3.969236  0
C  C103  1  0.99436728  0.28271211  0.12402217  1  -0.03579  0  -0.092692  -0.133425  0  3.969587  0
C  C104  1  0.42748211  0.94272604  0.71404674  1  -0.02819  0  -0.088936  -0.096639  0  3.986025  0
C  C105  1  0.92745416  0.05729370  0.28596167  1  -0.029777  0  -0.088819  -0.09621  0  3.985921  0
C  C106  1  0.57253383  0.71404137  0.94271193  1  -0.027747  0  -0.088908  -0.096554  0  3.985819  0
C  C107  1  0.07253780  0.28595900  0.05729063  1  -0.027479  0  -0.088896  -0.096383  0  3.985723  0
C  C108  1  0.70732407  0.82022953  0.77546799  1  4.3e-05  0  -0.001755  0.008692  0  3.957243  0
C  C109  1  0.20730634  0.17978611  0.22454657  1  0.002599  0  -0.001653  0.008604  0  3.957437  0
C  C110  1  0.29267386  0.77545570  0.82022341  1  0.000784  0  -0.001785  0.008577  0  3.957197  0
C  C111  1  0.79267388  0.22454131  0.17977837  1  0.000433  0  -0.001753  0.008565  0  3.957085  0
C  C112  1  0.78327425  0.82573742  0.84946158  1  0.472704  0  0.108509  0.124602  0  3.995241  0
C  C113  1  0.28324838  0.17427626  0.15054569  1  0.472441  0  0.108279  0.124404  0  3.995557  0
C  C114  1  0.21672824  0.84945605  0.82573559  1  0.472238  0  0.108544  0.124575  0  3.995502  0
C  C115  1  0.71672507  0.15054271  0.17426597  1  0.472817  0  0.108553  0.124783  0  3.994892  0
C  C116  1  0.86085939  0.75260864  0.84826216  1  0.494204  0  0.109241  0.121578  0  3.997593  0
C  C117  1  0.36084228  0.24740152  0.15175028  1  0.494105  0  0.109288  0.121451  0  3.997736  0
C  C118  1  0.13914729  0.84825388  0.75260056  1  0.495057  0  0.109294  0.121414  0  3.99752  0
C  C119  1  0.63914130  0.15174853  0.24740045  1  0.494951  0  0.109184  0.121366  0  3.997718  0
C  C120  1  0.86045596  0.67126024  0.77355642  1  0.001063  0  -0.001969  0.008505  0  3.967466  0
C  C121  1  0.36045238  0.32874916  0.22645170  1  0.001328  0  -0.001924  0.008601  0  3.967693  0
C  C122  1  0.13954488  0.77354608  0.67125060  1  0.001164  0  -0.001869  0.008654  0  3.967558  0
C  C123  1  0.63954366  0.22645162  0.32874038  1  0.000572  0  -0.001893  0.008573  0  3.96758  0
C  C124  1  0.78844816  0.66949715  0.70263122  1  -0.032647  0  -0.088967  -0.128977  0  4.005559  0
C  C125  1  0.28844729  0.33051788  0.29738004  1  -0.032754  0  -0.089095  -0.129119  0  4.005624  0
C  C126  1  0.21154914  0.70262075  0.66948742  1  -0.032658  0  -0.089038  -0.129047  0  4.00569  0
C  C127  1  0.71155009  0.29737840  0.33050461  1  -0.031995  0  -0.089026  -0.128931  0  4.005453  0
C  C128  1  0.71599545  0.74104547  0.70332181  1  -0.057461  0  -0.086602  -0.123583  0  4.004594  0
C  C129  1  0.21598689  0.25896756  0.29669161  1  -0.05843  0  -0.086551  -0.123447  0  4.004611  0
C  C130  1  0.28400099  0.70331203  0.74103841  1  -0.057948  0  -0.08656  -0.12344  0  4.004604  0
C  C131  1  0.78400473  0.29668745  0.25895931  1  -0.058118  0  -0.086636  -0.123629  0  4.004954  0
C  C132  1  0.92614116  0.59382857  0.77213947  1  -0.032878  0  -0.006144  0.078293  0  3.992823  0
C  C133  1  0.42615287  0.40617585  0.22786407  1  -0.032422  0  -0.006202  0.078231  0  3.992688  0
C  C134  1  0.07385291  0.77213134  0.59382080  1  -0.033113  0  -0.006226  0.078265  0  3.99304  0
C  C135  1  0.57385214  0.22786366  0.40617203  1  -0.032998  0  -0.00616  0.078232  0  3.992879  0
C  C136  1  0.86343462  0.51254596  0.72128337  1  -0.09289  0  -0.094136  -0.144567  0  3.994247  0
C  C137  1  0.36343913  0.48745688  0.27871734  1  -0.093242  0  -0.094137  -0.144453  0  3.994302  0
C  C138  1  0.13656984  0.72128016  0.51254370  1  -0.0926  0  -0.094116  -0.144524  0  3.994613  0
C  C139  1  0.63657532  0.27871835  0.48745279  1  -0.092609  0  -0.094156  -0.144412  0  3.994323  0
C  C140  1  0.92305521  0.43879545  0.72008602  1  -0.008458  0  -0.085582  -0.094029  0  3.99267  0
C  C141  1  0.42304863  0.56120699  0.27991439  1  -0.008268  0  -0.085578  -0.094101  0  3.992872  0
C  C142  1  0.07695565  0.72008485  0.43879694  1  -0.008002  0  -0.085631  -0.094249  0  3.992665  0
C  C143  1  0.57696383  0.27991410  0.56120158  1  -0.008153  0  -0.085811  -0.09456  0  3.993216  0
C  C144  1  0.04632727  0.44434038  0.77054267  1  -0.015413  0  -0.018187  -0.034329  0  3.974608  0
C  C145  1  0.54632275  0.55566189  0.22945449  1  -0.01543  0  -0.018204  -0.034302  0  3.974552  0
C  C146  1  0.95367081  0.77054903  0.44433994  1  -0.015908  0  -0.018268  -0.034411  0  3.974731  0
C  C147  1  0.45369038  0.22945829  0.55566079  1  -0.01552  0  -0.018116  -0.034196  0  3.974637  0
C  C148  1  0.10953625  0.52476924  0.82108046  1  -0.028362  0  -0.085923  -0.091784  0  3.974499  0
C  C149  1  0.60954553  0.47522773  0.17892228  1  -0.02891  0  -0.085873  -0.091705  0  3.974489  0
C  C150  1  0.89045364  0.82107312  0.52476505  1  -0.028773  0  -0.085856  -0.09163  0  3.974663  0
C  C151  1  0.39047136  0.17892235  0.47522729  1  -0.028923  0  -0.085832  -0.091698  0  3.974211  0
C  C152  1  0.05088420  0.59838735  0.82190092  1  -0.068178  0  -0.090381  -0.12489  0  3.968614  0
C  C153  1  0.55090015  0.40161257  0.17810321  1  -0.067932  0  -0.09035  -0.124897  0  3.968834  0
C  C154  1  0.94910481  0.82188895  0.59838391  1  -0.0673  0  -0.090317  -0.12488  0  3.968552  0
C  C155  1  0.44911983  0.17810815  0.40161243  1  -0.067883  0  -0.090368  -0.12486  0  3.968845  0
C  C156  1  0.11126431  0.36608878  0.77158683  1  1.586199  0  0.209762  0.57663  0  4.209036  0
C  C157  1  0.61125856  0.63391316  0.22841347  1  1.586229  0  0.209781  0.576615  0  4.209285  0
C  C158  1  0.88874461  0.77158121  0.36608211  1  1.58631  0  0.209878  0.57679  0  4.209113  0
C  C159  1  0.38873822  0.22842001  0.63391156  1  1.586568  0  0.209749  0.576651  0  4.209206  0
C  C160  1  0.65903783  0.30072088  0.94313336  1  -0.087383  0  -0.240195  -0.519897  0  3.907135  0
C  C161  1  0.15902425  0.69927398  0.05687350  1  -0.10067  0  -0.240202  -0.519812  0  3.907248  0
C  C162  1  0.34096982  0.94312226  0.30071798  1  -0.100653  0  -0.240249  -0.51993  0  3.907124  0
C  C163  1  0.84095617  0.05686540  0.69927739  1  -0.087384  0  -0.240251  -0.519872  0  3.907151  0
C  C164  1  0.63000578  0.37433251  0.92358411  1  1.349446  0  0.253033  0.520842  0  4.011078  0
C  C165  1  0.13000533  0.62566813  0.07641902  1  1.349427  0  0.253013  0.52072  0  4.01155  0
C  C166  1  0.36998800  0.92357135  0.37432695  1  1.349651  0  0.253079  0.520938  0  4.011417  0
C  C167  1  0.87000548  0.07641929  0.62566907  1  1.349501  0  0.25304  0.520808  0  4.0111  0
C  C168  1  0.70692930  0.50680182  0.92138233  1  0.234945  0  -0.137788  -0.274981  0  3.874624  0
C  C169  1  0.20692651  0.49319262  0.07862082  1  0.234324  0  -0.137824  -0.275016  0  3.874396  0
C  C170  1  0.29305962  0.92137307  0.50679484  1  0.234408  0  -0.13779  -0.275  0  3.874629  0
C  C171  1  0.79307704  0.07862373  0.49320000  1  0.234605  0  -0.137834  -0.275045  0  3.874679  0
C  C172  1  0.87833013  0.43371466  0.97466229  1  0.265609  0  -0.138364  -0.279089  0  3.88287  0
C  C173  1  0.37831340  0.56627929  0.02534027  1  0.2649  0  -0.138464  -0.278952  0  3.88269  0
C  C174  1  0.12165902  0.97463852  0.43369825  1  0.265472  0  -0.138282  -0.279145  0  3.883013  0
C  C175  1  0.62168000  0.02533678  0.56628029  1  0.265249  0  -0.138378  -0.278969  0  3.882505  0
S  S176  1  0.88344033  0.86829860  0.98881398  1  1.307005  0  0.404318  0.4561  0  3.403145  0
S  S177  1  0.38343389  0.13170878  0.01119492  1  1.306999  0  0.404338  0.456086  0  3.402972  0
S  S178  1  0.11656330  0.98880878  0.86828654  1  1.306953  0  0.404284  0.455949  0  3.403163  0
S  S179  1  0.61654394  0.01119168  0.13170740  1  1.30704  0  0.404415  0.456217  0  3.402918  0
N  N180  1  0.78863609  0.89534363  0.92702895  1  -1.203034  0  -0.30724  -0.355121  0  3.212845  0
N  N181  1  0.28860975  0.10467010  0.07298118  1  -1.202192  0  -0.307187  -0.355041  0  3.212793  0
N  N182  1  0.21136575  0.92701550  0.89532713  1  -1.202157  0  -0.307228  -0.354974  0  3.213081  0
N  N183  1  0.71136546  0.07297526  0.10465900  1  -1.202379  0  -0.307248  -0.355202  0  3.212511  0
N  N184  1  0.92279504  0.76998508  0.92473032  1  -1.21333  0  -0.302666  -0.342665  0  3.188522  0
N  N185  1  0.42279975  0.23002078  0.07527842  1  -1.213217  0  -0.302613  -0.342498  0  3.18834  0
N  N186  1  0.07720392  0.92472571  0.76997424  1  -1.213843  0  -0.302658  -0.342494  0  3.18854  0
N  N187  1  0.57719046  0.07528001  0.23001805  1  -1.214035  0  -0.30271  -0.342654  0  3.188638  0
N  N188  1  0.73306237  0.43449762  0.93979194  1  -1.190984  0  -0.271297  -0.005599  0  3.645383  0
N  N189  1  0.23304647  0.56550304  0.06021326  1  -1.190621  0  -0.271196  -0.005564  0  3.645421  0
N  N190  1  0.26692940  0.93977685  0.43448704  1  -1.191087  0  -0.271369  -0.00578  0  3.645728  0
N  N191  1  0.76695203  0.06020922  0.56550266  1  -1.190458  0  -0.271283  -0.005647  0  3.645212  0
O  O192  1  0.45321056  0.17285904  0.79379395  1  -1.166613  0  -0.316556  -0.556549  0  2.343568  0
O  O193  1  0.95315566  0.82715356  0.20621419  1  -1.166876  0  -0.316613  -0.556714  0  2.343476  0
O  O194  1  0.54681913  0.79379530  0.17284760  1  -1.167044  0  -0.31656  -0.556649  0  2.343724  0
O  O195  1  0.04682475  0.20619498  0.82715068  1  -1.167121  0  -0.316599  -0.556712  0  2.343586  0
O  O196  1  0.26184003  0.08431190  0.72511539  1  -1.168002  0  -0.312183  -0.552163  0  2.331046  0
O  O197  1  0.76177987  0.91571127  0.27488686  1  -1.168714  0  -0.312216  -0.552294  0  2.330402  0
O  O198  1  0.73819925  0.72511746  0.08430193  1  -1.168441  0  -0.312259  -0.552399  0  2.33083  0
O  O199  1  0.23820858  0.27487323  0.91568812  1  -1.168572  0  -0.312221  -0.552218  0  2.330649  0
O  O200  1  0.20991921  0.37940323  0.82812546  1  -1.167636  0  -0.316951  -0.554423  0  2.352587  0
O  O201  1  0.70992845  0.62059497  0.17187701  1  -1.167554  0  -0.316959  -0.554439  0  2.352576  0
O  O202  1  0.79005801  0.82812265  0.37940586  1  -1.16758  0  -0.317008  -0.554583  0  2.352123  0
O  O203  1  0.29006916  0.17188766  0.62059595  1  -1.167897  0  -0.316933  -0.554491  0  2.352723  0
O  O204  1  0.06393404  0.29342317  0.71686338  1  -1.166224  0  -0.315663  -0.545096  0  2.295303  0
O  O205  1  0.56393000  0.70657387  0.28313206  1  -1.166296  0  -0.315655  -0.545077  0  2.295602  0
O  O206  1  0.93607089  0.71687205  0.29342603  1  -1.166368  0  -0.315684  -0.545078  0  2.295978  0
O  O207  1  0.43606856  0.28314172  0.70657523  1  -1.16634  0  -0.315643  -0.545054  0  2.295399  0
O  O208  1  0.50742285  0.38013874  0.89150063  1  -1.179071  0  -0.303231  -0.502285  0  2.363447  0
O  O209  1  0.00741011  0.61986076  0.10850114  1  -1.179397  0  -0.303233  -0.502234  0  2.363244  0
O  O210  1  0.49257675  0.89149652  0.38013687  1  -1.179207  0  -0.303199  -0.50225  0  2.363491  0
O  O211  1  0.99258606  0.10850107  0.61986416  1  -1.17935  0  -0.303188  -0.502201  0  2.363439  0
