# generated using pymatgen
data_ZnH15C21Br4(N3O2)2
_symmetry_space_group_name_H-M   'P 1'
_cell_length_a   11.29777907
_cell_length_b   18.25986784
_cell_length_c   19.61574488
_cell_angle_alpha   94.37167814
_cell_angle_beta   89.20920210
_cell_angle_gamma   111.09121752
_symmetry_Int_Tables_number   1
_chemical_formula_structural   ZnH15C21Br4(N3O2)2
_chemical_formula_sum   'Zn2 H30 C42 Br8 N12 O8'
_cell_volume   3764.16975671
_cell_formula_units_Z   2
loop_
 _symmetry_equiv_pos_site_id
 _symmetry_equiv_pos_as_xyz
  1  'x, y, z'
loop_
 _atom_site_type_symbol
 _atom_site_label
 _atom_site_symmetry_multiplicity
 _atom_site_fract_x
 _atom_site_fract_y
 _atom_site_fract_z
 _atom_site_occupancy
 _atom_site_pbe_bader_charge
 _atom_site_pbe_bader_spin_density
 _atom_site_pbe_cm5_charge
 _atom_site_pbe_ddec_charge
 _atom_site_pbe_ddec_spin_density
 _atom_site_pbe_ddec_sum_bond_order
 _atom_site_pbe_magmom
Zn  Zn0  1  0.47208202  0.42013825  0.49810088  1  1.294466  0  0.664795  0.849018  0  2.370268  0
Zn  Zn1  1  0.52927450  0.58361162  0.51741623  1  1.2955  0  0.666688  0.850365  0  2.373232  0
H  H2  1  0.57067046  0.33692000  0.58279411  1  0.147994  0  0.128481  0.125548  0  0.992337  0
H  H3  1  0.38596937  0.65163575  0.44383093  1  0.131598  0  0.12548  0.123473  0  0.997838  0
H  H4  1  0.66666336  0.96672089  0.44268767  1  0.068495  0  0.106439  0.124341  0  0.981953  0
H  H5  1  0.31990104  0.03211428  0.55691316  1  0.0674  0  0.106375  0.124841  0  0.981322  0
H  H6  1  0.36091561  0.40466603  0.28559417  1  0.039635  0  0.096132  0.111564  0  1.018719  0
H  H7  1  0.67332482  0.57337677  0.72440415  1  0.076489  0  0.106048  0.124631  0  0.992814  0
H  H8  1  0.40030632  0.57851285  0.07676755  1  0.064716  0  0.103537  0.110248  0  0.984602  0
H  H9  1  0.61879260  0.42664568  0.93876597  1  0.073535  0  0.10409  0.109029  0  0.987047  0
H  H10  1  0.38447404  0.56783942  0.94974315  1  0.07616  0  0.104046  0.112106  0  0.982679  0
H  H11  1  0.63496471  0.43749054  0.06585296  1  0.047693  0  0.104377  0.111068  0  0.982736  0
H  H12  1  0.10159109  0.62651497  0.56636055  1  0.482561  0  0.286428  0.286372  0  1.012172  0
H  H13  1  0.23699768  0.59880143  0.56345975  1  0.464166  0  0.291092  0.302821  0  0.998477  0
H  H14  1  0.76329191  0.40595784  0.54545282  1  0.464123  0  0.283455  0.285222  0  1.035909  0
H  H15  1  0.89848069  0.37916947  0.54855927  1  0.481172  0  0.284277  0.282495  0  1.019618  0
H  H16  1  0.36223342  0.06015103  0.39385950  1  0.459075  0  0.313643  0.318689  0  0.928091  0
H  H17  1  0.30367550  0.12391628  0.35688487  1  0.459599  0  0.296254  0.291995  0  0.985234  0
H  H18  1  0.73357835  0.89346217  0.62477442  1  0.470669  0  0.295598  0.291181  0  0.986839  0
H  H19  1  0.66298328  0.95255887  0.59001887  1  0.462756  0  0.311718  0.315763  0  0.934198  0
H  H20  1  0.76084888  0.10345014  0.41919757  1  0.428962  0  0.305528  0.300902  0  0.937915  0
H  H21  1  0.69605857  0.17065488  0.44405146  1  0.423577  0  0.295826  0.290138  0  0.966658  0
H  H22  1  0.29050636  0.82869778  0.55809413  1  0.436207  0  0.291665  0.287558  0  0.978234  0
H  H23  1  0.22696374  0.89678117  0.58218144  1  0.428198  0  0.306212  0.302165  0  0.93621  0
H  H24  1  0.10405112  0.35107013  0.47001180  1  0.423685  0  0.275322  0.271693  0  1.009556  0
H  H25  1  0.99103164  0.38012313  0.44292116  1  0.400105  0  0.28442  0.268706  0  0.961622  0
H  H26  1  0.89894901  0.65605543  0.49303432  1  0.447243  0  0.276501  0.27675  0  0.998168  0
H  H27  1  0.01402956  0.62842504  0.46151697  1  0.404543  0  0.27925  0.263233  0  0.979122  0
H  H28  1  0.25639273  0.36132452  0.17404460  1  0.432474  0  0.306262  0.299714  0  0.942755  0
H  H29  1  0.32493247  0.39976746  0.10075310  1  0.45717  0  0.298807  0.294763  0  0.969101  0
H  H30  1  0.71897725  0.57799411  0.90827520  1  0.433201  0  0.297016  0.292051  0  0.977813  0
H  H31  1  0.78995736  0.60463928  0.83224040  1  0.433276  0  0.309437  0.303542  0  0.937975  0
C  C32  1  0.48952936  0.49317588  0.63954674  1  1.611017  0  0.215072  0.613068  0  4.149005  0
C  C33  1  0.51278713  0.50753161  0.37598322  1  1.629864  0  0.212258  0.611522  0  4.164995  0
C  C34  1  0.52150766  0.51185048  0.29948192  1  -0.002738  0  -0.018052  -0.029244  0  3.986085  0
C  C35  1  0.48366757  0.49007811  0.71612906  1  0.055939  0  -0.019062  -0.033255  0  3.97948  0
C  C36  1  0.44838624  0.54526472  0.04642961  1  -0.022506  0  -0.094051  -0.136763  0  3.998563  0
C  C37  1  0.57166892  0.46052314  0.96907955  1  -0.044196  0  -0.094765  -0.142976  0  4.00068  0
C  C38  1  0.43964226  0.53942749  0.97530853  1  -0.097958  0  -0.091826  -0.124627  0  3.992474  0
C  C39  1  0.58054276  0.46639887  0.04031799  1  -0.007343  0  -0.092645  -0.12775  0  3.989566  0
C  C40  1  0.50031640  0.49647551  0.93574157  1  -0.013006  0  -0.014634  0.087558  0  4.02961  0
C  C41  1  0.51927932  0.50903156  0.07980664  1  -0.047808  0  -0.016992  0.079944  0  4.03957  0
C  C42  1  0.39757682  0.24364648  0.44816936  1  0.552369  0  0.108741  0.125355  0  3.933652  0
C  C43  1  0.60929356  0.76319458  0.55142945  1  0.547117  0  0.106617  0.121378  0  3.943576  0
C  C44  1  0.40442802  0.16760172  0.44607487  1  0.52654  0  0.104156  0.190526  0  4.105902  0
C  C45  1  0.60272732  0.83887813  0.54888100  1  0.477466  0  0.105517  0.191981  0  4.098676  0
C  C46  1  0.48012352  0.15385984  0.49713893  1  0.048877  0  -0.007338  -0.033077  0  3.961259  0
C  C47  1  0.50865689  0.84569721  0.50511276  1  0.147858  0  -0.006803  -0.028015  0  3.950419  0
C  C48  1  0.54124091  0.21581340  0.54567545  1  -0.140555  0  -0.015199  0.022484  0  3.997346  0
C  C49  1  0.43057984  0.77734862  0.46779724  1  -0.168555  0  -0.016344  0.02002  0  3.992846  0
C  C50  1  0.52732244  0.28840967  0.54454223  1  0.553367  0  0.02942  0.015122  0  3.933796  0
C  C51  1  0.44407062  0.70523186  0.47313082  1  0.545995  0  0.028732  0.016961  0  3.943939  0
C  C52  1  0.58889222  0.05785293  0.46471512  1  0.405608  0  0.0738  0.220282  0  4.142569  0
C  C53  1  0.39729229  0.94079869  0.53488485  1  0.401484  0  0.076475  0.22827  0  4.136611  0
C  C54  1  0.74360781  0.53201562  0.51339527  1  1.492121  0  0.192723  0.555322  0  4.18252  0
C  C55  1  0.25806042  0.47404501  0.50860602  1  1.477941  0  0.192797  0.554035  0  4.194474  0
C  C56  1  0.59068299  0.98181454  0.46777684  1  -0.043063  0  -0.105769  -0.238639  0  3.985551  0
C  C57  1  0.39542469  0.01682423  0.53155532  1  -0.026505  0  -0.105652  -0.238236  0  3.985922  0
C  C58  1  0.49752451  0.92382683  0.50172891  1  -0.024802  0  -0.031405  -0.031668  0  4.042117  0
C  C59  1  0.48879210  0.07473413  0.49790975  1  -0.00288  0  -0.031831  -0.031592  0  4.055819  0
C  C60  1  0.88030049  0.54888723  0.51714405  1  0.402687  0  0.026628  -0.043836  0  3.985185  0
C  C61  1  0.12155292  0.45744650  0.51045971  1  0.372426  0  0.026325  -0.050616  0  3.997661  0
C  C62  1  0.93063320  0.49388952  0.53471859  1  0.376825  0  0.10044  0.180171  0  4.017194  0
C  C63  1  0.07042083  0.51219883  0.53634393  1  0.440741  0  0.101869  0.182498  0  4.022722  0
C  C64  1  0.61473186  0.57256293  0.26787413  1  -0.076749  0  -0.038791  0.009771  0  3.957544  0
C  C65  1  0.37633203  0.44379558  0.75092613  1  -0.038919  0  -0.038212  0.009979  0  3.955089  0
C  C66  1  0.61457213  0.57103789  0.19622541  1  -0.011926  0  -0.024114  0.034173  0  3.971418  0
C  C67  1  0.38326592  0.44582954  0.82249316  1  -0.090177  0  -0.023773  0.033207  0  3.962666  0
C  C68  1  0.52242420  0.51165057  0.15577507  1  0.091452  0  -0.027901  -0.09543  0  3.976269  0
C  C69  1  0.49324355  0.49218174  0.85990260  1  0.014987  0  -0.028119  -0.095005  0  3.974181  0
C  C70  1  0.42799859  0.45128220  0.18837690  1  0.403685  0  0.091777  0.265945  0  4.107747  0
C  C71  1  0.60044634  0.53842073  0.82409584  1  0.390993  0  0.092375  0.266193  0  4.110922  0
C  C72  1  0.43063921  0.45202603  0.25980272  1  0.022867  0  -0.107155  -0.222824  0  3.968595  0
C  C73  1  0.59296112  0.53663720  0.75278214  1  0.040812  0  -0.102901  -0.218756  0  3.962666  0
Br  Br74  1  0.64697165  0.20298672  0.61453926  1  -0.034762  0  0.041391  -0.0379  0  1.359602  0
Br  Br75  1  0.30265192  0.78074443  0.40749207  1  -0.045989  0  0.038708  -0.048365  0  1.372801  0
Br  Br76  1  0.74228417  0.65219374  0.32187637  1  -0.058747  0  -0.004582  -0.067336  0  1.477242  0
Br  Br77  1  0.22240221  0.38543954  0.70292319  1  -0.038914  0  0.001537  -0.05649  0  1.482475  0
Br  Br78  1  0.74094907  0.65067880  0.15048637  1  -0.072629  0  -0.005504  -0.089653  0  1.443548  0
Br  Br79  1  0.24130689  0.38314500  0.87219257  1  -0.075842  0  -0.008581  -0.097058  0  1.458561  0
Br  Br80  1  0.29648398  0.26368049  0.38069345  1  -0.026583  0  0.075484  -0.023015  0  1.468947  0
Br  Br81  1  0.73212273  0.75104496  0.61006273  1  -0.01405  0  0.078295  -0.012077  0  1.437285  0
N  N82  1  0.45681779  0.30117666  0.49516224  1  -1.233423  0  -0.312534  -0.202829  0  3.55571  0
N  N83  1  0.53306414  0.69958100  0.51527027  1  -1.243547  0  -0.315654  -0.207374  0  3.567286  0
N  N84  1  0.14118232  0.58439603  0.56670634  1  -1.230832  0  -0.596056  -0.590704  0  3.360788  0
N  N85  1  0.85818084  0.42103064  0.55417178  1  -1.243813  0  -0.600111  -0.595643  0  3.381618  0
N  N86  1  0.33838201  0.10875620  0.39879852  1  -1.268168  0  -0.587186  -0.592541  0  3.377412  0
N  N87  1  0.68474003  0.90319340  0.58566081  1  -1.260689  0  -0.590467  -0.596009  0  3.380318  0
N  N88  1  0.67905343  0.11360283  0.42762994  1  -1.19281  0  -0.606831  -0.625491  0  3.300026  0
N  N89  1  0.30819360  0.88618592  0.57305522  1  -1.21066  0  -0.605636  -0.6223  0  3.307293  0
N  N90  1  0.04339683  0.37937612  0.48471994  1  -1.155061  0  -0.624208  -0.616507  0  3.333823  0
N  N91  1  0.95922728  0.62772870  0.50352485  1  -1.1919  0  -0.62597  -0.630153  0  3.340277  0
N  N92  1  0.33788619  0.39015991  0.14991034  1  -1.252935  0  -0.600971  -0.622351  0  3.315663  0
N  N93  1  0.70852802  0.58854123  0.85911305  1  -1.222544  0  -0.600524  -0.622472  0  3.316049  0
O  O94  1  0.44807219  0.42835022  0.60329609  1  -1.175183  0  -0.315309  -0.547155  0  2.363195  0
O  O95  1  0.49597605  0.56413117  0.41095591  1  -1.170854  0  -0.314427  -0.551219  0  2.342558  0
O  O96  1  0.54037039  0.56156431  0.61829794  1  -1.162281  0  -0.32208  -0.556388  0  2.336536  0
O  O97  1  0.51870642  0.44529530  0.39823813  1  -1.159003  0  -0.32102  -0.54941  0  2.311072  0
O  O98  1  0.66468489  0.46230566  0.52272161  1  -1.18404  0  -0.322016  -0.55908  0  2.380169  0
O  O99  1  0.33599443  0.54238869  0.53097468  1  -1.18707  0  -0.320462  -0.556884  0  2.388701  0
O  O100  1  0.70884757  0.58950957  0.50039892  1  -1.165772  0  -0.335095  -0.567728  0  2.383585  0
O  O101  1  0.29376698  0.41816387  0.48344909  1  -1.169697  0  -0.337776  -0.57131  0  2.370835  0
