# generated using pymatgen
data_CuP2H24C26(ClO)2
_symmetry_space_group_name_H-M   'P 1'
_cell_length_a   10.38932950
_cell_length_b   11.71454562
_cell_length_c   11.71451433
_cell_angle_alpha   117.04558362
_cell_angle_beta   94.02612899
_cell_angle_gamma   94.02623271
_symmetry_Int_Tables_number   1
_chemical_formula_structural   CuP2H24C26(ClO)2
_chemical_formula_sum   'Cu2 P4 H48 C52 Cl4 O4'
_cell_volume   1258.28717157
_cell_formula_units_Z   2
loop_
 _symmetry_equiv_pos_site_id
 _symmetry_equiv_pos_as_xyz
  1  'x, y, z'
loop_
 _atom_site_type_symbol
 _atom_site_label
 _atom_site_symmetry_multiplicity
 _atom_site_fract_x
 _atom_site_fract_y
 _atom_site_fract_z
 _atom_site_occupancy
 _atom_site_hle17_ddec_charge
 _atom_site_hle17_ddec_spin_density
 _atom_site_hle17_ddec_sum_bond_order
 _atom_site_hle17_magmom
 _atom_site_hse06_10hf_ddec_charge
 _atom_site_hse06_10hf_ddec_spin_density
 _atom_site_hse06_10hf_ddec_sum_bond_order
 _atom_site_hse06_10hf_magmom
 _atom_site_hse06_ddec_charge
 _atom_site_hse06_ddec_spin_density
 _atom_site_hse06_ddec_sum_bond_order
 _atom_site_hse06_magmom
 _atom_site_pbe_cm5_charge
 _atom_site_pbe_ddec_charge
 _atom_site_pbe_ddec_spin_density
 _atom_site_pbe_ddec_sum_bond_order
 _atom_site_pbe_magmom
Cu  Cu0  1  0.75000018  0.80849858  0.19150027  1  0.899043  0.635218  1.897641  0.451  0.91205  0.756863  2.330163  0.591  1.018896  0.843247  2.230042  0.688  0.582223  0.852821  0.702835  2.392422  0.536
Cu  Cu1  1  0.25000011  0.19150176  0.80849895  1  0.899039  -0.63519  1.897815  -0.451  0.912035  -0.756862  2.330346  -0.591  1.018874  -0.843234  2.230241  -0.688  0.582242  0.85279  -0.702837  2.39262  -0.536
P  P2  1  0.91745819  0.57316196  0.18626967  1  1.010985  0.001398  4.318033  -0.001  0.922961  0.002941  4.736532  0.0  0.957094  0.00216  4.727452  0.0  0.259045  0.900197  0.003704  4.741612  0.001
P  P3  1  0.58254339  0.81373117  0.42683839  1  1.011047  0.001414  4.317855  -0.001  0.923013  0.002939  4.736378  0.0  0.957146  0.002159  4.727293  0.0  0.259096  0.900249  0.003704  4.741457  0.001
P  P4  1  0.08254469  0.42683548  0.81373093  1  1.011094  -0.0014  4.318016  0.001  0.923037  -0.00294  4.736536  0.0  0.957162  -0.00216  4.727443  0.0  0.259088  0.900268  -0.003705  4.74162  -0.001
P  P5  1  0.41745584  0.18626818  0.57316288  1  1.011094  -0.001419  4.317845  0.001  0.923047  -0.002939  4.73636  0.0  0.95719  -0.00216  4.72728  0.0  0.2591  0.900284  -0.003705  4.74145  -0.001
H  H6  1  0.11077014  0.49351508  0.09223200  1  0.124815  -1.9e-05  0.94932  0.0  0.140652  -2.1e-05  1.009442  0.0  0.142313  -1e-05  1.010268  0.0  0.108947  0.139638  -2.9e-05  1.008801  0.0
H  H7  1  0.38923094  0.90776827  0.50648568  1  0.124818  -1.3e-05  0.949331  0.0  0.140675  -2.1e-05  1.009438  0.0  0.142334  -1e-05  1.01026  0.0  0.108948  0.139661  -2.9e-05  1.008799  0.0
H  H8  1  0.88923295  0.50648429  0.90776950  1  0.124861  3.6e-05  0.949272  0.0  0.140709  2.1e-05  1.00938  0.0  0.142367  1e-05  1.010204  0.0  0.108958  0.139694  2.9e-05  1.008741  0.0
H  H9  1  0.61076797  0.09222820  0.49351253  1  0.124826  2.7e-05  0.949323  0.0  0.140677  2.1e-05  1.009432  0.0  0.142337  9e-06  1.010259  0.0  0.108948  0.139664  2.9e-05  1.00879  0.0
H  H10  1  0.21905163  0.87918979  0.67046126  1  0.083687  0.000264  0.979114  0.0  0.087233  0.000207  1.057344  0.0  0.089572  0.00021  1.056635  0.0  0.095707  0.085313  0.000188  1.058409  0.0
H  H11  1  0.28095312  0.32953813  0.12081264  1  0.083706  0.000255  0.97918  0.0  0.087243  0.000207  1.057416  0.0  0.089584  0.00021  1.056706  0.0  0.095678  0.085324  0.000188  1.058478  0.0
H  H12  1  0.78095178  0.12081248  0.32953989  1  0.083695  -0.000267  0.979175  0.0  0.087234  -0.000207  1.057408  0.0  0.089574  -0.00021  1.056699  0.0  0.095678  0.085316  -0.000188  1.058472  0.0
H  H13  1  0.71904589  0.67045931  0.87918602  1  0.083723  -0.000258  0.97917  0.0  0.087259  -0.000208  1.057414  0.0  0.0896  -0.00021  1.056704  0.0  0.095681  0.08534  -0.000188  1.058475  0.0
H  H14  1  0.15180245  0.97635329  0.52982862  1  0.100855  5.9e-05  0.968273  0.0  0.108431  4.9e-05  1.033036  0.0  0.110756  6e-05  1.032759  0.0  0.100574  0.106376  3.4e-05  1.033926  0.0
H  H15  1  0.34819930  0.47017059  0.02364712  1  0.100819  6.1e-05  0.968261  0.0  0.108383  4.9e-05  1.033048  0.0  0.110708  5.9e-05  1.032772  0.0  0.100568  0.106329  3.4e-05  1.033934  0.0
H  H16  1  0.84819506  0.02364799  0.47017257  1  0.100773  -5.7e-05  0.968296  0.0  0.108367  -5e-05  1.033055  0.0  0.110689  -5.9e-05  1.032777  0.0  0.10057  0.106314  -3.4e-05  1.033944  0.0
H  H17  1  0.65179982  0.52982781  0.97635114  1  0.100772  -6.2e-05  0.968265  0.0  0.108349  -4.9e-05  1.033051  0.0  0.110672  -5.9e-05  1.032773  0.0  0.100569  0.106295  -3.4e-05  1.033936  0.0
H  H18  1  0.01944515  0.84174323  0.31814566  1  0.089424  -0.000198  0.982066  0.0  0.094904  -6.6e-05  1.055114  0.0  0.097768  -6.9e-05  1.053797  0.0  0.09426  0.092489  -2.5e-05  1.056827  0.0
H  H19  1  0.48055620  0.68185379  0.15825629  1  0.089449  -0.000203  0.982087  0.0  0.094933  -6.6e-05  1.055131  0.0  0.097799  -6.8e-05  1.05381  0.0  0.094275  0.092516  -2.6e-05  1.056841  0.0
H  H20  1  0.98055323  0.15825707  0.68185770  1  0.089408  0.000208  0.98207  0.0  0.094886  6.6e-05  1.055134  0.0  0.097753  6.9e-05  1.053811  0.0  0.09425  0.09247  2.5e-05  1.056849  0.0
H  H21  1  0.51944270  0.31814268  0.84174278  1  0.08944  0.00021  0.981983  0.0  0.09491  6.6e-05  1.055053  0.0  0.097777  6.9e-05  1.053731  0.0  0.094268  0.092494  2.6e-05  1.056768  0.0
H  H22  1  0.07605459  0.63582636  0.08422243  1  0.132936  -3.1e-05  0.925113  0.0  0.151986  -2.8e-05  0.976174  0.0  0.154126  -3.2e-05  0.97651  0.0  0.112862  0.150463  -3e-06  0.976177  0.0
H  H23  1  0.42394484  0.91577673  0.36417450  1  0.132932  -3.1e-05  0.925103  0.0  0.151992  -2.9e-05  0.976159  0.0  0.154115  -3.1e-05  0.976508  0.0  0.112872  0.150469  -3e-06  0.976163  0.0
H  H24  1  0.92394668  0.36417397  0.91577940  1  0.132927  4.8e-05  0.925128  0.0  0.151979  2.8e-05  0.976186  0.0  0.154115  3.2e-05  0.976521  0.0  0.112872  0.150456  3e-06  0.976192  0.0
H  H25  1  0.57605514  0.08422071  0.63582508  1  0.132941  5.5e-05  0.925114  0.0  0.151997  2.8e-05  0.976166  0.0  0.154136  3.1e-05  0.976502  0.0  0.112876  0.150475  3e-06  0.976172  0.0
H  H26  1  0.66241423  0.48664158  0.20902918  1  0.095585  0.0001  0.978201  0.0  0.103438  4.3e-05  1.043309  0.0  0.105156  2.2e-05  1.044268  0.0  0.099376  0.102227  5.8e-05  1.042639  0.0
H  H27  1  0.83758787  0.79097143  0.51335711  1  0.095633  8.8e-05  0.978208  0.0  0.103474  4.3e-05  1.043314  0.0  0.105191  2.2e-05  1.044278  0.0  0.099401  0.102267  5.8e-05  1.042643  0.0
H  H28  1  0.33758714  0.51335971  0.79097310  1  0.095583  -9.5e-05  0.978211  0.0  0.103454  -4.3e-05  1.043304  0.0  0.105174  -2.2e-05  1.04426  0.0  0.09936  0.102245  -5.8e-05  1.042635  0.0
H  H29  1  0.16241317  0.20902699  0.48663956  1  0.095591  -9e-05  0.978226  0.0  0.103454  -4.3e-05  1.043318  0.0  0.105173  -2.2e-05  1.044276  0.0  0.099368  0.102245  -5.8e-05  1.042652  0.0
H  H30  1  0.55672357  0.27442458  0.17238071  1  0.084085  -4.4e-05  0.985279  0.0  0.091859  -0.00014  1.052882  0.0  0.093797  -0.000107  1.053675  0.0  0.094032  0.090439  -0.000175  1.052531  0.0
H  H31  1  0.94327835  0.82762042  0.72557551  1  0.084054  -7.1e-05  0.985317  0.0  0.091831  -0.00014  1.052919  0.0  0.09377  -0.000107  1.053709  0.0  0.094025  0.090414  -0.000175  1.052569  0.0
H  H32  1  0.44327587  0.72557671  0.82762060  1  0.084098  4.3e-05  0.985263  0.0  0.091863  0.00014  1.052884  0.0  0.093802  0.000107  1.053673  0.0  0.094037  0.090444  0.000175  1.052529  0.0
H  H33  1  0.05672484  0.17237993  0.27442304  1  0.084111  4.6e-05  0.985277  0.0  0.09188  0.00014  1.052891  0.0  0.09382  0.000107  1.053679  0.0  0.094045  0.090465  0.000175  1.05254  0.0
H  H34  1  0.68586259  0.08677746  0.11027804  1  0.091408  -0.000313  0.980039  0.0  0.10206  -0.000188  1.043728  0.0  0.105785  -0.00015  1.040994  0.0  0.091624  0.099557  -0.000195  1.045491  0.0
H  H35  1  0.81413717  0.88972441  0.91322337  1  0.091397  -0.000306  0.980047  0.0  0.102043  -0.000188  1.043738  0.0  0.105767  -0.00015  1.041006  0.0  0.091613  0.099544  -0.000195  1.045504  0.0
H  H36  1  0.31413396  0.91322383  0.88972224  1  0.091426  0.000329  0.979983  0.0  0.102076  0.000188  1.043673  0.0  0.105801  0.00015  1.04094  0.0  0.091636  0.099574  0.000195  1.045437  0.0
H  H37  1  0.18586527  0.11027787  0.08677516  1  0.091436  0.000337  0.980061  0.0  0.102092  0.000188  1.043731  0.0  0.105816  0.00015  1.040999  0.0  0.09164  0.09959  0.000195  1.045495  0.0
H  H38  1  0.91900837  0.11324907  0.08520126  1  0.095912  -0.000256  0.959586  0.0  0.107587  -0.000209  1.018711  0.0  0.111059  -0.000168  1.016534  0.0  0.097014  0.105254  -0.000201  1.020133  0.0
H  H39  1  0.58099220  0.91480246  0.88675308  1  0.095882  -0.000264  0.959527  0.0  0.107559  -0.000209  1.018648  0.0  0.11103  -0.000168  1.016474  0.0  0.096995  0.105221  -0.000201  1.020073  0.0
H  H40  1  0.08098892  0.88675028  0.91479903  1  0.095889  0.000268  0.959687  0.0  0.107579  0.00021  1.018796  0.0  0.111049  0.000168  1.016623  0.0  0.097026  0.105259  0.000201  1.020204  0.0
H  H41  1  0.41901024  0.08519982  0.11324631  1  0.095911  0.000263  0.959569  0.0  0.107592  0.00021  1.018683  0.0  0.111063  0.000168  1.01651  0.0  0.097022  0.105271  0.000201  1.020089  0.0
H  H42  1  0.02589102  0.32386441  0.12155676  1  0.08849  0.000172  0.967498  0.0  0.099511  7e-05  1.031921  0.0  0.102034  5.1e-05  1.030761  0.0  0.09614  0.0977  7.7e-05  1.032881  0.0
H  H43  1  0.47411135  0.87844446  0.67613555  1  0.088564  0.000186  0.967621  0.0  0.099589  6.9e-05  1.032014  0.0  0.102106  5.1e-05  1.030861  0.0  0.096168  0.097778  7.7e-05  1.032973  0.0
H  H44  1  0.97410799  0.67613302  0.87844191  1  0.088499  -0.000164  0.967554  0.0  0.099526  -6.9e-05  1.031951  0.0  0.102048  -5.1e-05  1.030792  0.0  0.09616  0.097716  -7.7e-05  1.032909  0.0
H  H45  1  0.52588980  0.12155492  0.32386243  1  0.088599  -0.000185  0.967614  0.0  0.09963  -6.9e-05  1.031996  0.0  0.102142  -5.1e-05  1.030848  0.0  0.096201  0.097818  -7.7e-05  1.032956  0.0
H  H46  1  0.02301879  0.50997829  0.38882554  1  0.085906  -1.7e-05  0.968742  0.0  0.096221  -1.6e-05  1.032553  0.0  0.098657  -1e-05  1.032152  0.0  0.09892  0.094475  -1e-05  1.032903  0.0
H  H47  1  0.47698484  0.61117904  0.49002483  1  0.085863  -1.3e-05  0.968739  0.0  0.096205  -1.6e-05  1.032526  0.0  0.098641  -1e-05  1.032123  0.0  0.098909  0.094452  -1e-05  1.032883  0.0
H  H48  1  0.97698055  0.49002203  0.61117787  1  0.085875  1.7e-05  0.968716  0.0  0.096209  1.6e-05  1.032508  0.0  0.098642  1e-05  1.032112  0.0  0.098913  0.094463  1e-05  1.032854  0.0
H  H49  1  0.52301535  0.38882033  0.50997479  1  0.085871  1.8e-05  0.968735  0.0  0.09621  1.6e-05  1.032527  0.0  0.098648  1e-05  1.03212  0.0  0.098915  0.094452  1e-05  1.032889  0.0
H  H50  1  0.15835640  0.64550288  0.59901469  1  0.085923  -2.2e-05  0.970427  0.0  0.096141  -1.6e-05  1.031539  0.0  0.098247  -1.6e-05  1.032516  0.0  0.097407  0.094629  -1.2e-05  1.030974  0.0
H  H51  1  0.34164750  0.40098905  0.35450268  1  0.085914  -1e-05  0.970468  0.0  0.09617  -1.6e-05  1.031537  0.0  0.098277  -1.6e-05  1.032513  0.0  0.097407  0.094658  -1.2e-05  1.030976  0.0
H  H52  1  0.84164605  0.35449939  0.40098640  1  0.085944  2.2e-05  0.970431  0.0  0.096161  1.6e-05  1.03154  0.0  0.098268  1.6e-05  1.032516  0.0  0.097416  0.09465  1.2e-05  1.030977  0.0
H  H53  1  0.65835087  0.59901127  0.64549727  1  0.085918  1.5e-05  0.97047  0.0  0.096172  1.6e-05  1.031544  0.0  0.09828  1.6e-05  1.03252  0.0  0.097415  0.094659  1.2e-05  1.030983  0.0
C  C54  1  0.03265787  0.54073584  0.06884431  1  -0.337872  -0.00058  3.671598  0.0  -0.362194  -0.000405  3.9158  0.0  -0.368471  -0.000325  3.925302  0.0  -0.158275  -0.357902  -0.000437  3.909112  0.0
C  C55  1  0.46734128  0.93115590  0.45926449  1  -0.337798  -0.000592  3.671467  0.0  -0.362156  -0.000401  3.915697  0.0  -0.368408  -0.000323  3.9252  0.0  -0.158254  -0.357865  -0.000437  3.909017  0.0
C  C56  1  0.96734426  0.45926353  0.93115544  1  -0.337899  0.000517  3.671662  0.0  -0.362188  0.000403  3.915792  0.0  -0.368458  0.000325  3.925311  0.0  -0.158269  -0.357896  0.000437  3.909104  0.0
C  C57  1  0.53265601  0.06884346  0.54073496  1  -0.337921  0.000528  3.671591  0.0  -0.362204  0.000404  3.915699  0.0  -0.36848  0.000324  3.925201  0.0  -0.158279  -0.357915  0.000437  3.909021  0.0
C  C58  1  0.85119861  0.42032747  0.17074079  1  -0.216636  0.004136  3.79669  0.004  -0.176518  0.002892  4.034403  0.003  -0.186909  0.002056  4.060347  0.002  -0.031979  -0.169546  0.003581  4.016757  0.004
C  C59  1  0.64880343  0.82926096  0.57967349  1  -0.216597  0.004133  3.796719  0.004  -0.17649  0.00289  4.034445  0.003  -0.18688  0.002058  4.060387  0.002  -0.032014  -0.16952  0.003581  4.016799  0.004
C  C60  1  0.14880147  0.57967093  0.82925924  1  -0.216623  -0.004058  3.79681  -0.004  -0.176521  -0.002892  4.034543  -0.003  -0.186913  -0.002057  4.060488  -0.002  -0.032004  -0.169553  -0.003581  4.016896  -0.004
C  C61  1  0.35119773  0.17073841  0.42032619  1  -0.216621  -0.004088  3.796638  -0.004  -0.176516  -0.002888  4.034379  -0.003  -0.186908  -0.002054  4.060322  -0.002  -0.032012  -0.169549  -0.003581  4.016738  -0.004
C  C62  1  0.71883420  0.40535378  0.18471112  1  -0.050185  -0.001898  3.740039  -0.002  -0.070097  -0.000746  3.976318  -0.001  -0.069966  -0.000462  3.998389  -0.001  -0.082897  -0.070088  -0.000271  3.961365  0.0
C  C63  1  0.78116679  0.81529115  0.59464579  1  -0.050294  -0.001887  3.740131  -0.002  -0.070197  -0.000744  3.976422  -0.001  -0.070066  -0.000462  3.998493  -0.001  -0.082921  -0.070188  -0.000271  3.961473  0.0
C  C64  1  0.28116513  0.59464654  0.81529059  1  -0.05023  0.001839  3.740159  0.002  -0.070162  0.000745  3.976433  0.001  -0.070031  0.000459  3.998504  0.001  -0.0829  -0.070155  0.000271  3.961482  0.0
C  C65  1  0.21883350  0.18470920  0.40535258  1  -0.050207  0.001815  3.74006  0.002  -0.070125  0.000742  3.976334  0.001  -0.069995  0.000459  3.998406  0.001  -0.08289  -0.07012  0.000271  3.961395  0.0
C  C66  1  0.65985528  0.28573673  0.16351718  1  -0.06795  -0.001905  3.751824  -0.001  -0.077412  -0.000916  3.993556  -0.001  -0.080609  -0.000505  4.015302  0.0  -0.090391  -0.07533  -0.000948  3.978889  0.0
C  C67  1  0.84014703  0.83648431  0.71426444  1  -0.067886  -0.001795  3.751872  -0.001  -0.077354  -0.000918  3.993601  -0.001  -0.08055  -0.000506  4.015346  0.0  -0.09039  -0.075274  -0.000948  3.978941  0.0
C  C68  1  0.34014309  0.71426360  0.83648192  1  -0.067987  0.001976  3.75191  0.001  -0.077442  0.000915  3.993636  0.001  -0.080638  0.000504  4.015384  0.0  -0.090401  -0.075359  0.000948  3.978966  0.0
C  C69  1  0.15985531  0.16351701  0.28573450  1  -0.068024  0.001977  3.751941  0.001  -0.07749  0.000916  3.993679  0.001  -0.080687  0.000503  4.015426  0.0  -0.09043  -0.075412  0.000948  3.97902  0.0
C  C70  1  0.73190305  0.18079460  0.12779335  1  -0.046364  0.00041  3.72151  0.0  -0.057981  2.5e-05  3.959176  0.0  -0.058167  -7.2e-05  3.978566  0.0  -0.081373  -0.05745  -0.000543  3.945541  0.0
C  C71  1  0.76809923  0.87220959  0.81920711  1  -0.046394  0.000337  3.721576  0.0  -0.058013  2.6e-05  3.959248  0.0  -0.058198  -7e-05  3.978638  0.0  -0.0814  -0.05749  -0.000543  3.945617  0.0
C  C72  1  0.26809446  0.81920669  0.87220529  1  -0.046359  -0.000518  3.721361  -0.001  -0.057968  -2.3e-05  3.959049  0.0  -0.058154  7.2e-05  3.97844  0.0  -0.081383  -0.057443  0.000543  3.945418  0.0
C  C73  1  0.23190332  0.12779366  0.18079187  1  -0.046354  -0.000529  3.721563  -0.001  -0.057976  -2.2e-05  3.95924  0.0  -0.058163  7.3e-05  3.978631  0.0  -0.081396  -0.057449  0.000543  3.94561  0.0
C  C74  1  0.86359088  0.19570352  0.11429871  1  -0.066738  0.000215  3.743869  0.001  -0.07669  0.000128  3.986305  0.0  -0.07955  9.3e-05  4.006606  0.0  -0.087376  -0.074645  -0.000121  3.972266  0.0
C  C75  1  0.63641088  0.88570352  0.80429604  1  -0.066625  0.000284  3.743838  0.001  -0.076563  0.000128  3.986243  0.0  -0.079423  9.3e-05  4.006543  0.0  -0.087291  -0.074515  -0.000121  3.972204  0.0
C  C76  1  0.13640534  0.80429487  0.88569937  1  -0.066712  -0.000181  3.743864  -0.001  -0.076709  -0.00013  3.986334  0.0  -0.079569  -9.4e-05  4.006632  0.0  -0.08742  -0.074677  0.000121  3.972291  0.0
C  C77  1  0.36359070  0.11429973  0.19570374  1  -0.066758  -0.000182  3.743777  -0.001  -0.076713  -0.00013  3.986219  0.0  -0.079572  -9.4e-05  4.006514  0.0  -0.087397  -0.074679  0.000121  3.972168  0.0
C  C78  1  0.92381614  0.31513654  0.13586673  1  -0.06141  -0.002009  3.764383  -0.002  -0.083133  -0.000233  4.007291  0.0  -0.082584  -5.1e-05  4.028453  0.0  -0.086384  -0.083438  0.000186  3.993123  0.0
C  C79  1  0.57618378  0.86413619  0.68486296  1  -0.061546  -0.002085  3.764662  -0.002  -0.083269  -0.000232  4.007561  0.0  -0.082716  -5.2e-05  4.028725  0.0  -0.086418  -0.083574  0.000186  3.993388  0.0
C  C80  1  0.07618298  0.68486186  0.86413153  1  -0.061419  0.001938  3.764561  0.002  -0.083113  0.000233  4.007433  0.0  -0.082561  5e-05  4.028596  0.0  -0.086349  -0.083419  -0.000186  3.993265  0.0
C  C81  1  0.42381663  0.13586511  0.31513671  1  -0.061517  0.002014  3.764549  0.002  -0.083242  0.000231  4.007441  0.0  -0.082684  4.8e-05  4.028606  0.0  -0.086397  -0.083546  -0.000186  3.993272  0.0
C  C82  1  0.01226533  0.66729873  0.34072901  1  -0.206074  0.000299  3.782096  0.001  -0.166996  0.000177  4.021679  0.0  -0.176452  4.5e-05  4.047066  0.0  -0.029302  -0.161377  0.000317  4.005026  0.001
C  C83  1  0.48773376  0.65927158  0.33270024  1  -0.206081  0.000184  3.782101  0.0  -0.166984  0.000178  4.021667  0.0  -0.176457  4.6e-05  4.047083  0.0  -0.029274  -0.161366  0.000317  4.005011  0.001
C  C84  1  0.98773304  0.33270158  0.65927349  1  -0.206133  -0.000242  3.782094  0.0  -0.167093  -0.000174  4.021751  0.0  -0.176526  -4.3e-05  4.047107  0.0  -0.029324  -0.161475  -0.000317  4.005099  -0.001
C  C85  1  0.51226515  0.34072489  0.66729713  1  -0.206115  -0.000172  3.782076  0.0  -0.167018  -0.000181  4.021645  0.0  -0.176501  -4.8e-05  4.047071  0.0  -0.029302  -0.161404  -0.000317  4.004997  -0.001
C  C86  1  0.05160757  0.61200800  0.41955811  1  -0.059953  -0.00028  3.764832  0.0  -0.079814  -7.7e-05  4.003073  0.0  -0.079512  -8.3e-05  4.024423  0.0  -0.083301  -0.079732  -7.3e-05  3.98851  0.0
C  C87  1  0.44839494  0.58044331  0.38799360  1  -0.059912  -0.00018  3.764757  0.0  -0.07981  -7.7e-05  4.003003  0.0  -0.079503  -8.4e-05  4.024358  0.0  -0.08331  -0.079725  -7.3e-05  3.988442  0.0
C  C88  1  0.94839274  0.38799232  0.58044452  1  -0.059839  0.000237  3.764696  0.0  -0.079702  7.6e-05  4.002945  0.0  -0.079409  8.2e-05  4.024289  0.0  -0.083249  -0.07962  7.3e-05  3.98838  0.0
C  C89  1  0.55160515  0.41955509  0.61200642  1  -0.059923  0.000189  3.764734  0.0  -0.079817  8e-05  4.002972  0.0  -0.079508  8.3e-05  4.02433  0.0  -0.083304  -0.079728  7.3e-05  3.988413  0.0
C  C90  1  0.12734853  0.68805174  0.53740516  1  -0.072326  0.000256  3.757834  0.0  -0.079495  3.8e-05  3.997467  0.0  -0.082499  3.1e-05  4.018762  0.0  -0.089944  -0.077517  5e-05  3.982896  0.0
C  C91  1  0.37265638  0.46259563  0.31195206  1  -0.072357  0.000114  3.757942  0.0  -0.079548  3.7e-05  3.997562  0.0  -0.082551  2.9e-05  4.018859  0.0  -0.08997  -0.077571  5e-05  3.98299  0.0
C  C92  1  0.87265284  0.31194956  0.46259542  1  -0.072381  -0.000216  3.757837  0.0  -0.079545  -3.7e-05  3.997455  0.0  -0.082549  -3.1e-05  4.018755  0.0  -0.089963  -0.077567  -5e-05  3.982884  0.0
C  C93  1  0.62734263  0.53740181  0.68804575  1  -0.072337  -0.000141  3.757927  0.0  -0.079528  -3.9e-05  3.997549  0.0  -0.082533  -3.1e-05  4.018846  0.0  -0.089979  -0.07755  -5e-05  3.982973  0.0
C  C94  1  0.16242463  0.81902342  0.57709765  1  -0.057019  -0.000179  3.74355  0.0  -0.071774  4.6e-05  3.991774  0.0  -0.071918  5.2e-05  4.012571  0.0  -0.083485  -0.071596  3.1e-05  3.977828  0.0
C  C95  1  0.33757930  0.42290432  0.18098089  1  -0.057075  -3.9e-05  3.743693  0.0  -0.071826  4.7e-05  3.991905  0.0  -0.071973  5.4e-05  4.012705  0.0  -0.083477  -0.07165  3.1e-05  3.977957  0.0
C  C96  1  0.83757578  0.18097787  0.42290458  1  -0.057108  0.000133  3.743644  0.0  -0.071858  -4.6e-05  3.991873  0.0  -0.072005  -5.1e-05  4.012673  0.0  -0.083513  -0.071682  -3.1e-05  3.977927  0.0
C  C97  1  0.66241972  0.57709311  0.81901863  1  -0.057135  5.7e-05  3.743679  0.0  -0.071887  -4.5e-05  3.991885  0.0  -0.072034  -5.3e-05  4.012686  0.0  -0.083479  -0.071709  -3.1e-05  3.977935  0.0
C  C98  1  0.12343603  0.87420163  0.49844568  1  -0.067726  0.000352  3.730785  0.0  -0.076029  0.000159  3.971983  0.0  -0.079721  0.000155  3.994444  0.0  -0.0865  -0.073489  0.000144  3.957031  0.0
C  C99  1  0.37656691  0.50155534  0.12579999  1  -0.067585  0.000244  3.73074  0.0  -0.075873  0.000158  3.971915  0.0  -0.079564  0.000154  3.994378  0.0  -0.086457  -0.073331  0.000144  3.956953  0.0
C  C100  1  0.87656342  0.12579965  0.50155819  1  -0.067553  -0.000291  3.730719  0.0  -0.07587  -0.000158  3.97191  0.0  -0.079558  -0.000157  3.994371  0.0  -0.086441  -0.073328  -0.000144  3.956953  0.0
C  C101  1  0.62343210  0.49844209  0.87419867  1  -0.067511  -0.000242  3.730638  0.0  -0.075807  -0.000159  3.971821  0.0  -0.079496  -0.000156  3.994281  0.0  -0.086438  -0.073265  -0.000144  3.956858  0.0
C  C102  1  0.04928324  0.79871672  0.37983898  1  -0.047341  -0.000485  3.728806  0.0  -0.066638  -0.000208  3.96632  0.0  -0.066859  -0.000196  3.987994  0.0  -0.079097  -0.066311  -0.000186  3.952299  0.0
C  C103  1  0.45071893  0.62016185  0.20128411  1  -0.047413  -0.000362  3.72901  0.0  -0.066725  -0.000209  3.96652  0.0  -0.06694  -0.000197  3.988199  0.0  -0.079143  -0.066398  -0.000187  3.952494  0.0
C  C104  1  0.95071514  0.20128359  0.62016438  1  -0.047365  0.0004  3.728785  0.0  -0.066657  0.000207  3.966301  0.0  -0.066885  0.000195  3.987967  0.0  -0.07912  -0.066333  0.000186  3.952283  0.0
C  C105  1  0.54927997  0.37983463  0.79871326  1  -0.047388  0.00035  3.728758  0.0  -0.066697  0.000209  3.966277  0.0  -0.066909  0.000196  3.987955  0.0  -0.079139  -0.066372  0.000187  3.952261  0.0
Cl  Cl106  1  0.58682848  0.88159419  0.12485003  1  -0.518109  0.154146  0.922608  0.174  -0.522723  0.093895  1.201944  0.112  -0.564201  0.068796  1.176955  0.086  -0.29205  -0.499375  0.107067  1.219821  0.124
Cl  Cl107  1  0.91317219  0.87515040  0.11840582  1  -0.518134  0.154146  0.922631  0.174  -0.522733  0.093894  1.201957  0.112  -0.564211  0.068795  1.176969  0.086  -0.292057  -0.499385  0.107062  1.219838  0.124
Cl  Cl108  1  0.41316827  0.11840903  0.87515030  1  -0.518117  -0.154131  0.922673  -0.174  -0.522724  -0.093897  1.202006  -0.112  -0.564199  -0.068797  1.177016  -0.086  -0.292066  -0.499376  -0.107068  1.219887  -0.124
Cl  Cl109  1  0.08683218  0.12485188  0.88159454  1  -0.518123  -0.154132  0.922677  -0.174  -0.522731  -0.093896  1.202017  -0.112  -0.564213  -0.068796  1.177038  -0.086  -0.29206  -0.499378  -0.107064  1.219899  -0.124
O  O110  1  0.80626708  0.64017344  0.16233282  1  -0.743818  0.03402  2.106859  0.043  -0.691528  0.029855  2.411996  0.04  -0.728407  0.024144  2.392099  0.034  -0.374667  -0.667385  0.033816  2.425487  0.044
O  O111  1  0.69373346  0.83766944  0.35982613  1  -0.743855  0.034016  2.106804  0.043  -0.691559  0.029856  2.411939  0.04  -0.728435  0.024145  2.392038  0.034  -0.374681  -0.667413  0.033817  2.42543  0.044
O  O112  1  0.19373257  0.35982111  0.83766370  1  -0.743879  -0.034008  2.106966  -0.043  -0.691526  -0.029854  2.412074  -0.04  -0.728405  -0.024141  2.392185  -0.034  -0.37468  -0.667376  -0.033814  2.425553  -0.044
O  O113  1  0.30626792  0.16233184  0.64017701  1  -0.743861  -0.034013  2.106858  -0.043  -0.691577  -0.029855  2.412021  -0.04  -0.728457  -0.024143  2.392126  -0.034  -0.374678  -0.667394  -0.033815  2.425433  -0.044
