# generated using pymatgen
data_Li2H14C13O5
_symmetry_space_group_name_H-M   'P 1'
_cell_length_a   10.09358465
_cell_length_b   11.34177058
_cell_length_c   11.34397336
_cell_angle_alpha   120.01281835
_cell_angle_beta   90.03150769
_cell_angle_gamma   90.01147634
_symmetry_Int_Tables_number   1
_chemical_formula_structural   Li2H14C13O5
_chemical_formula_sum   'Li6 H42 C39 O15'
_cell_volume   1124.51661332
_cell_formula_units_Z   3
loop_
 _symmetry_equiv_pos_site_id
 _symmetry_equiv_pos_as_xyz
  1  'x, y, z'
loop_
 _atom_site_type_symbol
 _atom_site_label
 _atom_site_symmetry_multiplicity
 _atom_site_fract_x
 _atom_site_fract_y
 _atom_site_fract_z
 _atom_site_occupancy
 _atom_site_hle17_bader_spin_density
 _atom_site_hle17_ddec_charge
 _atom_site_hle17_ddec_spin_density
 _atom_site_hle17_ddec_sum_bond_order
 _atom_site_hle17_magmom
 _atom_site_hse06_10hf_bader_spin_density
 _atom_site_hse06_10hf_ddec_charge
 _atom_site_hse06_10hf_ddec_spin_density
 _atom_site_hse06_10hf_ddec_sum_bond_order
 _atom_site_hse06_10hf_magmom
 _atom_site_hse06_bader_spin_density
 _atom_site_hse06_ddec_charge
 _atom_site_hse06_ddec_spin_density
 _atom_site_hse06_ddec_sum_bond_order
 _atom_site_hse06_magmom
 _atom_site_pbe_bader_spin_density
 _atom_site_pbe_cm5_charge
 _atom_site_pbe_ddec_charge
 _atom_site_pbe_ddec_spin_density
 _atom_site_pbe_ddec_sum_bond_order
 _atom_site_pbe_magmom
Li  Li0  1  0.97460705  0.10675241  0.08349902  1  0  0.84436  0  0.418486  0  0  0.801604  0  0.526843  0  0  0.811389  0  0.509733  0  0  0.521919  0.794652  0  0.538642  0
Li  Li1  1  0.64101765  0.91653948  0.02347413  1  0  0.844156  0  0.419107  0  0  0.801337  0  0.527687  0  0  0.811131  0  0.51056  0  0  0.522131  0.794379  0  0.539515  0
Li  Li2  1  0.30765144  0.97649775  0.89282037  1  0  0.844117  0  0.419292  0  0  0.801177  0  0.527946  0  0  0.810963  0  0.510828  0  0  0.522233  0.794218  0  0.53975  0
Li  Li3  1  0.10227711  0.82834261  0.90380231  1  0  0.853179  0  0.403539  0  0  0.810443  0  0.512082  0  0  0.820091  0  0.494979  0  0  0.517682  0.803357  0  0.524306  0
Li  Li4  1  0.76893524  0.09625056  0.92483485  1  0  0.852749  0  0.403884  0  0  0.810308  0  0.512078  0  0  0.819939  0  0.494976  0  0  0.517307  0.803162  0  0.524375  0
Li  Li5  1  0.43567021  0.07536948  0.17137630  1  0  0.853349  0  0.402883  0  0  0.810425  0  0.511656  0  0  0.820113  0  0.494488  0  0  0.516775  0.803313  0  0.523909  0
H  H6  1  0.93156531  0.12530089  0.32126547  1  0  0.106772  0  0.967131  0  0  0.117665  0  1.031309  0  0  0.120709  0  1.030887  0  0  0.107735  0.115349  0  1.031964  0
H  H7  1  0.59779721  0.67858789  0.80414332  1  0  0.106953  0  0.966732  0  0  0.117539  0  1.031133  0  0  0.12065  0  1.030643  0  0  0.107824  0.115198  0  1.031811  0
H  H8  1  0.26405371  0.19566765  0.87424593  1  0  0.10689  0  0.966925  0  0  0.117466  0  1.03134  0  0  0.12059  0  1.030802  0  0  0.107626  0.115097  0  1.032069  0
H  H9  1  0.17533295  0.73679353  0.31026859  1  0  0.088159  0  0.947058  0  0  0.101832  0  1.002493  0  0  0.104612  0  1.001328  0  0  0.098828  0.099541  0  1.003864  0
H  H10  1  0.84144405  0.69037170  0.42710236  1  0  0.088179  0  0.947005  0  0  0.102196  0  1.002041  0  0  0.10511  0  1.000728  0  0  0.098912  0.099851  0  1.003457  0
H  H11  1  0.50797888  0.57327971  0.26291264  1  0  0.088375  0  0.94716  0  0  0.102252  0  1.002317  0  0  0.10508  0  1.00109  0  0  0.099099  0.099957  0  1.003692  0
H  H12  1  0.13767541  0.83944113  0.56134169  1  0  0.098692  0  0.945246  0  0  0.110115  0  1.005509  0  0  0.113801  0  1.002549  0  0  0.109166  0.107575  0  1.007433  0
H  H13  1  0.80441642  0.43918750  0.27857195  1  0  0.098379  0  0.944368  0  0  0.110143  0  1.004421  0  0  0.11379  0  1.001519  0  0  0.109031  0.107641  0  1.006276  0
H  H14  1  0.47096330  0.72151162  0.16020231  1  0  0.098482  0  0.945056  0  0  0.11012  0  1.005157  0  0  0.113814  0  1.002182  0  0  0.109288  0.107574  0  1.00708  0
H  H15  1  0.14075491  0.74402972  0.09815336  1  0  0.101725  0  0.971107  0  0  0.111911  0  1.033843  0  0  0.11475  0  1.033595  0  0  0.107915  0.109891  0  1.034179  0
H  H16  1  0.80667406  0.90242101  0.64655541  1  0  0.101905  0  0.970672  0  0  0.111516  0  1.033985  0  0  0.114392  0  1.03373  0  0  0.107761  0.109499  0  1.034309  0
H  H17  1  0.47338365  0.35382512  0.25560825  1  0  0.101975  0  0.970696  0  0  0.11188  0  1.033599  0  0  0.114719  0  1.033379  0  0  0.107924  0.109831  0  1.033954  0
H  H18  1  0.90442211  0.23174920  0.57010559  1  0  0.087099  0  0.96369  0  0  0.098577  0  1.026226  0  0  0.101469  0  1.025703  0  0  0.095824  0.096753  0  1.02614  0
H  H19  1  0.57148938  0.42951887  0.66171118  1  0  0.087517  0  0.962809  0  0  0.098594  0  1.025828  0  0  0.101485  0  1.025333  0  0  0.095675  0.096762  0  1.025757  0
H  H20  1  0.23710806  0.33811069  0.76770455  1  0  0.087483  0  0.963452  0  0  0.098714  0  1.026192  0  0  0.101593  0  1.025698  0  0  0.095971  0.096897  0  1.026105  0
H  H21  1  0.93432977  0.22144392  0.78305363  1  0  0.092144  0  0.961153  0  0  0.105266  0  1.018968  0  0  0.108665  0  1.01658  0  0  0.108133  0.102656  0  1.020961  0
H  H22  1  0.60190583  0.21665860  0.43840036  1  0  0.093672  0  0.959203  0  0  0.106113  0  1.017569  0  0  0.109512  0  1.015174  0  0  0.108338  0.103492  0  1.019569  0
H  H23  1  0.26755153  0.56143955  0.77808681  1  0  0.093213  0  0.960052  0  0  0.105616  0  1.018475  0  0  0.109027  0  1.016089  0  0  0.10827  0.103015  0  1.020429  0
H  H24  1  0.89457472  0.68564201  0.83681417  1  0  0.374868  0  0.881565  0  0  0.352655  0  0.950578  0  0  0.361714  0  0.940276  0  0  0.316598  0.34592  0  0.958417  0
H  H25  1  0.56159068  0.16305752  0.84867751  1  0  0.374473  0  0.881393  0  0  0.352314  0  0.950251  0  0  0.361377  0  0.939933  0  0  0.316703  0.345608  0  0.958032  0
H  H26  1  0.22844228  0.15139511  0.31455689  1  0  0.375111  0  0.880607  0  0  0.352787  0  0.949871  0  0  0.361843  0  0.939567  0  0  0.31671  0.346081  0  0.957648  0
H  H27  1  0.90693059  0.49416870  0.64264284  1  0  0.069371  0  0.973255  0  0  0.08621  0  1.039821  0  0  0.085824  0  1.041704  0  0  0.094585  0.086439  0  1.038504  0
H  H28  1  0.57399762  0.35767180  0.85229979  1  0  0.069602  0  0.972494  0  0  0.086388  0  1.038896  0  0  0.085996  0  1.040769  0  0  0.094711  0.086616  0  1.037598  0
H  H29  1  0.24134416  0.14822926  0.50570137  1  0  0.069481  0  0.972524  0  0  0.086361  0  1.038936  0  0  0.085975  0  1.040805  0  0  0.094464  0.086585  0  1.037641  0
H  H30  1  0.07503664  0.48032829  0.68288150  1  0  0.068414  0  0.946495  0  0  0.087501  0  1.009873  0  0  0.087591  0  1.010093  0  0  0.095246  0.087345  0  1.009742  0
H  H31  1  0.74201299  0.31756874  0.79800270  1  0  0.069166  0  0.944777  0  0  0.087949  0  1.008435  0  0  0.088064  0  1.008616  0  0  0.095369  0.087784  0  1.008332  0
H  H32  1  0.40938598  0.20252943  0.51962162  1  0  0.068902  0  0.945749  0  0  0.087611  0  1.009564  0  0  0.087723  0  1.00976  0  0  0.095306  0.087455  0  1.009432  0
H  H33  1  0.03394268  0.57824443  0.60326014  1  0  0.067972  0  0.935257  0  0  0.085271  0  1.000101  0  0  0.085861  0  0.999947  0  0  0.097319  0.084859  0  1.000158  0
H  H34  1  0.70121749  0.39672504  0.97556504  1  0  0.067848  0  0.935443  0  0  0.084913  0  1.000439  0  0  0.085499  0  1.000295  0  0  0.09725  0.084529  0  1.000462  0
H  H35  1  0.36835561  0.02490983  0.42135548  1  0  0.067857  0  0.93611  0  0  0.085406  0  1.00059  0  0  0.086034  0  1.000403  0  0  0.09709  0.084991  0  1.000657  0
H  H36  1  0.20346498  0.18879796  0.14844655  1  0  0.370836  0  0.931408  0  0  0.348205  0  0.998634  0  0  0.357936  0  0.988439  0  0  0.309601  0.34163  0  1.005268  0
H  H37  1  0.87018397  0.85161246  0.04050627  1  0  0.3705  0  0.932013  0  0  0.34766  0  0.999503  0  0  0.357398  0  0.989306  0  0  0.309589  0.3411  0  1.006094  0
H  H38  1  0.53660672  0.95971165  0.81121162  1  0  0.371494  0  0.930537  0  0  0.348136  0  0.99895  0  0  0.357917  0  0.988656  0  0  0.309677  0.341547  0  1.005597  0
H  H39  1  0.20050526  0.40745667  0.34269074  1  0  0.067038  0  0.940442  0  0  0.084939  0  1.003535  0  0  0.085618  0  1.003208  0  0  0.09343  0.084394  0  1.003913  0
H  H40  1  0.86671007  0.65741897  0.06476505  1  0  0.067436  0  0.939868  0  0  0.085241  0  1.003026  0  0  0.085899  0  1.002719  0  0  0.093762  0.08472  0  1.003384  0
H  H41  1  0.53360463  0.93539953  0.59264271  1  0  0.066644  0  0.940214  0  0  0.084353  0  1.003556  0  0  0.085054  0  1.003192  0  0  0.093128  0.083806  0  1.003944  0
H  H42  1  0.02376269  0.39215179  0.34308714  1  0  0.072676  0  0.957639  0  0  0.091031  0  1.024132  0  0  0.090577  0  1.025362  0  0  0.098916  0.091218  0  1.023355  0
H  H43  1  0.68996615  0.65701837  0.04882547  1  0  0.07227  0  0.95819  0  0  0.090823  0  1.024484  0  0  0.090318  0  1.025765  0  0  0.098948  0.091023  0  1.023702  0
H  H44  1  0.35682543  0.95105887  0.60777253  1  0  0.072077  0  0.958252  0  0  0.090498  0  1.024595  0  0  0.089979  0  1.025923  0  0  0.098791  0.090709  0  1.023781  0
H  H45  1  0.10380288  0.40551447  0.20934958  1  0  0.06935  0  0.930229  0  0  0.087507  0  0.992003  0  0  0.08783  0  0.992391  0  0  0.097688  0.086874  0  0.992489  0
H  H46  1  0.77007993  0.79069682  0.19612663  1  0  0.068831  0  0.929574  0  0  0.087029  0  0.991392  0  0  0.087353  0  0.991755  0  0  0.097567  0.086425  0  0.991861  0
H  H47  1  0.43689540  0.80394258  0.59441058  1  0  0.069162  0  0.929506  0  0  0.087049  0  0.991711  0  0  0.087374  0  0.992067  0  0  0.097709  0.086442  0  0.992184  0
C  C48  1  0.04342020  0.01772614  0.80870115  1  0  0.718761  0  3.907132  0  0  0.671637  0  4.203672  0  0  0.70497  0  4.192675  0  0  0.237648  0.649466  0  4.210148  0
C  C49  1  0.71049406  0.19138177  0.20924351  1  0  0.718836  0  3.905835  0  0  0.671414  0  4.203063  0  0  0.704739  0  4.192031  0  0  0.238021  0.64925  0  4.20957  0
C  C50  1  0.37680683  0.79076180  0.98196114  1  0  0.718133  0  3.905223  0  0  0.670058  0  4.203155  0  0  0.7034  0  4.192145  0  0  0.237593  0.647907  0  4.209637  0
C  C51  1  0.03327715  0.93580667  0.19473768  1  0  0.379908  0  3.907048  0  0  0.370782  0  4.169817  0  0  0.385695  0  4.183485  0  0  0.08819  0.360912  0  4.160653  0
C  C52  1  0.69932600  0.80545328  0.74142306  1  0  0.379768  0  3.907358  0  0  0.370868  0  4.169671  0  0  0.385787  0  4.183318  0  0  0.088342  0.360986  0  4.160519  0
C  C53  1  0.36586394  0.25863086  0.06379059  1  0  0.379355  0  3.907287  0  0  0.370708  0  4.169237  0  0  0.385611  0  4.182912  0  0  0.088248  0.360849  0  4.160044  0
C  C54  1  0.00350782  0.03933280  0.44142440  1  0  0.084758  0  3.83552  0  0  0.101355  0  4.058356  0  0  0.105092  0  4.083286  0  0  -0.010139  0.099016  0  4.041376  0
C  C55  1  0.66999150  0.55865391  0.59815843  1  0  0.083092  0  3.837244  0  0  0.101289  0  4.058428  0  0  0.10505  0  4.083348  0  0  -0.010569  0.098918  0  4.041491  0
C  C56  1  0.33609530  0.40182611  0.96026457  1  0  0.084037  0  3.83464  0  0  0.10087  0  4.057097  0  0  0.104597  0  4.082036  0  0  -0.010597  0.098525  0  4.040141  0
C  C57  1  0.98604629  0.04111975  0.31906803  1  0  -0.289117  0  3.720549  0  0  -0.314082  0  3.971114  0  0  -0.324107  0  3.991073  0  0  -0.113743  -0.307598  0  3.958206  0
C  C58  1  0.65222783  0.68098272  0.72226702  1  0  -0.288479  0  3.721162  0  0  -0.313557  0  3.971203  0  0  -0.323646  0  3.991097  0  0  -0.113733  -0.307036  0  3.958359  0
C  C59  1  0.31848260  0.27768886  0.95853129  1  0  -0.288234  0  3.7196  0  0  -0.313034  0  3.969658  0  0  -0.323094  0  3.989575  0  0  -0.113635  -0.30652  0  3.956773  0
C  C60  1  0.12198061  0.82188935  0.31277383  1  0  -0.10139  0  3.794544  0  0  -0.119035  0  4.039747  0  0  -0.119023  0  4.061705  0  0  -0.092014  -0.118421  0  4.024902  0
C  C61  1  0.78809942  0.68772471  0.50958891  1  0  -0.101461  0  3.795273  0  0  -0.119103  0  4.040554  0  0  -0.119198  0  4.062529  0  0  -0.092015  -0.118432  0  4.025701  0
C  C62  1  0.45462659  0.49064784  0.17777740  1  0  -0.10166  0  3.796367  0  0  -0.119541  0  4.04164  0  0  -0.119565  0  4.063593  0  0  -0.092084  -0.118917  0  4.026782  0
C  C63  1  0.07228856  0.92701803  0.43937557  1  0  0.015967  0  3.833728  0  0  0.034417  0  4.062184  0  0  0.02958  0  4.088928  0  0  -0.022028  0.037181  0  4.044275  0
C  C64  1  0.73867996  0.56095527  0.48801158  1  0  0.017106  0  3.832233  0  0  0.034127  0  4.061985  0  0  0.029276  0  4.088724  0  0  -0.021923  0.036895  0  4.044097  0
C  C65  1  0.40496430  0.51207110  0.07259511  1  0  0.016442  0  3.834333  0  0  0.034694  0  4.062938  0  0  0.029862  0  4.089687  0  0  -0.021936  0.037449  0  4.045037  0
C  C66  1  0.08791195  0.92513553  0.56192216  1  0  -0.104459  0  3.735768  0  0  -0.135662  0  3.985359  0  0  -0.132848  0  4.004065  0  0  -0.077812  -0.137414  0  3.972697  0
C  C67  1  0.75470083  0.43842638  0.36361122  1  0  -0.103956  0  3.734515  0  0  -0.135029  0  3.984323  0  0  -0.13223  0  4.00312  0  0  -0.077463  -0.136781  0  3.971636  0
C  C68  1  0.42103055  0.63644924  0.07449430  1  0  -0.104115  0  3.735243  0  0  -0.135549  0  3.98473  0  0  -0.132757  0  4.003449  0  0  -0.077866  -0.137286  0  3.972082  0
C  C69  1  0.03720501  0.02862931  0.68366922  1  0  -0.110216  0  3.814868  0  0  -0.089477  0  4.056848  0  0  -0.099701  0  4.08132  0  0  -0.028477  -0.083018  0  4.040293  0
C  C70  1  0.70428225  0.31649634  0.34522490  1  0  -0.110389  0  3.813997  0  0  -0.089861  0  4.056406  0  0  -0.099985  0  4.080707  0  0  -0.028833  -0.083468  0  4.039958  0
C  C71  1  0.37040800  0.65474787  0.97097983  1  0  -0.111006  0  3.814414  0  0  -0.089871  0  4.056425  0  0  -0.100071  0  4.080849  0  0  -0.02898  -0.083439  0  4.039909  0
C  C72  1  0.10383057  0.82616318  0.19490617  1  0  -0.188975  0  3.735998  0  0  -0.207777  0  3.988114  0  0  -0.21442  0  4.009434  0  0  -0.096759  -0.203937  0  3.973997  0
C  C73  1  0.76983433  0.80554061  0.63177040  1  0  -0.189196  0  3.736704  0  0  -0.207631  0  3.989022  0  0  -0.214339  0  4.010374  0  0  -0.096354  -0.203788  0  3.974899  0
C  C74  1  0.43647536  0.36849472  0.17348185  1  0  -0.189182  0  3.73711  0  0  -0.207886  0  3.98927  0  0  -0.214538  0  4.010581  0  0  -0.096623  -0.204014  0  3.975182  0
C  C75  1  0.95555937  0.14603781  0.56843797  1  0  -0.141892  0  3.774533  0  0  -0.158503  0  4.022481  0  0  -0.163206  0  4.043229  0  0  -0.10113  -0.15523  0  4.007695  0
C  C76  1  0.62248942  0.43144218  0.57777349  1  0  -0.142012  0  3.776168  0  0  -0.158689  0  4.023544  0  0  -0.16341  0  4.044267  0  0  -0.100791  -0.155403  0  4.008778  0
C  C77  1  0.28827020  0.42212876  0.85349803  1  0  -0.142264  0  3.774216  0  0  -0.158748  0  4.021963  0  0  -0.16344  0  4.042692  0  0  -0.100804  -0.155481  0  4.007194  0
C  C78  1  0.97149686  0.14048448  0.68595793  1  0  -0.080461  0  3.79774  0  0  -0.107274  0  4.05291  0  0  -0.105736  0  4.072647  0  0  -0.089229  -0.107822  0  4.038997  0
C  C79  1  0.63870049  0.31396775  0.45468942  1  0  -0.081946  0  3.797524  0  0  -0.107994  0  4.052539  0  0  -0.106485  0  4.072248  0  0  -0.089209  -0.108498  0  4.038612  0
C  C80  1  0.30452865  0.54522427  0.85909035  1  0  -0.081153  0  3.797423  0  0  -0.107374  0  4.052383  0  0  -0.105856  0  4.072118  0  0  -0.089272  -0.107906  0  4.038475  0
C  C81  1  0.00128292  0.54879680  0.67752651  1  0  -0.004801  0  3.675032  0  0  -0.095469  0  3.941404  0  0  -0.089626  0  3.946719  0  0  -0.140593  -0.099263  0  3.937577  0
C  C82  1  0.66837843  0.32266693  0.87177519  1  0  -0.005436  0  3.674144  0  0  -0.095624  0  3.940565  0  0  -0.08978  0  3.945864  0  0  -0.140511  -0.099446  0  3.936773  0
C  C83  1  0.33561091  0.12867983  0.45106439  1  0  -0.005889  0  3.675333  0  0  -0.096541  0  3.941723  0  0  -0.090722  0  3.947005  0  0  -0.140777  -0.100341  0  3.937942  0
C  C84  1  0.11216319  0.36364399  0.27829031  1  0  -0.015343  0  3.687676  0  0  -0.105307  0  3.951286  0  0  -0.099615  0  3.957233  0  0  -0.142171  -0.109182  0  3.947503  0
C  C85  1  0.77847341  0.72180410  0.08528338  1  0  -0.015014  0  3.686703  0  0  -0.105093  0  3.950462  0  0  -0.099321  0  3.956412  0  0  -0.142502  -0.109045  0  3.946668  0
C  C86  1  0.44527342  0.91479134  0.63632420  1  0  -0.013994  0  3.686257  0  0  -0.103618  0  3.949925  0  0  -0.097883  0  3.95585  0  0  -0.141928  -0.107544  0  3.946148  0
O  O87  1  0.00954883  0.93337415  0.07775176  1  0  -0.814268  0  2.011186  0  0  -0.761286  0  2.25122  0  0  -0.78058  0  2.239785  0  0  -0.472827  -0.747634  0  2.257725  0
O  O88  1  0.67555996  0.92238536  0.85603764  1  0  -0.814718  0  2.01236  0  0  -0.761722  0  2.252443  0  0  -0.780996  0  2.240965  0  0  -0.473222  -0.748032  0  2.258945  0
O  O89  1  0.34236567  0.14402555  0.06620787  1  0  -0.814399  0  2.011334  0  0  -0.761665  0  2.251193  0  0  -0.780942  0  2.239739  0  0  -0.472922  -0.748006  0  2.257692  0
O  O90  1  0.13052452  0.94036575  0.81675911  1  0  -0.795679  0  1.964481  0  0  -0.748857  0  2.208589  0  0  -0.767944  0  2.191353  0  0  -0.441267  -0.735343  0  2.219449  0
O  O91  1  0.79770467  0.18330340  0.12391536  1  0  -0.795807  0  1.963727  0  0  -0.74893  0  2.207751  0  0  -0.768083  0  2.190655  0  0  -0.441536  -0.735339  0  2.218513  0
O  O92  1  0.46399782  0.87613222  0.05945464  1  0  -0.795874  0  1.962931  0  0  -0.748647  0  2.207139  0  0  -0.767809  0  2.190033  0  0  -0.441288  -0.735059  0  2.217828  0
O  O93  1  0.95930362  0.08499935  0.90278448  1  0  -0.786871  0  1.969043  0  0  -0.738491  0  2.210148  0  0  -0.757808  0  2.193181  0  0  -0.44357  -0.725307  0  2.221068  0
O  O94  1  0.62621684  0.09732071  0.18228197  1  0  -0.786574  0  1.96869  0  0  -0.737788  0  2.209752  0  0  -0.75716  0  2.192859  0  0  -0.442969  -0.724618  0  2.220636  0
O  O95  1  0.29274875  0.81768716  0.91468041  1  0  -0.785627  0  1.967968  0  0  -0.736765  0  2.209414  0  0  -0.756087  0  2.192454  0  0  -0.443054  -0.723628  0  2.220341  0
O  O96  1  0.98810806  0.66732414  0.80998791  1  0  -0.592326  0  2.111651  0  0  -0.533808  0  2.343786  0  0  -0.54853  0  2.331518  0  0  -0.46611  -0.523206  0  2.35214  0
O  O97  1  0.65513397  0.18999864  0.85731707  1  0  -0.591715  0  2.111517  0  0  -0.533194  0  2.343642  0  0  -0.547904  0  2.331399  0  0  -0.46605  -0.522599  0  2.351973  0
O  O98  1  0.32204697  0.14296989  0.33279390  1  0  -0.591764  0  2.110267  0  0  -0.533102  0  2.342438  0  0  -0.547823  0  2.330166  0  0  -0.465192  -0.522511  0  2.350774  0
O  O99  1  0.11888681  0.21763917  0.20372838  1  0  -0.60649  0  2.149512  0  0  -0.544065  0  2.382018  0  0  -0.560766  0  2.371714  0  0  -0.459385  -0.531887  0  2.388587  0
O  O100  1  0.78542084  0.79651861  0.01405526  1  0  -0.605818  0  2.149876  0  0  -0.543256  0  2.382669  0  0  -0.559963  0  2.372333  0  0  -0.458774  -0.53104  0  2.389151  0
O  O101  1  0.45201641  0.98618421  0.78231603  1  0  -0.607094  0  2.148704  0  0  -0.543966  0  2.381248  0  0  -0.560805  0  2.371077  0  0  -0.458895  -0.531678  0  2.387649  0
