# generated using pymatgen
data_CuH30C28(N2O3)2
_symmetry_space_group_name_H-M   'P 1'
_cell_length_a   9.32031871
_cell_length_b   11.06317750
_cell_length_c   26.41540122
_cell_angle_alpha   89.99999514
_cell_angle_beta   89.99998815
_cell_angle_gamma   90.00010229
_symmetry_Int_Tables_number   1
_chemical_formula_structural   CuH30C28(N2O3)2
_chemical_formula_sum   'Cu4 H120 C112 N16 O24'
_cell_volume   2723.75383839
_cell_formula_units_Z   4
loop_
 _symmetry_equiv_pos_site_id
 _symmetry_equiv_pos_as_xyz
  1  'x, y, z'
loop_
 _atom_site_type_symbol
 _atom_site_label
 _atom_site_symmetry_multiplicity
 _atom_site_fract_x
 _atom_site_fract_y
 _atom_site_fract_z
 _atom_site_occupancy
 _atom_site_pbe_bader_charge
 _atom_site_pbe_bader_spin_density
 _atom_site_pbe_cm5_charge
 _atom_site_pbe_ddec_charge
 _atom_site_pbe_ddec_spin_density
 _atom_site_pbe_ddec_sum_bond_order
 _atom_site_pbe_magmom
Cu  Cu0  1  0.87768691  0.34100209  0.57037858  1  1.097626  0.570219  0.739058  0.784994  0.730506  2.208331  0.568
Cu  Cu1  1  0.12231150  0.34100244  0.42962171  1  1.097654  0.570222  0.739071  0.784927  0.730509  2.208492  0.568
Cu  Cu2  1  0.62231308  0.65899920  0.07037861  1  1.097675  0.570219  0.739072  0.784939  0.730506  2.208436  0.568
Cu  Cu3  1  0.37768814  0.65899621  0.92962167  1  1.097606  0.570218  0.739052  0.784844  0.730504  2.20859  0.568
H  H4  1  0.04931267  0.15700821  0.61953251  1  0.124004  0.00174  0.121623  0.097714  0.000752  1.02238  0.001
H  H5  1  0.95068642  0.15700621  0.38046778  1  0.124007  0.00174  0.121622  0.097709  0.000752  1.022384  0.001
H  H6  1  0.45068608  0.84299413  0.11953365  1  0.123984  0.00174  0.121648  0.097723  0.000752  1.022362  0.001
H  H7  1  0.54931445  0.84299050  0.88046624  1  0.12395  0.00174  0.121622  0.097692  0.000752  1.02237  0.001
H  H8  1  0.66126986  0.76047635  0.56515738  1  0.12719  0.001089  0.120174  0.13752  0.000587  0.984249  0.0
H  H9  1  0.33872836  0.76047522  0.43484440  1  0.127221  0.001089  0.120175  0.13755  0.000587  0.984255  0.0
H  H10  1  0.83872906  0.23952314  0.06515665  1  0.127199  0.001089  0.120175  0.137529  0.000587  0.984234  0.0
H  H11  1  0.16127450  0.23952162  0.93484439  1  0.127206  0.001089  0.120186  0.137546  0.000587  0.984259  0.0
H  H12  1  0.53173533  0.41167774  0.46008611  1  0.096441  2.8e-05  0.115863  0.089898  7.7e-05  1.00267  0.0
H  H13  1  0.46826645  0.41167497  0.53991417  1  0.096707  2.7e-05  0.11586  0.089842  7.7e-05  1.00272  0.0
H  H14  1  0.96826550  0.58832257  0.96008607  1  0.096746  2.7e-05  0.11585  0.089855  7.7e-05  1.002766  0.0
H  H15  1  0.03173343  0.58832196  0.03991383  1  0.096541  2.8e-05  0.11586  0.089872  7.7e-05  1.002711  0.0
H  H16  1  0.12667117  0.74664990  0.57161386  1  0.107859  0.001318  0.113489  0.128255  0.000707  0.997087  0.0
H  H17  1  0.87332594  0.74665048  0.42838489  1  0.107812  0.001318  0.113486  0.128235  0.000707  0.997069  0.0
H  H18  1  0.37332761  0.25335244  0.07161426  1  0.107812  0.001318  0.113498  0.128259  0.000707  0.997096  0.0
H  H19  1  0.62667491  0.25335074  0.92838527  1  0.107816  0.001318  0.113491  0.128249  0.000707  0.997072  0.0
H  H20  1  0.10561372  0.52320865  0.57348020  1  0.167026  0.002313  0.121359  0.098585  0.001098  1.042319  0.002
H  H21  1  0.89438185  0.52320836  0.42651705  1  0.166964  0.002313  0.121362  0.09853  0.001098  1.042461  0.002
H  H22  1  0.39438721  0.47679459  0.07348173  1  0.167008  0.002313  0.121334  0.098581  0.001098  1.042358  0.002
H  H23  1  0.60561578  0.47679286  0.92651931  1  0.166996  0.002313  0.121347  0.098544  0.001098  1.042435  0.002
H  H24  1  0.56184134  0.16507953  0.45596617  1  0.013817  5e-05  0.091457  0.089799  2e-05  0.997917  0.0
H  H25  1  0.43815777  0.16507853  0.54403298  1  0.013587  5e-05  0.091441  0.089772  2e-05  0.997969  0.0
H  H26  1  0.93816808  0.83491987  0.95596650  1  0.01376  5e-05  0.091449  0.089822  2e-05  0.997866  0.0
H  H27  1  0.06183351  0.83491931  0.04403263  1  0.013533  5e-05  0.091432  0.089793  2e-05  0.997885  0.0
H  H28  1  0.43332437  0.24162978  0.41780283  1  0.075254  0.000418  0.097467  0.109037  0.000119  1.024069  0.0
H  H29  1  0.56667383  0.24162625  0.58219670  1  0.074874  0.000418  0.097466  0.108987  0.000118  1.024016  0.0
H  H30  1  0.06668064  0.75836797  0.91780206  1  0.075167  0.000418  0.097465  0.109031  0.000119  1.024114  0.0
H  H31  1  0.93332079  0.75836962  0.08219746  1  0.075182  0.000418  0.097479  0.109056  0.000119  1.024099  0.0
H  H32  1  0.89154307  0.63647331  0.23612509  1  0.072057  2.9e-05  0.09936  0.092087  1e-06  1.055061  0.0
H  H33  1  0.10845810  0.63647628  0.76387443  1  0.072066  2.9e-05  0.099372  0.092118  1e-06  1.055068  0.0
H  H34  1  0.60845789  0.36352253  0.73612508  1  0.072075  2.9e-05  0.099375  0.092123  1e-06  1.055044  0.0
H  H35  1  0.39154378  0.36352241  0.26387521  1  0.072054  2.9e-05  0.099363  0.092102  1e-06  1.055072  0.0
H  H36  1  0.72210406  0.14793087  0.51482161  1  0.125301  0.001669  0.120755  0.086917  0.000696  1.046526  0.001
H  H37  1  0.27790145  0.14793053  0.48517679  1  0.125245  0.001668  0.120742  0.086917  0.000696  1.046523  0.001
H  H38  1  0.77789918  0.85206954  0.01482389  1  0.125293  0.001669  0.120734  0.086901  0.000696  1.046512  0.001
H  H39  1  0.22210996  0.85206811  0.98517828  1  0.125354  0.001669  0.120732  0.086927  0.000696  1.046577  0.001
H  H40  1  0.66283610  0.53556177  0.56364653  1  0.138363  0.001934  0.126499  0.105596  0.000838  0.999253  0.002
H  H41  1  0.33716058  0.53555973  0.43635375  1  0.138379  0.001934  0.126487  0.10552  0.000838  0.999316  0.002
H  H42  1  0.83716497  0.46443863  0.06364730  1  0.138349  0.001934  0.126486  0.105571  0.000838  0.99929  0.002
H  H43  1  0.16283799  0.46443621  0.93635525  1  0.138409  0.001934  0.126461  0.105499  0.000838  0.999311  0.002
H  H44  1  0.87940284  0.58339541  0.32797491  1  0.088827  0.000161  0.101903  0.106074  6.5e-05  1.014013  0.0
H  H45  1  0.12059929  0.58339661  0.67202461  1  0.088843  0.000161  0.101921  0.106133  6.5e-05  1.01392  0.0
H  H46  1  0.62059485  0.41660221  0.82797528  1  0.088808  0.000161  0.101934  0.106116  6.5e-05  1.013911  0.0
H  H47  1  0.37940479  0.41660120  0.17202462  1  0.088815  0.000161  0.101935  0.106156  6.5e-05  1.013865  0.0
H  H48  1  0.72491487  0.92282669  0.51097989  1  0.100019  0.001217  0.11891  0.129095  0.000646  0.974954  0.0
H  H49  1  0.27508905  0.92282545  0.48901886  1  0.100004  0.001217  0.118913  0.129111  0.000646  0.974924  0.0
H  H50  1  0.77508731  0.07717462  0.01098182  1  0.100027  0.001217  0.118901  0.129065  0.000646  0.974972  0.0
H  H51  1  0.22492450  0.07717138  0.98902036  1  0.100102  0.001217  0.118907  0.129117  0.000646  0.974952  0.0
H  H52  1  0.43382158  0.61739888  0.22549835  1  0.085844  0.000451  0.099581  0.096643  0.00039  1.043436  0.0
H  H53  1  0.56617741  0.61739802  0.77450269  1  0.08586  0.000451  0.099606  0.096675  0.00039  1.043364  0.0
H  H54  1  0.06617711  0.38260524  0.72549910  1  0.085874  0.000451  0.099627  0.096705  0.00039  1.043393  0.0
H  H55  1  0.93382246  0.38260414  0.27450194  1  0.0858  0.000451  0.099597  0.096695  0.00039  1.043395  0.0
H  H56  1  0.06832034  0.93049486  0.62089913  1  0.0733  0.00123  0.113405  0.124727  0.000638  1.000383  0.0
H  H57  1  0.93167823  0.93049464  0.37910265  1  0.07334  0.00123  0.113407  0.12474  0.000638  1.00037  0.0
H  H58  1  0.43167733  0.06950657  0.12089839  1  0.073297  0.00123  0.113413  0.124723  0.000638  1.000328  0.0
H  H59  1  0.56832372  0.06950297  0.87909963  1  0.073248  0.00123  0.113399  0.124729  0.000638  1.000362  0.0
H  H60  1  0.57037216  0.12983199  0.35471615  1  0.024548  -3e-05  0.092632  0.097225  -2.6e-05  1.01528  0.0
H  H61  1  0.42962366  0.12982914  0.64528301  1  0.024603  -3e-05  0.092634  0.097236  -2.6e-05  1.015281  0.0
H  H62  1  0.92963196  0.87016834  0.85471610  1  0.024477  -3e-05  0.092617  0.097193  -2.6e-05  1.0153  0.0
H  H63  1  0.07037185  0.87017138  0.14528227  1  0.02452  -3e-05  0.09263  0.097217  -2.6e-05  1.015268  0.0
H  H64  1  0.73410692  0.16046798  0.38641053  1  0.02232  1.4e-05  0.085283  0.075698  1.9e-05  1.032255  0.0
H  H65  1  0.26589111  0.16046488  0.61358900  1  0.022269  1.4e-05  0.085247  0.075648  1.9e-05  1.032284  0.0
H  H66  1  0.76589932  0.83953687  0.88641163  1  0.022394  1.4e-05  0.085268  0.075687  1.9e-05  1.032225  0.0
H  H67  1  0.23410336  0.83953564  0.11358712  1  0.022324  1.4e-05  0.085274  0.075705  1.9e-05  1.03222  0.0
H  H68  1  0.41895827  0.56366023  0.31740307  1  0.098154  1.7e-05  0.105694  0.112748  4e-06  1.000856  0.0
H  H69  1  0.58104275  0.56365760  0.68259835  1  0.09815  1.7e-05  0.105695  0.11274  4e-06  1.000855  0.0
H  H70  1  0.08103929  0.43634478  0.81740306  1  0.098168  1.7e-05  0.105697  0.112767  4e-06  1.000827  0.0
H  H71  1  0.91896147  0.43634638  0.18259798  1  0.098175  1.7e-05  0.105692  0.112762  4e-06  1.000839  0.0
H  H72  1  0.74927398  0.32621784  0.32972390  1  0.078573  4e-06  0.098223  0.075244  1.1e-05  1.010537  0.0
H  H73  1  0.25072440  0.32621562  0.67027563  1  0.07855  4e-06  0.098233  0.075232  1.1e-05  1.010579  0.0
H  H74  1  0.75072264  0.67378611  0.82972577  1  0.078548  4e-06  0.098172  0.075197  1.1e-05  1.010561  0.0
H  H75  1  0.24927432  0.67378761  0.17027451  1  0.078586  4e-06  0.098182  0.075203  1.1e-05  1.010575  0.0
H  H76  1  0.55805520  0.33137354  0.32138559  1  0.051517  0.000476  0.097999  0.076208  0.000259  1.027472  0.0
H  H77  1  0.44194211  0.33136980  0.67861394  1  0.051425  0.000476  0.097952  0.076133  0.000259  1.027479  0.0
H  H78  1  0.94193927  0.66862770  0.82138517  1  0.051546  0.000476  0.09797  0.076108  0.000259  1.027483  0.0
H  H79  1  0.05805768  0.66863162  0.17861435  1  0.051408  0.000476  0.098013  0.076279  0.000259  1.027577  0.0
H  H80  1  0.30145750  0.09742338  0.34111955  1  0.068454  -2.2e-05  0.111123  0.040148  -2.3e-05  1.008972  0.0
H  H81  1  0.69854147  0.09742093  0.65888037  1  0.068394  -2.2e-05  0.111099  0.040147  -2.3e-05  1.009021  0.0
H  H82  1  0.19854541  0.90257800  0.84112103  1  0.068347  -2.2e-05  0.111143  0.040147  -2.3e-05  1.009036  0.0
H  H83  1  0.80145847  0.90257492  0.15888302  1  0.068464  -2.2e-05  0.111095  0.040132  -2.3e-05  1.00893  0.0
H  H84  1  0.14086754  0.11644402  0.28488001  1  0.054576  -2.6e-05  0.104402  0.074563  -4.2e-05  1.010013  0.0
H  H85  1  0.85913040  0.11644452  0.71512028  1  0.054588  -2.6e-05  0.10439  0.074528  -4.2e-05  1.009966  0.0
H  H86  1  0.35913004  0.88355557  0.78487959  1  0.054599  -2.6e-05  0.104386  0.074531  -4.2e-05  1.009969  0.0
H  H87  1  0.64086843  0.88355765  0.21512257  1  0.054671  -2.6e-05  0.104396  0.074506  -4.2e-05  1.010091  0.0
H  H88  1  0.06191408  0.98931706  0.25556150  1  0.057551  1e-06  0.1015  0.075341  0.0  0.986734  0.0
H  H89  1  0.93808462  0.98931857  0.74443877  1  0.057578  1e-06  0.101496  0.075313  0.0  0.986761  0.0
H  H90  1  0.43808352  0.01068253  0.75556110  1  0.057592  1e-06  0.101486  0.075321  0.0  0.986713  0.0
H  H91  1  0.56191742  0.01068449  0.24444109  1  0.057474  1e-06  0.101459  0.075301  0.0  0.986808  0.0
H  H92  1  0.05355148  0.78077479  0.27335340  1  0.029122  6e-06  0.084202  0.109027  5e-06  1.037704  0.0
H  H93  1  0.94644678  0.78077452  0.72664688  1  0.029064  6e-06  0.084189  0.108997  5e-06  1.037754  0.0
H  H94  1  0.44644825  0.21922389  0.77335299  1  0.02912  6e-06  0.08419  0.109024  5e-06  1.037712  0.0
H  H95  1  0.55355205  0.21922946  0.22664124  1  0.029251  6e-06  0.084072  0.108865  5e-06  1.037732  0.0
H  H96  1  0.14198080  0.74364357  0.33101748  1  0.067764  -7e-06  0.083757  0.117097  -2.8e-05  1.037539  0.0
H  H97  1  0.85801630  0.74364498  0.66898279  1  0.067804  -7e-06  0.083779  0.117119  -2.8e-05  1.037516  0.0
H  H98  1  0.35801675  0.25635601  0.83101784  1  0.06778  -7e-06  0.083757  0.117046  -2.8e-05  1.037557  0.0
H  H99  1  0.64199114  0.25635539  0.16897829  1  0.067519  -7e-06  0.083843  0.117176  -2.8e-05  1.037555  0.0
H  H100  1  0.17483798  0.65757791  0.27541166  1  0.026901  0.0  0.091522  0.129261  -1.2e-05  1.006444  0.0
H  H101  1  0.82516110  0.65757745  0.72458823  1  0.02689  0.0  0.091534  0.129279  -1.2e-05  1.006449  0.0
H  H102  1  0.32516068  0.34241897  0.77541240  1  0.026932  0.0  0.091545  0.129306  -1.2e-05  1.006417  0.0
H  H103  1  0.67484095  0.34242471  0.22458335  1  0.02705  0.0  0.091569  0.12938  -1.2e-05  1.006249  0.0
H  H104  1  0.29800671  0.83177751  0.23496972  1  -0.010413  -7e-06  0.10162  0.072336  -1.1e-05  0.990786  0.0
H  H105  1  0.70199059  0.83177505  0.76503093  1  -0.010455  -7e-06  0.101625  0.072334  -1.1e-05  0.990835  0.0
H  H106  1  0.20199090  0.16822299  0.73496971  1  -0.010421  -7e-06  0.101617  0.072326  -1.1e-05  0.990788  0.0
H  H107  1  0.79800071  0.16822801  0.26503020  1  -0.010408  -7e-06  0.101634  0.072314  -1.1e-05  0.990793  0.0
H  H108  1  0.37827966  0.80165602  0.29454519  1  0.103009  -0.0  0.1075  0.084086  -8e-06  1.020276  0.0
H  H109  1  0.62171864  0.80165616  0.70545546  1  0.102995  -0.0  0.1075  0.084062  -8e-06  1.020286  0.0
H  H110  1  0.12171791  0.19834357  0.79454480  1  0.103077  -0.0  0.107495  0.084075  -8e-06  1.020269  0.0
H  H111  1  0.87828342  0.19834330  0.20545624  1  0.103087  -0.0  0.107491  0.084048  -8e-06  1.020314  0.0
H  H112  1  0.15340900  0.12879040  0.18971697  1  0.073327  6e-06  0.09514  0.142975  4e-06  1.00188  0.0
H  H113  1  0.84658682  0.12879176  0.81028333  1  0.073347  6e-06  0.095157  0.143015  4e-06  1.001782  0.0
H  H114  1  0.34658542  0.87121011  0.68971692  1  0.073382  6e-06  0.095139  0.143039  4e-06  1.001745  0.0
H  H115  1  0.65341195  0.87121038  0.31028524  1  0.073216  6e-06  0.095143  0.143054  4e-06  1.001766  0.0
H  H116  1  0.25739133  0.99513200  0.18806980  1  -0.001125  4e-06  0.084803  0.110043  -0.0  1.037045  0.0
H  H117  1  0.74260631  0.99513230  0.81193046  1  -0.001164  4e-06  0.084821  0.110086  -0.0  1.036996  0.0
H  H118  1  0.24260524  0.00486851  0.68806980  1  -0.001167  4e-06  0.084827  0.110095  -0.0  1.036967  0.0
H  H119  1  0.75739676  0.00486804  0.31193201  1  -0.001  4e-06  0.084808  0.110119  -0.0  1.036975  0.0
H  H120  1  0.32756934  0.12792640  0.21747577  1  0.040756  8e-06  0.080914  0.106412  3e-06  1.046557  0.0
H  H121  1  0.67242755  0.12792570  0.78252377  1  0.040733  8e-06  0.080902  0.106398  3e-06  1.046563  0.0
H  H122  1  0.17242613  0.87207410  0.71747612  1  0.040713  8e-06  0.080919  0.106403  3e-06  1.046542  0.0
H  H123  1  0.82757232  0.87207284  0.28252604  1  0.040718  8e-06  0.080896  0.106403  3e-06  1.046557  0.0
C  C124  1  0.66372897  0.63012144  0.22532761  1  0.038186  0.007248  -0.025224  -0.041649  0.005116  3.983812  0.006
C  C125  1  0.33627005  0.63012023  0.77467305  1  0.038124  0.007247  -0.025252  -0.041601  0.005115  3.983769  0.006
C  C126  1  0.83627200  0.36987983  0.72532720  1  0.03822  0.007248  -0.025264  -0.04164  0.005115  3.983873  0.006
C  C127  1  0.16372861  0.36987756  0.27467308  1  0.03761  0.007248  -0.025236  -0.04155  0.005115  3.983765  0.006
C  C128  1  0.89438529  0.77388678  0.56709223  1  -0.045497  -0.003084  0.012172  0.093074  -0.003483  4.000552  -0.002
C  C129  1  0.10560973  0.77388710  0.43290842  1  -0.045507  -0.003085  0.012212  0.093111  -0.003484  4.00057  -0.002
C  C130  1  0.60561363  0.22611451  0.06709227  1  -0.045644  -0.003085  0.01218  0.093062  -0.003484  4.000624  -0.002
C  C131  1  0.39439420  0.22610974  0.93290802  1  -0.045128  -0.003084  0.012248  0.093118  -0.003483  4.000559  -0.002
C  C132  1  0.74821713  0.34611446  0.46973124  1  1.570881  -0.000132  0.209824  0.572824  -0.000789  4.17349  -0.003
C  C133  1  0.25178129  0.34611317  0.53026867  1  1.570746  -0.000133  0.209743  0.572557  -0.000789  4.173778  -0.003
C  C134  1  0.75178263  0.65388946  0.96973121  1  1.570727  -0.000132  0.209752  0.572605  -0.000789  4.173575  -0.003
C  C135  1  0.24821537  0.65388647  0.03026906  1  1.570856  -0.000132  0.209805  0.572718  -0.000788  4.173514  -0.003
C  C136  1  0.67625004  0.65089397  0.16931028  1  1.548071  -0.001173  0.183445  0.529662  -0.001561  4.276389  -0.003
C  C137  1  0.32374902  0.65089363  0.83068961  1  1.548087  -0.001173  0.183441  0.529669  -0.00156  4.276409  -0.003
C  C138  1  0.82374989  0.34910640  0.66931026  1  1.548098  -0.001173  0.183442  0.529662  -0.00156  4.276451  -0.003
C  C139  1  0.17624961  0.34910414  0.33068965  1  1.548044  -0.001173  0.183451  0.529668  -0.001561  4.276399  -0.003
C  C140  1  0.98160263  0.10016268  0.59587166  1  0.524484  -0.001066  0.049976  0.094285  -0.001366  3.93967  -0.001
C  C141  1  0.01839528  0.10016107  0.40412825  1  0.524214  -0.001066  0.049945  0.094239  -0.001365  3.939676  -0.001
C  C142  1  0.51839521  0.89983951  0.09587282  1  0.524474  -0.001066  0.04992  0.094162  -0.001365  3.939719  -0.001
C  C143  1  0.48160867  0.89983759  0.90412820  1  0.524427  -0.001065  0.049901  0.094194  -0.001365  3.939813  -0.001
C  C144  1  0.63808377  0.53085878  0.38261918  1  1.382712  0.001025  0.236996  0.412997  0.000853  4.155326  0.001
C  C145  1  0.36191718  0.53085493  0.61738148  1  1.38417  0.001025  0.236993  0.413013  0.000853  4.155556  0.001
C  C146  1  0.86191603  0.46914245  0.88261991  1  1.382699  0.001025  0.237003  0.413047  0.000853  4.15548  0.001
C  C147  1  0.13808479  0.46914560  0.11738189  1  1.38416  0.001025  0.237033  0.413126  0.000853  4.155389  0.001
C  C148  1  0.76302706  0.71203917  0.56536749  1  0.043517  0.005016  -0.069363  -0.157508  0.003397  3.897966  0.004
C  C149  1  0.23696998  0.71203879  0.43463279  1  0.043599  0.005017  -0.069346  -0.157593  0.003397  3.897793  0.004
C  C150  1  0.73697293  0.28796213  0.06536790  1  0.043745  0.005016  -0.069366  -0.157523  0.003397  3.897852  0.004
C  C151  1  0.26303073  0.28795625  0.93463277  1  0.043157  0.005017  -0.069374  -0.157609  0.003397  3.897668  0.004
C  C152  1  0.60857385  0.35667823  0.43882692  1  0.325104  0.011803  0.011618  -0.021008  0.008537  3.819724  0.01
C  C153  1  0.39142674  0.35667625  0.56117298  1  0.325225  0.011802  0.011627  -0.02084  0.008537  3.819588  0.01
C  C154  1  0.89142914  0.64332298  0.93882689  1  0.325149  0.011803  0.011592  -0.020979  0.008538  3.819724  0.01
C  C155  1  0.10856991  0.64332339  0.06117301  1  0.325013  0.011803  0.011613  -0.020952  0.008538  3.819663  0.01
C  C156  1  0.02053528  0.70542206  0.57029986  1  -0.040082  0.0058  -0.078842  -0.175704  0.003937  3.937412  0.005
C  C157  1  0.97946068  0.70542190  0.42969965  1  -0.039265  0.005801  -0.078841  -0.175693  0.003937  3.937421  0.005
C  C158  1  0.47946351  0.29458028  0.07030025  1  -0.039176  0.005801  -0.078804  -0.175645  0.003937  3.937545  0.005
C  C159  1  0.52053910  0.29457932  0.92970003  1  -0.040111  0.0058  -0.078857  -0.175694  0.003937  3.937546  0.005
C  C160  1  0.64796869  0.57108865  0.32844699  1  -0.029495  -0.000296  -0.001826  0.008052  -0.000388  3.981069  0.0
C  C161  1  0.35203235  0.57108658  0.67155366  1  -0.029463  -0.000296  -0.001832  0.007927  -0.000388  3.981264  0.0
C  C162  1  0.85202901  0.42891350  0.82844734  1  -0.029507  -0.000296  -0.001853  0.007887  -0.000388  3.981113  0.0
C  C163  1  0.14796959  0.42891304  0.17155294  1  -0.029523  -0.000296  -0.001862  0.00784  -0.000388  3.981131  0.0
C  C164  1  0.01087989  0.58012442  0.57112363  1  0.425656  0.000112  0.049934  0.1004  -0.000381  3.919825  0.0
C  C165  1  0.98911580  0.58012337  0.42887400  1  0.425599  0.000112  0.049949  0.100542  -0.000381  3.919709  0.0
C  C166  1  0.48912103  0.41987793  0.07112439  1  0.425615  0.000112  0.049916  0.100357  -0.000381  3.919874  0.0
C  C167  1  0.51088183  0.41987604  0.92887627  1  0.42565  0.000112  0.049923  0.100454  -0.000381  3.919882  0.0
C  C168  1  0.54816592  0.23130191  0.42542263  1  -0.017428  8.8e-05  -0.157024  -0.173546  -4e-05  3.865835  0.0
C  C169  1  0.45183226  0.23129730  0.57457766  1  -0.017037  8.8e-05  -0.156976  -0.173477  -4e-05  3.865756  0.0
C  C170  1  0.95183922  0.76869750  0.92542258  1  -0.017366  8.8e-05  -0.156999  -0.173561  -4e-05  3.865874  0.0
C  C171  1  0.04816115  0.76869871  0.07457655  1  -0.017402  8.8e-05  -0.157011  -0.1736  -4e-05  3.865869  0.0
C  C172  1  0.78857661  0.62247544  0.25466541  1  -0.026904  0.000664  -0.085618  -0.09564  0.000308  3.998096  0.001
C  C173  1  0.21142346  0.62247495  0.74533449  1  -0.026789  0.000664  -0.085654  -0.095757  0.000308  3.998171  0.001
C  C174  1  0.71142434  0.37752401  0.75466577  1  -0.026888  0.000664  -0.08562  -0.095703  0.000308  3.998218  0.001
C  C175  1  0.28857629  0.37752103  0.24533451  1  -0.026376  0.000664  -0.085628  -0.095711  0.000308  3.998229  0.001
C  C176  1  0.79772695  0.09569638  0.53714154  1  0.496145  -0.000359  0.053881  0.105947  -0.000854  3.930279  0.0
C  C177  1  0.20227631  0.09569413  0.46285762  1  0.495791  -0.00036  0.053902  0.105985  -0.000854  3.930264  0.0
C  C178  1  0.70227521  0.90430583  0.03714344  1  0.495801  -0.00036  0.053905  0.105998  -0.000854  3.930271  0.0
C  C179  1  0.29773297  0.90430361  0.96285872  1  0.49609  -0.000359  0.053946  0.105984  -0.000854  3.930375  0.0
C  C180  1  0.89666111  0.90702304  0.56602618  1  0.008481  -0.002712  0.017014  0.110935  -0.003075  3.987661  -0.002
C  C181  1  0.10333742  0.90702245  0.43397446  1  0.008283  -0.002713  0.016985  0.110885  -0.003076  3.987794  -0.002
C  C182  1  0.60333889  0.09297826  0.06602661  1  0.008305  -0.002713  0.017001  0.110942  -0.003076  3.987665  -0.002
C  C183  1  0.39666758  0.09297439  0.93397368  1  0.008409  -0.002713  0.016926  0.110779  -0.003076  3.987896  -0.002
C  C184  1  0.76251300  0.58647398  0.56581647  1  0.418638  -0.001535  0.058966  0.111765  -0.002225  3.899617  -0.001
C  C185  1  0.23748164  0.58647179  0.43418419  1  0.418729  -0.001536  0.058998  0.111945  -0.002225  3.899365  -0.001
C  C186  1  0.73748700  0.41352732  0.06581649  1  0.418635  -0.001535  0.058981  0.111772  -0.002225  3.899562  -0.001
C  C187  1  0.26251478  0.41352506  0.93418568  1  0.418698  -0.001535  0.058994  0.111936  -0.002225  3.899417  -0.001
C  C188  1  0.78128390  0.59304989  0.30584048  1  -0.123475  0.000767  -0.088813  -0.120647  0.000484  3.974943  0.001
C  C189  1  0.21871718  0.59305394  0.69415904  1  -0.123512  0.000767  -0.088834  -0.12064  0.000484  3.975006  0.001
C  C190  1  0.71871488  0.40694864  0.80584046  1  -0.123475  0.000767  -0.088824  -0.12059  0.000484  3.974911  0.001
C  C191  1  0.28128474  0.40694838  0.19415982  1  -0.12341  0.000767  -0.088819  -0.120622  0.000484  3.974891  0.001
C  C192  1  0.79964304  0.97052823  0.53558296  1  -0.024886  0.004452  -0.072822  -0.16071  0.00296  3.9331  0.003
C  C193  1  0.20035884  0.97052778  0.46441579  1  -0.024778  0.004452  -0.072844  -0.160782  0.002959  3.933236  0.003
C  C194  1  0.70035912  0.02947217  0.03558452  1  -0.02478  0.004452  -0.072816  -0.160746  0.002959  3.933212  0.003
C  C195  1  0.29965044  0.02946905  0.96441767  1  -0.024875  0.004452  -0.072768  -0.160636  0.002959  3.933221  0.003
C  C196  1  0.53041912  0.61190957  0.24854967  1  -0.116048  2.1e-05  -0.08471  -0.094449  -5.7e-05  3.986804  0.0
C  C197  1  0.46957985  0.61191037  0.75145099  1  -0.116172  2.1e-05  -0.084726  -0.094511  -5.7e-05  3.986685  0.0
C  C198  1  0.96957862  0.38809079  0.74855039  1  -0.116106  2.1e-05  -0.084726  -0.094491  -5.7e-05  3.986797  0.0
C  C199  1  0.03042097  0.38808832  0.25145027  1  -0.116004  2.1e-05  -0.084766  -0.094644  -5.7e-05  3.986708  0.0
C  C200  1  0.99093906  0.97473964  0.59614989  1  -0.028482  0.004712  -0.078293  -0.175362  0.003086  3.92976  0.004
C  C201  1  0.00905853  0.97473891  0.40385037  1  -0.028327  0.004712  -0.078307  -0.175321  0.003086  3.929811  0.004
C  C202  1  0.50905984  0.02526165  0.09614995  1  -0.028512  0.004712  -0.078313  -0.175294  0.003086  3.929718  0.004
C  C203  1  0.49094327  0.02525794  0.90384921  1  -0.028521  0.004711  -0.078247  -0.175234  0.003085  3.929845  0.004
C  C204  1  0.62844105  0.19756393  0.37690623  1  0.005757  0.000132  -0.164231  -0.158514  7e-05  3.902986  0.0
C  C205  1  0.37155706  0.19756009  0.62309292  1  0.005877  0.000132  -0.164236  -0.158534  7e-05  3.903038  0.0
C  C206  1  0.87156412  0.80243911  0.87690695  1  0.005919  0.000132  -0.164241  -0.158503  7e-05  3.902918  0.0
C  C207  1  0.12843740  0.80243953  0.12309219  1  0.005941  0.000132  -0.164249  -0.158526  7e-05  3.902967  0.0
C  C208  1  0.52235712  0.58241893  0.29973383  1  -0.034415  0.000114  -0.08574  -0.117696  4e-06  3.970527  0.0
C  C209  1  0.47764287  0.58241614  0.70026683  1  -0.034403  0.000114  -0.085744  -0.117626  4e-06  3.970511  0.0
C  C210  1  0.97764059  0.41758503  0.79973417  1  -0.034405  0.000114  -0.085757  -0.11769  4e-06  3.970409  0.0
C  C211  1  0.02235906  0.41758617  0.20026649  1  -0.0344  0.000114  -0.08573  -0.117589  4e-06  3.970301  0.0
C  C212  1  0.64501894  0.31812425  0.34884192  1  0.247304  0.000313  -0.062667  -0.051536  0.000243  3.861591  0.0
C  C213  1  0.35497942  0.31812219  0.65115761  1  0.247332  0.000313  -0.062555  -0.051323  0.000243  3.861362  0.0
C  C214  1  0.85497874  0.68187699  0.84884264  1  0.247262  0.000313  -0.06255  -0.051318  0.000243  3.86138  0.0
C  C215  1  0.14501824  0.68188014  0.15115763  1  0.24735  0.000313  -0.062582  -0.051483  0.000243  3.861545  0.0
C  C216  1  0.32563683  0.00057600  0.33383895  1  1.371394  -1.4e-05  0.155791  0.291359  -3.4e-05  4.18111  0.0
C  C217  1  0.67435979  0.00057351  0.66616211  1  1.371539  -1.4e-05  0.155736  0.291147  -3.4e-05  4.181303  0.0
C  C218  1  0.17436501  0.99942539  0.83384005  1  1.371444  -1.4e-05  0.155709  0.291236  -3.4e-05  4.181374  0.0
C  C219  1  0.82563693  0.99942234  0.16616287  1  1.371287  -1.4e-05  0.155777  0.291248  -3.4e-05  4.181016  0.0
C  C220  1  0.16471536  0.03605393  0.26191197  1  0.307171  -1e-05  -0.060756  -0.008259  -1.5e-05  3.938654  0.0
C  C221  1  0.83528241  0.03605349  0.73808832  1  0.307192  -1e-05  -0.060723  -0.008174  -1.5e-05  3.938596  0.0
C  C222  1  0.33528116  0.96394566  0.76191155  1  0.307164  -1e-05  -0.060699  -0.008178  -1.5e-05  3.938579  0.0
C  C223  1  0.66471855  0.96394687  0.23809099  1  0.307248  -1e-05  -0.060712  -0.008144  -1.5e-05  3.938837  0.0
C  C224  1  0.15507587  0.74928753  0.28982749  1  -0.102565  7e-06  -0.245563  -0.377703  3e-06  3.921955  0.0
C  C225  1  0.84492125  0.74928801  0.71017316  1  -0.102557  7e-06  -0.245576  -0.377706  3e-06  3.921942  0.0
C  C226  1  0.34492064  0.25071115  0.78982747  1  -0.102623  7e-06  -0.245588  -0.37772  3e-06  3.92197  0.0
C  C227  1  0.65507973  0.25071416  0.21016827  1  -0.102524  7e-06  -0.245588  -0.377822  3e-06  3.921855  0.0
C  C228  1  0.27962535  0.83271212  0.27609838  1  0.33618  -3e-06  -0.065189  -0.011684  -1.1e-05  3.918387  0.0
C  C229  1  0.72037195  0.83271241  0.72390265  1  0.336357  -3e-06  -0.065199  -0.011681  -1.1e-05  3.918412  0.0
C  C230  1  0.22037224  0.16728656  0.77609837  1  0.336158  -3e-06  -0.065151  -0.01165  -1.1e-05  3.918398  0.0
C  C231  1  0.77962581  0.16728976  0.22390155  1  0.33611  -3e-06  -0.065157  -0.011524  -1.1e-05  3.918347  0.0
C  C232  1  0.23014343  0.07405211  0.21138198  1  -0.076011  2.4e-05  -0.248539  -0.393283  2.1e-05  3.94917  0.0
C  C233  1  0.76985334  0.07405246  0.78861832  1  -0.075998  2.4e-05  -0.248583  -0.393398  2.1e-05  3.949102  0.0
C  C234  1  0.26985205  0.92594839  0.71138232  1  -0.076011  2.4e-05  -0.248582  -0.3934  2.1e-05  3.949038  0.0
C  C235  1  0.73014759  0.92594608  0.28862022  1  -0.076136  2.4e-05  -0.248529  -0.393456  2.1e-05  3.949215  0.0
N  N236  1  0.88603730  0.15993839  0.56704719  1  -1.208555  0.073721  -0.341882  -0.221508  0.04957  3.602384  0.064
N  N237  1  0.11396395  0.15993782  0.43295196  1  -1.20803  0.073721  -0.341847  -0.221461  0.049569  3.602289  0.064
N  N238  1  0.61396270  0.84006291  0.06704873  1  -1.208044  0.07372  -0.34185  -0.221439  0.049569  3.602317  0.064
N  N239  1  0.38604105  0.84005993  0.93295230  1  -1.208482  0.073719  -0.341891  -0.221507  0.049569  3.60239  0.064
N  N240  1  0.88454846  0.52175397  0.56847401  1  -1.208099  0.084071  -0.341795  -0.216447  0.056363  3.596948  0.073
N  N241  1  0.11544711  0.52175159  0.43152514  1  -1.208157  0.08407  -0.341876  -0.216639  0.056363  3.596868  0.073
N  N242  1  0.61545261  0.47824823  0.06847480  1  -1.208151  0.08407  -0.341796  -0.216437  0.056363  3.59698  0.073
N  N243  1  0.38455038  0.47824616  0.93152700  1  -1.208109  0.08407  -0.341776  -0.216456  0.056363  3.596958  0.073
N  N244  1  0.63324797  0.40976156  0.38914984  1  -1.126562  0.005299  -0.267964  -0.109807  0.00314  3.590423  0.004
N  N245  1  0.36675273  0.40975772  0.61085006  1  -1.12669  0.005299  -0.268027  -0.109933  0.003139  3.59047  0.004
N  N246  1  0.86675183  0.59024057  0.88915019  1  -1.126658  0.005299  -0.26796  -0.109852  0.00314  3.590493  0.004
N  N247  1  0.13324603  0.59024281  0.11085047  1  -1.126675  0.0053  -0.268006  -0.109868  0.00314  3.590428  0.004
N  N248  1  0.25775069  0.95780365  0.29202545  1  -1.209697  2.9e-05  -0.291928  -0.098397  2e-05  3.660899  0.0
N  N249  1  0.74224687  0.95780217  0.70797482  1  -1.209851  2.9e-05  -0.291874  -0.098257  2e-05  3.660847  0.0
N  N250  1  0.24224689  0.04219593  0.79202544  1  -1.209624  2.9e-05  -0.291955  -0.098366  2e-05  3.661013  0.0
N  N251  1  0.75775197  0.04219729  0.20797599  1  -1.209738  2.9e-05  -0.291892  -0.098344  2e-05  3.66086  0.0
O  O252  1  0.72696033  0.35000844  0.51790617  1  -1.130523  0.112599  -0.322362  -0.557936  0.071787  2.438577  0.103
O  O253  1  0.27304132  0.35000991  0.48209298  1  -1.130391  0.112605  -0.322297  -0.557757  0.071791  2.438552  0.103
O  O254  1  0.77304184  0.64999106  0.01790656  1  -1.130376  0.112604  -0.322282  -0.557746  0.07179  2.438509  0.103
O  O255  1  0.22695937  0.64999054  0.98209409  1  -1.13051  0.1126  -0.322344  -0.557853  0.071788  2.438652  0.103
O  O256  1  0.55700413  0.65575776  0.14400952  1  -1.12515  0.100993  -0.3336  -0.550451  0.064599  2.291115  0.091
O  O257  1  0.44299494  0.65575489  0.85599114  1  -1.125111  0.100994  -0.333546  -0.550397  0.064599  2.291124  0.091
O  O258  1  0.94299475  0.34424352  0.64400873  1  -1.125128  0.100992  -0.333554  -0.550426  0.064598  2.291131  0.091
O  O259  1  0.05700474  0.34424288  0.35599080  1  -1.125149  0.100991  -0.333572  -0.550435  0.064598  2.291125  0.091
O  O260  1  0.86523028  0.32996458  0.44776261  1  -1.18646  0.003643  -0.318531  -0.578951  0.001398  2.302982  0.004
O  O261  1  0.13477132  0.32996402  0.55223616  1  -1.186262  0.003643  -0.31851  -0.578881  0.001396  2.303156  0.004
O  O262  1  0.63477270  0.67003754  0.94776297  1  -1.186442  0.003642  -0.318519  -0.578873  0.001397  2.303052  0.004
O  O263  1  0.36522854  0.67003562  0.05223806  1  -1.186248  0.003645  -0.318516  -0.578905  0.001398  2.302945  0.004
O  O264  1  0.63310225  0.60455731  0.41837976  1  -1.134534  0.002589  -0.325379  -0.512013  0.001566  2.056313  0.002
O  O265  1  0.36689671  0.60455438  0.58162128  1  -1.135884  0.002589  -0.325341  -0.511973  0.001566  2.056479  0.002
O  O266  1  0.86689646  0.39544482  0.91838011  1  -1.134509  0.002589  -0.325387  -0.512013  0.001566  2.056432  0.002
O  O267  1  0.13310743  0.39544616  0.08162169  1  -1.135872  0.002589  -0.32539  -0.512063  0.001566  2.056452  0.002
O  O268  1  0.79827485  0.65994661  0.14942718  1  -1.178141  0.000767  -0.325559  -0.563138  -0.000513  2.178373  0.001
O  O269  1  0.20172423  0.65994789  0.85057309  1  -1.178173  0.000767  -0.325577  -0.563154  -0.000512  2.17836  0.001
O  O270  1  0.70172509  0.34005195  0.64942679  1  -1.178152  0.000768  -0.325572  -0.56315  -0.000512  2.178394  0.001
O  O271  1  0.29827439  0.34005078  0.35057350  1  -1.178107  0.000768  -0.32557  -0.563146  -0.000512  2.178398  0.001
O  O272  1  0.40702559  0.94124974  0.36137703  1  -1.155229  6.3e-05  -0.322611  -0.463062  3.7e-05  2.163097  0.0
O  O273  1  0.59296872  0.94124624  0.63862475  1  -1.155267  6.3e-05  -0.322588  -0.462968  3.7e-05  2.16326  0.0
O  O274  1  0.09297195  0.05874983  0.86137779  1  -1.155275  6.3e-05  -0.322556  -0.462979  3.7e-05  2.163205  0.0
O  O275  1  0.90702694  0.05874691  0.13862326  1  -1.155121  6.3e-05  -0.322617  -0.463017  3.7e-05  2.163049  0.0
