# generated using pymatgen
data_H10PbC14N2O11
_symmetry_space_group_name_H-M   'P 1'
_cell_length_a   4.93486582
_cell_length_b   12.05932422
_cell_length_c   14.66310678
_cell_angle_alpha   67.90862740
_cell_angle_beta   86.44178802
_cell_angle_gamma   78.71210965
_symmetry_Int_Tables_number   1
_chemical_formula_structural   H10PbC14N2O11
_chemical_formula_sum   'H20 Pb2 C28 N4 O22'
_cell_volume   792.85053464
_cell_formula_units_Z   2
loop_
 _symmetry_equiv_pos_site_id
 _symmetry_equiv_pos_as_xyz
  1  'x, y, z'
loop_
 _atom_site_type_symbol
 _atom_site_label
 _atom_site_symmetry_multiplicity
 _atom_site_fract_x
 _atom_site_fract_y
 _atom_site_fract_z
 _atom_site_occupancy
 _atom_site_hle17_bader_spin_density
 _atom_site_hle17_ddec_charge
 _atom_site_hle17_ddec_spin_density
 _atom_site_hle17_ddec_sum_bond_order
 _atom_site_hle17_magmom
 _atom_site_hse06_10hf_bader_spin_density
 _atom_site_hse06_10hf_ddec_charge
 _atom_site_hse06_10hf_ddec_spin_density
 _atom_site_hse06_10hf_ddec_sum_bond_order
 _atom_site_hse06_10hf_magmom
 _atom_site_hse06_bader_spin_density
 _atom_site_hse06_ddec_charge
 _atom_site_hse06_ddec_spin_density
 _atom_site_hse06_ddec_sum_bond_order
 _atom_site_hse06_magmom
 _atom_site_pbe_bader_spin_density
 _atom_site_pbe_cm5_charge
 _atom_site_pbe_ddec_charge
 _atom_site_pbe_ddec_spin_density
 _atom_site_pbe_ddec_sum_bond_order
 _atom_site_pbe_magmom
H  H0  1  0.98045088  0.89064010  0.49330752  1  0  0.151276  0  0.95741  0  0  0.154307  0  1.025653  0  0  0.159228  0  1.02133  0  0  0.116357  0.15077  0  1.028878  0
H  H1  1  0.01955177  0.10935939  0.50669279  1  0  0.151256  0  0.957479  0  0  0.154295  0  1.025651  0  0  0.159217  0  1.021328  0  0  0.116347  0.150759  0  1.028874  0
H  H2  1  0.37473988  0.92955879  0.27658439  1  0  0.123574  0  0.952138  0  0  0.123936  0  1.02523  0  0  0.128965  0  1.02111  0  0  0.110556  0.120331  0  1.028226  0
H  H3  1  0.62525551  0.07044342  0.72341523  1  0  0.123581  0  0.952127  0  0  0.123965  0  1.02522  0  0  0.128993  0  1.021101  0  0  0.110579  0.120361  0  1.028219  0
H  H4  1  0.30321304  0.60038668  0.48697164  1  0  0.393914  0  0.889782  0  0  0.363441  0  0.967841  0  0  0.37581  0  0.954727  0  0  0.303028  0.354737  0  0.976894  0
H  H5  1  0.69678188  0.39961190  0.51302706  1  0  0.393863  0  0.889912  0  0  0.363415  0  0.967909  0  0  0.375784  0  0.954796  0  0  0.303016  0.35471  0  0.976959  0
H  H6  1  0.58930157  0.72598983  0.27653120  1  0  0.103936  0  0.951111  0  0  0.108196  0  1.020844  0  0  0.111407  0  1.018282  0  0  0.109315  0.10582  0  1.022839  0
H  H7  1  0.41068281  0.27400964  0.72347085  1  0  0.103901  0  0.951065  0  0  0.108173  0  1.020825  0  0  0.111385  0  1.018262  0  0  0.109297  0.105794  0  1.022828  0
H  H8  1  0.08656527  0.30492994  0.86360909  1  0  0.136515  0  0.959283  0  0  0.140154  0  1.030297  0  0  0.144739  0  1.02678  0  0  0.117078  0.136822  0  1.03301  0
H  H9  1  0.91344018  0.69506774  0.13639035  1  0  0.13651  0  0.959287  0  0  0.140157  0  1.030274  0  0  0.144738  0  1.026764  0  0  0.117074  0.136821  0  1.032989  0
H  H10  1  0.29981113  0.41452209  0.04061335  1  0  0.396349  0  0.879224  0  0  0.36654  0  0.954406  0  0  0.378647  0  0.941585  0  0  0.305439  0.358018  0  0.963284  0
H  H11  1  0.70018909  0.58547831  0.95938604  1  0  0.396367  0  0.879204  0  0  0.366549  0  0.954395  0  0  0.378656  0  0.941572  0  0  0.305435  0.358028  0  0.963271  0
H  H12  1  0.60097241  0.08105592  0.08471423  1  0  0.130225  0  0.955743  0  0  0.135083  0  1.022749  0  0  0.139056  0  1.02027  0  0  0.112551  0.132181  0  1.024653  0
H  H13  1  0.39902985  0.91894448  0.91528512  1  0  0.130228  0  0.955823  0  0  0.135106  0  1.022803  0  0  0.139079  0  1.020321  0  0  0.112543  0.13221  0  1.024705  0
H  H14  1  0.72381151  0.16952386  0.20387142  1  0  0.096602  0  0.969806  0  0  0.10202  0  1.037568  0  0  0.104368  0  1.036512  0  0  0.103678  0.100337  0  1.038377  0
H  H15  1  0.27619355  0.83047473  0.79612775  1  0  0.096585  0  0.969897  0  0  0.102027  0  1.03749  0  0  0.104376  0  1.036433  0  0  0.103687  0.100345  0  1.038297  0
H  H16  1  0.69903708  0.55869115  0.24801920  1  0  0.423129  0  0.888229  0  0  0.390667  0  0.955385  0  0  0.402241  0  0.93867  0  0  0.293277  0.382469  0  0.96721  0
H  H17  1  0.30095908  0.44130924  0.75198097  1  0  0.423193  0  0.888137  0  0  0.390733  0  0.95529  0  0  0.402306  0  0.938575  0  0  0.293312  0.382536  0  0.967114  0
H  H18  1  0.58378841  0.56214858  0.14739612  1  0  0.428655  0  0.855774  0  0  0.398273  0  0.92415  0  0  0.408614  0  0.909414  0  0  0.30201  0.390909  0  0.934625  0
H  H19  1  0.41621143  0.43785273  0.85260369  1  0  0.428619  0  0.855819  0  0  0.398252  0  0.924178  0  0  0.408591  0  0.909446  0  0  0.302005  0.390889  0  0.934652  0
Pb  Pb20  1  0.38949519  0.36881238  0.32093361  1  0  1.383023  0  1.32559  0  0  1.19682  0  1.722048  0  0  1.256646  0  1.676166  0  0  0.660987  1.153187  0  1.754477  0
Pb  Pb21  1  0.61049528  0.63118709  0.67906763  1  0  1.38302  0  1.325575  0  0  1.19681  0  1.722089  0  0  1.256634  0  1.676205  0  0  0.660977  1.153186  0  1.754525  0
C  C22  1  0.90715069  0.69314705  0.38253663  1  0  -0.16647  0  3.685108  0  0  -0.157224  0  3.932153  0  0  -0.167789  0  3.951211  0  0  -0.018163  -0.1503  0  3.91937  0
C  C23  1  0.09283736  0.30685334  0.61746439  1  0  -0.16654  0  3.684782  0  0  -0.157256  0  3.931966  0  0  -0.167826  0  3.951025  0  0  -0.018165  -0.150334  0  3.919179  0
C  C24  1  0.01512726  0.73842304  0.44665940  1  0  0.337171  0  3.802037  0  0  0.326282  0  4.059648  0  0  0.33841  0  4.077832  0  0  0.098135  0.317912  0  4.047101  0
C  C25  1  0.98486359  0.26157553  0.55334143  1  0  0.337355  0  3.801836  0  0  0.326411  0  4.059647  0  0  0.338542  0  4.077825  0  0  0.098197  0.318041  0  4.047091  0
C  C26  1  0.89394068  0.85322789  0.44732476  1  0  -0.23494  0  3.675652  0  0  -0.265498  0  3.936365  0  0  -0.271709  0  3.955503  0  0  -0.09455  -0.261234  0  3.923493  0
C  C27  1  0.10605954  0.14677250  0.55267600  1  0  -0.23553  0  3.677789  0  0  -0.265592  0  3.936471  0  0  -0.271804  0  3.955606  0  0  -0.094564  -0.261325  0  3.923595  0
C  C28  1  0.66968555  0.91957926  0.38455491  1  0  0.11504  0  3.729439  0  0  0.099508  0  3.981291  0  0  0.098991  0  4.004585  0  0  0.082473  0.099834  0  3.965521  0
C  C29  1  0.33031100  0.08042022  0.61544758  1  0  0.107106  0  3.725325  0  0  0.099644  0  3.981178  0  0  0.099128  0  4.004471  0  0  0.082495  0.099967  0  3.96541  0
C  C30  1  0.55144917  0.87560441  0.32394083  1  0  -0.110414  0  3.695838  0  0  -0.144199  0  3.968267  0  0  -0.147428  0  3.9859  0  0  -0.0868  -0.141966  0  3.956347  0
C  C31  1  0.44854294  0.12439597  0.67606215  1  0  -0.110951  0  3.697625  0  0  -0.144305  0  3.968271  0  0  -0.147535  0  3.985907  0  0  -0.086842  -0.142073  0  3.956352  0
C  C32  1  0.67323713  0.76161942  0.32442868  1  0  0.009091  0  3.689061  0  0  -0.019075  0  3.953793  0  0  -0.014557  0  3.968829  0  0  -0.068449  -0.022033  0  3.94368  0
C  C33  1  0.32674927  0.23838005  0.67557402  1  0  0.009205  0  3.68869  0  0  -0.018984  0  3.953548  0  0  -0.014464  0  3.968581  0  0  -0.068417  -0.021941  0  3.943436  0
C  C34  1  0.05600092  0.57853866  0.37283905  1  0  0.670595  0  3.863481  0  0  0.61308  0  4.159844  0  0  0.649282  0  4.151426  0  0  0.217004  0.588533  0  4.164645  0
C  C35  1  0.94399321  0.42146174  0.62716048  1  0  0.670583  0  3.86342  0  0  0.613056  0  4.159799  0  0  0.649259  0  4.15138  0  0  0.216979  0.588511  0  4.164599  0
C  C36  1  0.97280351  0.28517297  0.10186678  1  0  -0.184042  0  3.719817  0  0  -0.172804  0  3.96618  0  0  -0.18381  0  3.986135  0  0  -0.026922  -0.165594  0  3.952846  0
C  C37  1  0.02720358  0.71482560  0.89813440  1  0  -0.184093  0  3.719891  0  0  -0.172765  0  3.96617  0  0  -0.183778  0  3.986136  0  0  -0.026927  -0.165562  0  3.952841  0
C  C38  1  0.08371476  0.32269361  0.00577741  1  0  0.342182  0  3.773634  0  0  0.324888  0  4.03945  0  0  0.337715  0  4.054892  0  0  0.094678  0.315992  0  4.029018  0
C  C39  1  0.91629437  0.67730497  0.99422304  1  0  0.342179  0  3.773656  0  0  0.324858  0  4.039452  0  0  0.337684  0  4.054896  0  0  0.094639  0.315964  0  4.029017  0
C  C40  1  0.01160735  0.27604177  0.93856122  1  0  -0.196896  0  3.659497  0  0  -0.232081  0  3.925405  0  0  -0.235965  0  3.939965  0  0  -0.089682  -0.229705  0  3.915749  0
C  C41  1  0.98840381  0.72395681  0.06143919  1  0  -0.196891  0  3.659573  0  0  -0.232113  0  3.925525  0  0  -0.235996  0  3.940086  0  0  -0.089676  -0.229735  0  3.915864  0
C  C42  1  0.83796616  0.19141517  0.96913894  1  0  0.117708  0  3.716699  0  0  0.10358  0  3.973888  0  0  0.106323  0  3.99393  0  0  0.08135  0.102485  0  3.959887  0
C  C43  1  0.16203929  0.80858250  0.03086119  1  0  0.117759  0  3.716747  0  0  0.103685  0  3.973892  0  0  0.106432  0  3.993934  0  0  0.081366  0.102589  0  3.95989  0
C  C44  1  0.73171978  0.14937229  0.06403661  1  0  -0.126027  0  3.719877  0  0  -0.158488  0  3.987032  0  0  -0.162144  0  4.005968  0  0  -0.092968  -0.156118  0  3.974131  0
C  C45  1  0.26829059  0.85062812  0.93596326  1  0  -0.126137  0  3.719905  0  0  -0.158639  0  3.987099  0  0  -0.162292  0  4.00603  0  0  -0.093002  -0.156277  0  3.974195  0
C  C46  1  0.80176618  0.19809111  0.12929836  1  0  -0.014273  0  3.725619  0  0  -0.038144  0  3.982708  0  0  -0.03534  0  4.001114  0  0  -0.077293  -0.039938  0  3.970247  0
C  C47  1  0.19823686  0.80190748  0.87070017  1  0  -0.014207  0  3.725474  0  0  -0.038051  0  3.982607  0  0  -0.035246  0  4.00101  0  0  -0.077253  -0.039844  0  3.970149  0
C  C48  1  0.04434807  0.33386006  0.17465573  1  0  0.664303  0  3.895426  0  0  0.607605  0  4.192447  0  0  0.644619  0  4.183035  0  0  0.210218  0.5824  0  4.197935  0
C  C49  1  0.95565661  0.66613944  0.82534385  1  0  0.664333  0  3.895355  0  0  0.607618  0  4.192453  0  0  0.644634  0  4.183036  0  0  0.21027  0.582416  0  4.197944  0
N  N50  1  0.56032509  0.04353960  0.37880014  1  0  0.468728  0  3.93794  0  0  0.525171  0  4.18792  0  0  0.547048  0  4.194653  0  0  0.056641  0.510537  0  4.183169  0
N  N51  1  0.43967716  0.95646079  0.62120127  1  0  0.497818  0  3.893328  0  0  0.525208  0  4.187888  0  0  0.547084  0  4.194624  0  0  0.05662  0.510574  0  4.183141  0
N  N52  1  0.76218890  0.14436962  0.89718519  1  0  0.461629  0  3.937303  0  0  0.509195  0  4.21018  0  0  0.526392  0  4.21972  0  0  0.057359  0.495923  0  4.204055  0
N  N53  1  0.23781664  0.85563261  0.10281286  1  0  0.461705  0  3.937261  0  0  0.509224  0  4.210206  0  0  0.526411  0  4.219751  0  0  0.057419  0.495955  0  4.204076  0
O  O54  1  0.97144204  0.53885324  0.31229815  1  0  -0.650652  0  2.048332  0  0  -0.577878  0  2.284349  0  0  -0.607781  0  2.274816  0  0  -0.2908  -0.556869  0  2.290204  0
O  O55  1  0.02854969  0.46114806  0.68770046  1  0  -0.650669  0  2.048306  0  0  -0.577925  0  2.284385  0  0  -0.607828  0  2.274852  0  0  -0.290833  -0.556915  0  2.290242  0
O  O56  1  0.27691654  0.52243547  0.42418933  1  0  -0.630089  0  1.984341  0  0  -0.56155  0  2.210243  0  0  -0.58948  0  2.20311  0  0  -0.294772  -0.542076  0  2.214586  0
O  O57  1  0.72307643  0.47756767  0.57580801  1  0  -0.630064  0  1.984323  0  0  -0.561503  0  2.210189  0  0  -0.589433  0  2.203055  0  0  -0.294741  -0.542029  0  2.214532  0
O  O58  1  0.36085735  0.10391860  0.32231924  1  0  -0.362359  0  1.798574  0  0  -0.34597  0  1.998472  0  0  -0.359185  0  1.995639  0  0  -0.115297  -0.337062  0  2.000442  0
O  O59  1  0.63915592  0.89608455  0.67767699  1  0  -0.372322  0  1.784731  0  0  -0.346001  0  1.998446  0  0  -0.359208  0  1.995622  0  0  -0.115286  -0.337085  0  2.000422  0
O  O60  1  0.67380107  0.08604889  0.42854536  1  0  -0.377163  0  1.832314  0  0  -0.363518  0  2.044418  0  0  -0.377512  0  2.041538  0  0  -0.118396  -0.353872  0  2.046284  0
O  O61  1  0.32619751  0.91395058  0.57145777  1  0  -0.386924  0  1.818101  0  0  -0.363549  0  2.044453  0  0  -0.377548  0  2.041574  0  0  -0.118379  -0.353913  0  2.046332  0
O  O62  1  0.23665740  0.67495220  0.50534805  1  0  -0.546861  0  2.165503  0  0  -0.494111  0  2.395229  0  0  -0.51819  0  2.390691  0  0  -0.335835  -0.476876  0  2.397847  0
O  O63  1  0.76333993  0.32504547  0.49465157  1  0  -0.546863  0  2.165475  0  0  -0.494117  0  2.395248  0  0  -0.518197  0  2.390703  0  0  -0.335832  -0.476884  0  2.39786  0
O  O64  1  0.25081284  0.39172388  0.15311485  1  0  -0.651125  0  1.985144  0  0  -0.574456  0  2.213207  0  0  -0.604531  0  2.204249  0  0  -0.297789  -0.553314  0  2.218627  0
O  O65  1  0.74918700  0.60827743  0.84688428  1  0  -0.65117  0  1.985122  0  0  -0.574507  0  2.213217  0  0  -0.604589  0  2.204276  0  0  -0.297821  -0.553364  0  2.218637  0
O  O66  1  0.91797002  0.31616857  0.25501809  1  0  -0.668393  0  2.005294  0  0  -0.601856  0  2.248316  0  0  -0.632028  0  2.23998  0  0  -0.29492  -0.580457  0  2.253302  0
O  O67  1  0.08203863  0.68382636  0.74498554  1  0  -0.668342  0  2.005265  0  0  -0.601804  0  2.248364  0  0  -0.631972  0  2.240024  0  0  -0.294897  -0.580407  0  2.253354  0
O  O68  1  0.55304456  0.09734336  0.91354803  1  0  -0.33919  0  1.801451  0  0  -0.328552  0  2.01289  0  0  -0.33948  0  2.011068  0  0  -0.117251  -0.320277  0  2.01425  0
O  O69  1  0.44696573  0.90265249  0.08645324  1  0  -0.33918  0  1.801462  0  0  -0.328507  0  2.012917  0  0  -0.339419  0  2.011078  0  0  -0.117274  -0.320232  0  2.014275  0
O  O70  1  0.90958743  0.15462033  0.82374747  1  0  -0.343467  0  1.79562  0  0  -0.326703  0  2.000218  0  0  -0.338949  0  2.000562  0  0  -0.11917  -0.317491  0  1.999989  0
O  O71  1  0.09040728  0.84538827  0.17624816  1  0  -0.343543  0  1.795587  0  0  -0.326789  0  2.00022  0  0  -0.339033  0  2.000566  0  0  -0.119211  -0.317577  0  1.99999  0
O  O72  1  0.25848219  0.40333499  0.97750477  1  0  -0.531597  0  2.133106  0  0  -0.471437  0  2.345659  0  0  -0.4928  0  2.337081  0  0  -0.338115  -0.456286  0  2.35132  0
O  O73  1  0.74152693  0.59666360  0.02249431  1  0  -0.531664  0  2.133178  0  0  -0.471462  0  2.345702  0  0  -0.492829  0  2.33713  0  0  -0.338115  -0.456311  0  2.351361  0
O  O74  1  0.52756461  0.55989191  0.21378032  1  0  -0.819866  0  1.861957  0  0  -0.755251  0  2.060377  0  0  -0.779871  0  2.030973  0  0  -0.554984  -0.737781  0  2.080863  0
O  O75  1  0.47243359  0.44010849  0.78621912  1  0  -0.819901  0  1.861933  0  0  -0.755269  0  2.060308  0  0  -0.779888  0  2.03091  0  0  -0.554997  -0.737797  0  2.080794  0
