# generated using pymatgen
data_ZnMo4H24C36N12O13
_symmetry_space_group_name_H-M   'P 1'
_cell_length_a   8.10192629
_cell_length_b   8.92216006
_cell_length_c   13.66764012
_cell_angle_alpha   80.05296240
_cell_angle_beta   84.44479021
_cell_angle_gamma   80.69085352
_symmetry_Int_Tables_number   1
_chemical_formula_structural   ZnMo4H24C36N12O13
_chemical_formula_sum   'Zn1 Mo4 H24 C36 N12 O13'
_cell_volume   957.90740513
_cell_formula_units_Z   1
loop_
 _symmetry_equiv_pos_site_id
 _symmetry_equiv_pos_as_xyz
  1  'x, y, z'
loop_
 _atom_site_type_symbol
 _atom_site_label
 _atom_site_symmetry_multiplicity
 _atom_site_fract_x
 _atom_site_fract_y
 _atom_site_fract_z
 _atom_site_occupancy
 _atom_site_hle17_bader_spin_density
 _atom_site_hle17_ddec_charge
 _atom_site_hle17_ddec_spin_density
 _atom_site_hle17_ddec_sum_bond_order
 _atom_site_hle17_magmom
 _atom_site_hse06_10hf_bader_spin_density
 _atom_site_hse06_10hf_ddec_charge
 _atom_site_hse06_10hf_ddec_spin_density
 _atom_site_hse06_10hf_ddec_sum_bond_order
 _atom_site_hse06_10hf_magmom
 _atom_site_hse06_bader_spin_density
 _atom_site_hse06_ddec_charge
 _atom_site_hse06_ddec_spin_density
 _atom_site_hse06_ddec_sum_bond_order
 _atom_site_hse06_magmom
 _atom_site_pbe_bader_spin_density
 _atom_site_pbe_cm5_charge
 _atom_site_pbe_ddec_charge
 _atom_site_pbe_ddec_spin_density
 _atom_site_pbe_ddec_sum_bond_order
 _atom_site_pbe_magmom
Zn  Zn0  1  0.49999887  0.00000062  0.49999973  1  0  1.17617  0  1.756364  0  0  1.037071  0  2.192553  0  0  1.086409  0  2.131367  0  0  0.691059  1.004746  0  2.229704  0
Mo  Mo1  1  0.15368264  0.31825939  0.42370795  1  0  2.205828  0  4.125993  0  0  2.186134  0  4.72286  0  0  2.291484  0  4.678339  0  0  1.539205  2.111773  0  4.756922  0
Mo  Mo2  1  0.84631696  0.68174264  0.57629294  1  0  2.205758  0  4.125938  0  0  2.186053  0  4.722827  0  0  2.291409  0  4.678295  0  0  1.539145  2.11169  0  4.756873  0
Mo  Mo3  1  0.30713830  0.62084763  0.55179366  1  0  2.239614  0  4.071977  0  0  2.239869  0  4.60585  0  0  2.343233  0  4.56974  0  0  1.562915  2.170408  0  4.631159  0
Mo  Mo4  1  0.69286149  0.37915324  0.44820661  1  0  2.239621  0  4.072056  0  0  2.239879  0  4.605925  0  0  2.343242  0  4.569819  0  0  1.562889  2.170412  0  4.631248  0
H  H5  1  0.34260860  0.25993388  0.60058658  1  0  0.072408  0  1.008764  0  0  0.077418  0  1.081692  0  0  0.079962  0  1.079429  0  0  0.109782  0.075552  0  1.083438  0
H  H6  1  0.65738785  0.74006467  0.39941342  1  0  0.072391  0  1.008762  0  0  0.077429  0  1.081678  0  0  0.079953  0  1.079436  0  0  0.109782  0.075561  0  1.083428  0
H  H7  1  0.19310179  0.30688941  0.76225810  1  0  0.127033  0  0.945683  0  0  0.133857  0  1.008164  0  0  0.137916  0  1.005562  0  0  0.115601  0.13102  0  1.01  0
H  H8  1  0.80689695  0.69311031  0.23774237  1  0  0.127027  0  0.945696  0  0  0.13389  0  1.008129  0  0  0.13795  0  1.005525  0  0  0.115611  0.131051  0  1.009966  0
H  H9  1  0.40645690  0.84775163  0.88902512  1  0  0.123077  0  0.960972  0  0  0.123166  0  1.037982  0  0  0.127318  0  1.035434  0  0  0.111602  0.120328  0  1.039664  0
H  H10  1  0.59354307  0.15224809  0.11097454  1  0  0.123082  0  0.960979  0  0  0.123166  0  1.037992  0  0  0.127317  0  1.035442  0  0  0.111598  0.120328  0  1.039674  0
H  H11  1  0.53026684  0.81118877  0.71639853  1  0  0.084231  0  0.960835  0  0  0.09101  0  1.029806  0  0  0.09352  0  1.027459  0  0  0.116824  0.089225  0  1.031315  0
H  H12  1  0.46973190  0.18881094  0.28360047  1  0  0.084234  0  0.960827  0  0  0.091015  0  1.029795  0  0  0.093526  0  1.027448  0  0  0.116828  0.08923  0  1.031303  0
H  H13  1  0.00508680  0.08453733  0.28399913  1  0  0.120732  0  0.947798  0  0  0.12649  0  1.013317  0  0  0.131018  0  1.010354  0  0  0.112807  0.123791  0  1.014201  0
H  H14  1  0.99491404  0.91546469  0.71600021  1  0  0.120743  0  0.947774  0  0  0.126491  0  1.013298  0  0  0.131014  0  1.010341  0  0  0.112802  0.123792  0  1.014182  0
H  H15  1  0.06952410  0.91264548  0.44417243  1  0  0.084181  0  0.954545  0  0  0.09297  0  1.017328  0  0  0.095913  0  1.014398  0  0  0.114575  0.090749  0  1.019714  0
H  H16  1  0.93047673  0.08735654  0.55582546  1  0  0.084191  0  0.954488  0  0  0.092952  0  1.017307  0  0  0.095892  0  1.014382  0  0  0.114579  0.090734  0  1.01969  0
H  H17  1  0.40274938  0.60424716  0.30089741  1  0  0.085741  0  0.95783  0  0  0.092588  0  1.025501  0  0  0.095645  0  1.022216  0  0  0.115237  0.090775  0  1.02696  0
H  H18  1  0.59725145  0.39575486  0.69910194  1  0  0.085717  0  0.957853  0  0  0.092578  0  1.025512  0  0  0.095636  0  1.022226  0  0  0.115231  0.090765  0  1.026973  0
H  H19  1  0.35927123  0.76977420  0.13347000  1  0  0.120877  0  0.963704  0  0  0.120916  0  1.041381  0  0  0.125479  0  1.038254  0  0  0.111375  0.117855  0  1.04334  0
H  H20  1  0.64072875  0.23022551  0.86652893  1  0  0.120848  0  0.963654  0  0  0.120897  0  1.041323  0  0  0.125459  0  1.038198  0  0  0.111369  0.117836  0  1.043281  0
H  H21  1  0.79395971  0.34883498  0.17527095  1  0  0.116987  0  0.954507  0  0  0.124795  0  1.017428  0  0  0.128749  0  1.014869  0  0  0.108839  0.122038  0  1.018978  0
H  H22  1  0.20604170  0.65116360  0.82473022  1  0  0.11702  0  0.954488  0  0  0.124829  0  1.017407  0  0  0.128782  0  1.014849  0  0  0.108857  0.122072  0  1.018957  0
H  H23  1  0.57188213  0.57466166  0.16770264  1  0  0.067603  0  0.968005  0  0  0.078872  0  1.030824  0  0  0.080681  0  1.029654  0  0  0.107113  0.077398  0  1.031919  0
H  H24  1  0.42812195  0.42533578  0.83229850  1  0  0.06764  0  0.967951  0  0  0.078899  0  1.030789  0  0  0.080711  0  1.029621  0  0  0.107106  0.077425  0  1.031884  0
H  H25  1  0.65312489  0.68181829  0.86082330  1  0  0.069539  0  0.956444  0  0  0.081178  0  1.017725  0  0  0.083211  0  1.016476  0  0  0.105954  0.079534  0  1.018836  0
H  H26  1  0.34687614  0.31818260  0.13917909  1  0  0.069543  0  0.956516  0  0  0.081184  0  1.017792  0  0  0.083217  0  1.016544  0  0  0.105969  0.079539  0  1.018903  0
H  H27  1  0.87518157  0.45809313  0.85537746  1  0  0.119395  0  0.952388  0  0  0.127435  0  1.015277  0  0  0.131398  0  1.012783  0  0  0.107716  0.124491  0  1.017189  0
H  H28  1  0.12481717  0.54190659  0.14462374  1  0  0.119407  0  0.952381  0  0  0.127478  0  1.015233  0  0  0.131442  0  1.012737  0  0  0.107723  0.124532  0  1.017151  0
C  C29  1  0.34956848  0.16952826  0.66497035  1  0  0.125788  0  3.71533  0  0  0.096362  0  3.963255  0  0  0.101921  0  3.982954  0  0  0.042617  0.092111  0  3.950521  0
C  C30  1  0.65042921  0.83047029  0.33502884  1  0  0.125788  0  3.7154  0  0  0.09632  0  3.963368  0  0  0.101895  0  3.983079  0  0  0.042571  0.092069  0  3.950634  0
C  C31  1  0.26789231  0.19601738  0.75561903  1  0  -0.123809  0  3.682178  0  0  -0.144945  0  3.931616  0  0  -0.151328  0  3.952717  0  0  -0.072674  -0.140864  0  3.917412  0
C  C32  1  0.73210623  0.80398348  0.24438058  1  0  -0.123791  0  3.682306  0  0  -0.144965  0  3.931736  0  0  -0.151344  0  3.95283  0  0  -0.072658  -0.140883  0  3.917531  0
C  C33  1  0.28514165  0.07894736  0.83797228  1  0  0.044367  0  3.713556  0  0  0.05355  0  3.946873  0  0  0.054314  0  3.967684  0  0  0.017499  0.053695  0  3.932693  0
C  C34  1  0.71485813  0.92105351  0.16202800  1  0  0.044345  0  3.713605  0  0  0.053569  0  3.946858  0  0  0.05433  0  3.967667  0  0  0.017505  0.053713  0  3.932676  0
C  C35  1  0.38660909  0.93967264  0.82556356  1  0  -0.119958  0  3.645191  0  0  -0.140756  0  3.898028  0  0  -0.146787  0  3.918512  0  0  -0.069057  -0.136756  0  3.883728  0
C  C36  1  0.61339070  0.06032824  0.17443671  1  0  -0.119984  0  3.64522  0  0  -0.140783  0  3.898031  0  0  -0.146819  0  3.918532  0  0  -0.069054  -0.136782  0  3.883731  0
C  C37  1  0.45719244  0.92004001  0.73057202  1  0  0.132245  0  3.661914  0  0  0.103181  0  3.909509  0  0  0.109041  0  3.928847  0  0  0.049964  0.099357  0  3.896082  0
C  C38  1  0.54280754  0.07995971  0.26942764  1  0  0.132267  0  3.661933  0  0  0.103207  0  3.909532  0  0  0.109066  0  3.928867  0  0  0.049979  0.099385  0  3.896103  0
C  C39  1  0.19333971  0.10568407  0.93399660  1  0  0.405183  0  3.749155  0  0  0.386233  0  4.011588  0  0  0.403601  0  4.021421  0  0  0.263926  0.373993  0  4.005125  0
C  C40  1  0.80665922  0.89431450  0.06600325  1  0  0.405152  0  3.749074  0  0  0.386198  0  4.011502  0  0  0.403567  0  4.021334  0  0  0.26386  0.373959  0  4.005039  0
C  C41  1  0.14314255  0.04188031  0.10063429  1  0  0.404053  0  3.743158  0  0  0.384774  0  4.004088  0  0  0.401766  0  4.014536  0  0  0.262229  0.373498  0  3.996845  0
C  C42  1  0.85685514  0.95811825  0.89936563  1  0  0.404084  0  3.743152  0  0  0.384793  0  4.004093  0  0  0.401784  0  4.014542  0  0  0.262243  0.373517  0  3.996849  0
C  C43  1  0.98804609  0.25142387  0.01645904  1  0  0.411139  0  3.760607  0  0  0.3924  0  4.019491  0  0  0.409916  0  4.030593  0  0  0.264355  0.379696  0  4.013275  0
C  C44  1  0.01195370  0.74857700  0.98354050  1  0  0.411158  0  3.760357  0  0  0.392408  0  4.01927  0  0  0.409929  0  4.030363  0  0  0.264345  0.379705  0  4.013052  0
C  C45  1  0.17756849  0.93960382  0.19624853  1  0  0.036187  0  3.725895  0  0  0.04855  0  3.956137  0  0  0.049704  0  3.976797  0  0  0.012911  0.047818  0  3.942193  0
C  C46  1  0.82242901  0.06039589  0.80375054  1  0  0.036211  0  3.725921  0  0  0.048583  0  3.956149  0  0  0.049734  0  3.976809  0  0  0.012924  0.047849  0  3.942205  0
C  C47  1  0.09412914  0.97904552  0.28491390  1  0  -0.127911  0  3.687883  0  0  -0.150449  0  3.93897  0  0  -0.15671  0  3.958887  0  0  -0.07528  -0.145773  0  3.92383  0
C  C48  1  0.90587065  0.02095535  0.71508564  1  0  -0.127962  0  3.687913  0  0  -0.150485  0  3.938988  0  0  -0.156742  0  3.958901  0  0  -0.075285  -0.145809  0  3.923849  0
C  C49  1  0.12886942  0.88294078  0.37385536  1  0  0.138031  0  3.703933  0  0  0.11203  0  3.961098  0  0  0.118875  0  3.978237  0  0  0.042547  0.107615  0  3.949533  0
C  C50  1  0.87112932  0.11705893  0.62614364  1  0  0.138077  0  3.703867  0  0  0.112093  0  3.961026  0  0  0.118943  0  3.978161  0  0  0.04256  0.107677  0  3.94946  0
C  C51  1  0.31630784  0.71193546  0.29389095  1  0  0.13653  0  3.684499  0  0  0.111882  0  3.941427  0  0  0.118945  0  3.958294  0  0  0.047688  0.107457  0  3.928869  0
C  C52  1  0.68369195  0.28806541  0.70610859  1  0  0.136564  0  3.684538  0  0  0.1119  0  3.941471  0  0  0.118962  0  3.958341  0  0  0.047687  0.107474  0  3.928913  0
C  C53  1  0.29166780  0.80313772  0.20121981  1  0  -0.118158  0  3.644229  0  0  -0.13783  0  3.892433  0  0  -0.143675  0  3.912172  0  0  -0.071026  -0.134343  0  3.879054  0
C  C54  1  0.70833094  0.19686199  0.79877919  1  0  -0.118132  0  3.644199  0  0  -0.137809  0  3.892414  0  0  -0.143654  0  3.912157  0  0  -0.071021  -0.134322  0  3.879035  0
C  C55  1  0.76450529  0.41845531  0.10390937  1  0  -0.120771  0  3.677692  0  0  -0.141869  0  3.923404  0  0  -0.146794  0  3.943478  0  0  -0.076688  -0.138035  0  3.90962  0
C  C56  1  0.23549717  0.58154442  0.89609161  1  0  -0.120797  0  3.677648  0  0  -0.141911  0  3.923372  0  0  -0.146833  0  3.943442  0  0  -0.076708  -0.138077  0  3.909592  0
C  C57  1  0.64017379  0.54643455  0.09907096  1  0  0.114369  0  3.736011  0  0  0.092228  0  3.993563  0  0  0.096328  0  4.012379  0  0  0.038107  0.089114  0  3.981119  0
C  C58  1  0.35982886  0.45356403  0.90093087  1  0  0.11437  0  3.735998  0  0  0.092223  0  3.993551  0  0  0.096318  0  4.012373  0  0  0.038141  0.089109  0  3.981107  0
C  C59  1  0.68464681  0.60538285  0.92988165  1  0  0.111952  0  3.732976  0  0  0.08963  0  3.991182  0  0  0.093637  0  4.010111  0  0  0.035925  0.086807  0  3.978621  0
C  C60  1  0.31535422  0.39461803  0.07012001  1  0  0.111972  0  3.73305  0  0  0.089641  0  3.991255  0  0  0.093647  0  4.01018  0  0  0.035916  0.086819  0  3.978692  0
C  C61  1  0.81015721  0.47934227  0.92617156  1  0  -0.119845  0  3.675272  0  0  -0.142231  0  3.922381  0  0  -0.147295  0  3.943111  0  0  -0.077482  -0.138647  0  3.908497  0
C  C62  1  0.18984277  0.52065746  0.07383029  1  0  -0.119849  0  3.675363  0  0  -0.142248  0  3.922413  0  0  -0.147324  0  3.943175  0  0  -0.077493  -0.138663  0  3.908525  0
C  C63  1  0.85210271  0.38352078  0.01539951  1  0  0.016991  0  3.751768  0  0  0.029787  0  3.983293  0  0  0.028754  0  4.005562  0  0  0.006709  0.029999  0  3.968971  0
C  C64  1  0.14789765  0.61647664  0.98460112  1  0  0.017004  0  3.751632  0  0  0.029821  0  3.983138  0  0  0.028785  0  4.005408  0  0  0.006751  0.030033  0  3.968815  0
N  N65  1  0.43809430  0.03279892  0.65102141  1  0  -0.321695  0  3.247768  0  0  -0.238692  0  3.497184  0  0  -0.2575  0  3.514393  0  0  -0.315869  -0.226428  0  3.485733  0
N  N66  1  0.56190568  0.96720080  0.34897825  1  0  -0.321692  0  3.247753  0  0  -0.238704  0  3.497206  0  0  -0.257512  0  3.514412  0  0  -0.315871  -0.22644  0  3.485753  0
N  N67  1  0.23343837  0.00757371  0.01734432  1  0  -0.418517  0  2.921041  0  0  -0.388454  0  3.183627  0  0  -0.404071  0  3.19296  0  0  -0.294146  -0.376925  0  3.176997  0
N  N68  1  0.76656056  0.99242486  0.98265553  1  0  -0.418548  0  2.921066  0  0  -0.388483  0  3.183655  0  0  -0.404098  0  3.192988  0  0  -0.294153  -0.376953  0  3.177026  0
N  N69  1  0.07115683  0.22745826  0.92944339  1  0  -0.439491  0  2.992889  0  0  -0.407661  0  3.255739  0  0  -0.425129  0  3.268649  0  0  -0.296346  -0.395111  0  3.246943  0
N  N70  1  0.92884439  0.77254146  0.07055620  1  0  -0.439446  0  2.992704  0  0  -0.407644  0  3.255603  0  0  -0.425115  0  3.268513  0  0  -0.296316  -0.395094  0  3.246806  0
N  N71  1  0.02092276  0.16235037  0.10424322  1  0  -0.441674  0  2.978989  0  0  -0.407342  0  3.238984  0  0  -0.424853  0  3.250921  0  0  -0.297284  -0.395889  0  3.231333  0
N  N72  1  0.97907492  0.83764819  0.89575671  1  0  -0.44169  0  2.978961  0  0  -0.40735  0  3.238962  0  0  -0.424862  0  3.250898  0  0  -0.297265  -0.395898  0  3.231312  0
N  N73  1  0.23711322  0.75062008  0.37928348  1  0  -0.361708  0  3.232071  0  0  -0.316065  0  3.50147  0  0  -0.334401  0  3.523299  0  0  -0.328876  -0.303531  0  3.486557  0
N  N74  1  0.76288781  0.24938079  0.62071526  1  0  -0.361782  0  3.232087  0  0  -0.316138  0  3.50149  0  0  -0.334475  0  3.523318  0  0  -0.328899  -0.303601  0  3.486576  0
N  N75  1  0.59967493  0.64061383  0.01428566  1  0  -0.312061  0  3.066959  0  0  -0.280216  0  3.34399  0  0  -0.290445  0  3.360848  0  0  -0.323562  -0.27347  0  3.333039  0
N  N76  1  0.40032649  0.35938475  0.98571624  1  0  -0.312143  0  3.066928  0  0  -0.280291  0  3.343972  0  0  -0.29052  0  3.360833  0  0  -0.323607  -0.273547  0  3.333027  0
O  O77  1  0.26785948  0.13654912  0.46295672  1  0  -0.832265  0  1.630244  0  0  -0.807327  0  1.942246  0  0  -0.842173  0  1.925704  0  0  -0.546169  -0.78277  0  1.952199  0
O  O78  1  0.73214012  0.86345290  0.53704270  1  0  -0.832246  0  1.630186  0  0  -0.807301  0  1.942186  0  0  -0.842149  0  1.925639  0  0  -0.54613  -0.782747  0  1.952139  0
O  O79  1  0.93230513  0.29065644  0.42840195  1  0  -0.918928  0  1.781103  0  0  -0.908345  0  2.086526  0  0  -0.950986  0  2.074932  0  0  -0.599123  -0.877943  0  2.093769  0
O  O80  1  0.06769589  0.70934443  0.57159825  1  0  -0.918922  0  1.781087  0  0  -0.908342  0  2.086517  0  0  -0.950985  0  2.074922  0  0  -0.599121  -0.877933  0  2.093745  0
O  O81  1  0.22355278  0.38287761  0.30320693  1  0  -0.728259  0  1.416038  0  0  -0.719837  0  1.671524  0  0  -0.748544  0  1.658894  0  0  -0.527844  -0.698925  0  1.678997  0
O  O82  1  0.77644700  0.61712326  0.69679334  1  0  -0.728221  0  1.416007  0  0  -0.719793  0  1.671496  0  0  -0.748504  0  1.658864  0  0  -0.527829  -0.698881  0  1.678965  0
O  O83  1  0.18836294  0.44927637  0.50311562  1  0  -0.91672  0  1.744727  0  0  -0.912507  0  2.059687  0  0  -0.952374  0  2.048423  0  0  -0.585809  -0.885219  0  2.068524  0
O  O84  1  0.81164038  0.55072567  0.49688431  1  0  -0.916675  0  1.744692  0  0  -0.912464  0  2.05966  0  0  -0.952329  0  2.04839  0  0  -0.585802  -0.885176  0  2.0685  0
O  O85  1  0.50000061  0.49999986  0.49999979  1  0  -0.920226  0  1.842413  0  0  -0.925152  0  2.167891  0  0  -0.971766  0  2.163421  0  0  -0.600912  -0.893666  0  2.171366  0
O  O86  1  0.31980604  0.54011551  0.67444942  1  0  -0.65336  0  1.453248  0  0  -0.647971  0  1.696518  0  0  -0.673471  0  1.687319  0  0  -0.493791  -0.631256  0  1.702849  0
O  O87  1  0.68019393  0.45988421  0.32555097  1  0  -0.65338  0  1.45329  0  0  -0.647996  0  1.69656  0  0  -0.673493  0  1.687363  0  0  -0.493784  -0.631276  0  1.70289  0
O  O88  1  0.39138078  0.79118465  0.54279474  1  0  -0.766938  0  1.637214  0  0  -0.760776  0  1.941408  0  0  -0.793109  0  1.928638  0  0  -0.518071  -0.739758  0  1.948882  0
O  O89  1  0.60862024  0.20881623  0.45720546  1  0  -0.766909  0  1.637209  0  0  -0.760745  0  1.941394  0  0  -0.793079  0  1.928628  0  0  -0.518045  -0.739728  0  1.948872  0
