# generated using pymatgen
data_HgP2H18Au2C30(ClF4)4
_symmetry_space_group_name_H-M   'P 1'
_cell_length_a   10.96936936
_cell_length_b   11.34840451
_cell_length_c   18.48891398
_cell_angle_alpha   72.17280217
_cell_angle_beta   72.73249897
_cell_angle_gamma   61.07619683
_symmetry_Int_Tables_number   1
_chemical_formula_structural   HgP2H18Au2C30(ClF4)4
_chemical_formula_sum   'Hg2 P4 H36 Au4 C60 Cl8 F32'
_cell_volume   1886.95636522
_cell_formula_units_Z   2
loop_
 _symmetry_equiv_pos_site_id
 _symmetry_equiv_pos_as_xyz
  1  'x, y, z'
loop_
 _atom_site_type_symbol
 _atom_site_label
 _atom_site_symmetry_multiplicity
 _atom_site_fract_x
 _atom_site_fract_y
 _atom_site_fract_z
 _atom_site_occupancy
 _atom_site_hle17_bader_spin_density
 _atom_site_hle17_ddec_charge
 _atom_site_hle17_ddec_spin_density
 _atom_site_hle17_ddec_sum_bond_order
 _atom_site_hle17_magmom
 _atom_site_hse06_10hf_bader_spin_density
 _atom_site_hse06_10hf_ddec_charge
 _atom_site_hse06_10hf_ddec_spin_density
 _atom_site_hse06_10hf_ddec_sum_bond_order
 _atom_site_hse06_10hf_magmom
 _atom_site_hse06_bader_spin_density
 _atom_site_hse06_ddec_charge
 _atom_site_hse06_ddec_spin_density
 _atom_site_hse06_ddec_sum_bond_order
 _atom_site_hse06_magmom
 _atom_site_pbe_bader_spin_density
 _atom_site_pbe_cm5_charge
 _atom_site_pbe_ddec_charge
 _atom_site_pbe_ddec_spin_density
 _atom_site_pbe_ddec_sum_bond_order
 _atom_site_pbe_magmom
Hg  Hg0  1  0.49999929  0.00000364  0.00000111  1  0  0.615958  0  2.088261  0  0  0.487174  0  2.559124  0  0  0.517713  0  2.533978  0  0  0.450679  0.464267  0  2.57891  0
Hg  Hg1  1  0.49999448  0.49999625  0.50000161  1  0  0.616044  0  2.090019  0  0  0.486783  0  2.562292  0  0  0.517701  0  2.536214  0  0  0.450783  0.463758  0  2.582289  0
P  P2  1  0.19936625  0.36945287  0.85463202  1  0  0.66247  0  3.883945  0  0  0.638551  0  4.377276  0  0  0.648893  0  4.375862  0  0  -0.017177  0.632233  0  4.37694  0
P  P3  1  0.42287210  0.13082048  0.64548315  1  0  0.663241  0  3.884554  0  0  0.639411  0  4.378213  0  0  0.649634  0  4.377011  0  0  -0.016779  0.633087  0  4.377919  0
P  P4  1  0.80063686  0.63054475  0.14536761  1  0  0.662406  0  3.884144  0  0  0.638514  0  4.37749  0  0  0.648857  0  4.37607  0  0  -0.017203  0.632194  0  4.377157  0
P  P5  1  0.57712751  0.86918433  0.35451694  1  0  0.663221  0  3.884496  0  0  0.639345  0  4.378209  0  0  0.649568  0  4.377002  0  0  -0.016801  0.633019  0  4.377913  0
H  H6  1  0.00512088  0.51188370  0.78374052  1  0  0.15573  0  0.946513  0  0  0.170395  0  1.008226  0  0  0.173106  0  1.007172  0  0  0.095784  0.168558  0  1.009229  0
H  H7  1  0.30001145  0.98841295  0.71611140  1  0  0.156361  0  0.945862  0  0  0.171475  0  1.007113  0  0  0.173946  0  1.006541  0  0  0.096593  0.169637  0  1.008102  0
H  H8  1  0.99488020  0.48811495  0.21625865  1  0  0.155687  0  0.946538  0  0  0.170358  0  1.008243  0  0  0.173066  0  1.00719  0  0  0.095773  0.168521  0  1.009249  0
H  H9  1  0.69999574  0.01159083  0.28388836  1  0  0.156342  0  0.946032  0  0  0.171474  0  1.007277  0  0  0.173945  0  1.006707  0  0  0.096577  0.169636  0  1.008268  0
H  H10  1  0.11991422  0.35614524  0.74908336  1  0  0.141567  0  0.966558  0  0  0.16212  0  1.022661  0  0  0.163711  0  1.0231  0  0  0.094474  0.161178  0  1.022069  0
H  H11  1  0.22419924  0.14397298  0.75089635  1  0  0.1417  0  0.966198  0  0  0.162322  0  1.02227  0  0  0.163878  0  1.022713  0  0  0.094448  0.1614  0  1.021657  0
H  H12  1  0.88008819  0.64385341  0.25091544  1  0  0.141565  0  0.966595  0  0  0.162121  0  1.022695  0  0  0.163713  0  1.023131  0  0  0.094494  0.161177  0  1.022101  0
H  H13  1  0.77580621  0.85602875  0.24910438  1  0  0.141724  0  0.966095  0  0  0.162312  0  1.022226  0  0  0.163869  0  1.022669  0  0  0.094461  0.161392  0  1.02161  0
H  H14  1  0.17310771  0.49147864  0.72354920  1  0  0.151978  0  0.955321  0  0  0.169101  0  1.018182  0  0  0.171262  0  1.017826  0  0  0.094023  0.167824  0  1.018079  0
H  H15  1  0.38720190  0.00855705  0.77649369  1  0  0.152138  0  0.955005  0  0  0.169608  0  1.017322  0  0  0.171419  0  1.017559  0  0  0.094291  0.168388  0  1.017145  0
H  H16  1  0.82689400  0.50852104  0.27644878  1  0  0.151965  0  0.955402  0  0  0.169101  0  1.018242  0  0  0.17125  0  1.017902  0  0  0.094033  0.167821  0  1.01814  0
H  H17  1  0.61280526  0.99144570  0.22350477  1  0  0.152095  0  0.955127  0  0  0.169616  0  1.017377  0  0  0.171428  0  1.017613  0  0  0.094299  0.168396  0  1.017201  0
H  H18  1  0.12810710  0.25502953  0.98140029  1  0  0.146692  0  0.952145  0  0  0.166539  0  1.009487  0  0  0.168452  0  1.009301  0  0  0.092362  0.165273  0  1.009601  0
H  H19  1  0.36434373  0.24556203  0.51865972  1  0  0.147344  0  0.951432  0  0  0.16727  0  1.008774  0  0  0.16925  0  1.00842  0  0  0.092448  0.166003  0  1.008904  0
H  H20  1  0.87189294  0.74497322  0.01859860  1  0  0.146741  0  0.952053  0  0  0.166518  0  1.009517  0  0  0.168431  0  1.009329  0  0  0.092359  0.165251  0  1.009628  0
H  H21  1  0.63564740  0.75444175  0.48133987  1  0  0.147333  0  0.951455  0  0  0.167287  0  1.008763  0  0  0.169264  0  1.008411  0  0  0.092473  0.166023  0  1.008889  0
H  H22  1  0.09269772  0.20989169  0.90831753  1  0  0.154186  0  0.950505  0  0  0.171986  0  1.007731  0  0  0.174266  0  1.007238  0  0  0.094932  0.170425  0  1.008096  0
H  H23  1  0.21050019  0.29071527  0.59163821  1  0  0.154934  0  0.950605  0  0  0.172597  0  1.008027  0  0  0.17494  0  1.007414  0  0  0.095051  0.171023  0  1.008403  0
H  H24  1  0.90730177  0.79011106  0.09168190  1  0  0.154263  0  0.95034  0  0  0.171941  0  1.007739  0  0  0.174219  0  1.007249  0  0  0.09492  0.170381  0  1.008104  0
H  H25  1  0.78949517  0.70928646  0.40836495  1  0  0.15496  0  0.950626  0  0  0.172609  0  1.008051  0  0  0.174948  0  1.007448  0  0  0.095066  0.171035  0  1.008426  0
H  H26  1  0.97908699  0.37334495  0.93519461  1  0  0.134532  0  0.989612  0  0  0.15023  0  1.055217  0  0  0.15161  0  1.056411  0  0  0.084886  0.149277  0  1.054484  0
H  H27  1  0.28721159  0.12741644  0.56464247  1  0  0.13446  0  0.989637  0  0  0.150228  0  1.055143  0  0  0.151674  0  1.056229  0  0  0.084564  0.149244  0  1.054447  0
H  H28  1  0.02091359  0.62665780  0.06480374  1  0  0.134507  0  0.989658  0  0  0.150235  0  1.055235  0  0  0.151615  0  1.056429  0  0  0.084898  0.149288  0  1.054498  0
H  H29  1  0.71278634  0.87258426  0.43536060  1  0  0.134515  0  0.989561  0  0  0.150263  0  1.055085  0  0  0.151708  0  1.056172  0  0  0.084567  0.149278  0  1.054391  0
H  H30  1  0.04359499  0.58574975  0.89571976  1  0  0.14864  0  0.936056  0  0  0.170891  0  0.986936  0  0  0.172632  0  0.987302  0  0  0.09624  0.169725  0  0.986836  0
H  H31  1  0.52487739  0.91450804  0.60430854  1  0  0.148523  0  0.934871  0  0  0.170901  0  0.985837  0  0  0.172582  0  0.986303  0  0  0.097213  0.169744  0  0.985733  0
H  H32  1  0.95640594  0.41424992  0.10427805  1  0  0.14866  0  0.936022  0  0  0.170906  0  0.986909  0  0  0.172644  0  0.987277  0  0  0.096252  0.16974  0  0.986811  0
H  H33  1  0.47511269  0.08549985  0.39569076  1  0  0.148507  0  0.93491  0  0  0.170897  0  0.985845  0  0  0.172574  0  0.986322  0  0  0.097202  0.169742  0  0.98574  0
H  H34  1  0.21288114  0.58029083  0.84637430  1  0  0.158018  0  0.959795  0  0  0.169706  0  1.027114  0  0  0.173256  0  1.024514  0  0  0.093985  0.167523  0  1.028481  0
H  H35  1  0.63914460  0.92013326  0.65369547  1  0  0.157559  0  0.961194  0  0  0.169248  0  1.028432  0  0  0.17243  0  1.026435  0  0  0.094327  0.167077  0  1.029815  0
H  H36  1  0.78711895  0.41971192  0.15362264  1  0  0.157987  0  0.959889  0  0  0.169647  0  1.027238  0  0  0.173193  0  1.024642  0  0  0.093979  0.167469  0  1.028593  0
H  H37  1  0.36085508  0.07986744  0.34630206  1  0  0.157603  0  0.961248  0  0  0.169295  0  1.028477  0  0  0.172477  0  1.026479  0  0  0.09433  0.167123  0  1.029863  0
H  H38  1  0.19349643  0.49102821  0.94370364  1  0  0.144921  0  0.963081  0  0  0.159855  0  1.028875  0  0  0.161946  0  1.028683  0  0  0.0905  0.158472  0  1.028927  0
H  H39  1  0.62776862  0.00946991  0.55642401  1  0  0.145555  0  0.962381  0  0  0.161006  0  1.027604  0  0  0.163148  0  1.027251  0  0  0.091284  0.159645  0  1.027649  0
H  H40  1  0.80650445  0.50897454  0.05629346  1  0  0.144897  0  0.963123  0  0  0.159839  0  1.02891  0  0  0.161925  0  1.028722  0  0  0.090473  0.158455  0  1.028963  0
H  H41  1  0.37223003  0.99053079  0.44357264  1  0  0.145578  0  0.962419  0  0  0.161026  0  1.027634  0  0  0.163166  0  1.027286  0  0  0.091275  0.159665  0  1.027679  0
Au  Au42  1  0.43674141  0.22200711  0.83716277  1  0  -0.040547  0  2.270274  0  0  -0.086718  0  2.765905  0  0  -0.081107  0  2.737066  0  0  0.229771  -0.089893  0  2.785902  0
Au  Au43  1  0.49558928  0.27788725  0.66307654  1  0  -0.039856  0  2.26948  0  0  -0.085816  0  2.764981  0  0  -0.080121  0  2.736004  0  0  0.2296  -0.088898  0  2.78482  0
Au  Au44  1  0.56326171  0.77798640  0.16283625  1  0  -0.040499  0  2.270278  0  0  -0.086729  0  2.765936  0  0  -0.081112  0  2.737081  0  0  0.229759  -0.089904  0  2.785928  0
Au  Au45  1  0.50441341  0.72211550  0.33692161  1  0  -0.039929  0  2.269621  0  0  -0.085813  0  2.764933  0  0  -0.080118  0  2.735958  0  0  0.229573  -0.088889  0  2.784781  0
C  C46  1  0.65350148  0.09767173  0.82436908  1  0  -0.336788  0  3.821175  0  0  -0.329552  0  4.147033  0  0  -0.341829  0  4.169867  0  0  -0.191063  -0.320494  0  4.130946  0
C  C47  1  0.57535804  0.40215223  0.67573232  1  0  -0.338007  0  3.822653  0  0  -0.331089  0  4.149138  0  0  -0.343021  0  4.170799  0  0  -0.193275  -0.321987  0  4.132972  0
C  C48  1  0.34649592  0.90231974  0.17563203  1  0  -0.33676  0  3.821172  0  0  -0.329549  0  4.147091  0  0  -0.341831  0  4.169927  0  0  -0.191015  -0.320485  0  4.130986  0
C  C49  1  0.42464599  0.59784847  0.32426944  1  0  -0.338119  0  3.822714  0  0  -0.331109  0  4.148936  0  0  -0.343048  0  4.170604  0  0  -0.193278  -0.322047  0  4.132881  0
C  C50  1  0.74355883  0.14284653  0.83481750  1  0  0.216137  0  3.849303  0  0  0.189456  0  4.145399  0  0  0.198788  0  4.158883  0  0  0.058368  0.18277  0  4.136639  0
C  C51  1  0.72111333  0.35702629  0.66526791  1  0  0.216865  0  3.85065  0  0  0.190022  0  4.146641  0  0  0.199379  0  4.160075  0  0  0.059159  0.183326  0  4.137881  0
C  C52  1  0.25643681  0.85715417  0.16518310  1  0  0.216047  0  3.849597  0  0  0.189485  0  4.145453  0  0  0.198819  0  4.158936  0  0  0.058343  0.182798  0  4.13669  0
C  C53  1  0.27889398  0.64297030  0.33473000  1  0  0.216377  0  3.851388  0  0  0.189949  0  4.146787  0  0  0.199308  0  4.160214  0  0  0.059111  0.18325  0  4.138011  0
C  C54  1  0.89062984  0.07197073  0.82081636  1  0  0.106111  0  3.815049  0  0  0.066775  0  4.126413  0  0  0.073999  0  4.133024  0  0  0.0657  0.061465  0  4.12285  0
C  C55  1  0.78317499  0.42809193  0.67917765  1  0  0.106631  0  3.814461  0  0  0.067874  0  4.125299  0  0  0.075241  0  4.131846  0  0  0.066169  0.062559  0  4.121728  0
C  C56  1  0.10936266  0.92803203  0.17918814  1  0  0.105874  0  3.815139  0  0  0.066687  0  4.12625  0  0  0.073919  0  4.132848  0  0  0.065587  0.061379  0  4.122685  0
C  C57  1  0.21683476  0.57190569  0.32082012  1  0  0.106715  0  3.814671  0  0  0.068002  0  4.125333  0  0  0.075376  0  4.131875  0  0  0.066192  0.062692  0  4.121752  0
C  C58  1  0.95308168  0.94778243  0.79576493  1  0  0.121622  0  3.853963  0  0  0.089043  0  4.16755  0  0  0.096337  0  4.176505  0  0  0.071958  0.083881  0  4.161712  0
C  C59  1  0.69618578  0.55237973  0.70409242  1  0  0.121115  0  3.854583  0  0  0.087774  0  4.168694  0  0  0.094819  0  4.178535  0  0  0.072616  0.082604  0  4.16286  0
C  C60  1  0.04692131  0.05222238  0.20423654  1  0  0.121744  0  3.853819  0  0  0.089148  0  4.167429  0  0  0.096446  0  4.176377  0  0  0.072092  0.083988  0  4.161593  0
C  C61  1  0.30382605  0.44761379  0.29590651  1  0  0.121123  0  3.854474  0  0  0.087751  0  4.168659  0  0  0.094794  0  4.178496  0  0  0.072656  0.082583  0  4.16282  0
C  C62  1  0.86695315  0.89778221  0.78538782  1  0  0.10829  0  3.814732  0  0  0.064535  0  4.131872  0  0  0.072811  0  4.137932  0  0  0.06599  0.05902  0  4.128774  0
C  C63  1  0.54961450  0.60228940  0.71452150  1  0  0.107516  0  3.815425  0  0  0.064832  0  4.131801  0  0  0.072325  0  4.137726  0  0  0.066316  0.059305  0  4.128716  0
C  C64  1  0.13305864  0.10221234  0.21461438  1  0  0.108187  0  3.814727  0  0  0.06441  0  4.131917  0  0  0.072676  0  4.137986  0  0  0.065932  0.058884  0  4.12884  0
C  C65  1  0.45039498  0.39770925  0.28547883  1  0  0.107648  0  3.815289  0  0  0.064868  0  4.131791  0  0  0.07236  0  4.137726  0  0  0.066293  0.059344  0  4.128701  0
C  C66  1  0.72048175  0.97347533  0.79937899  1  0  0.213156  0  3.858052  0  0  0.180749  0  4.164866  0  0  0.191062  0  4.175594  0  0  0.059364  0.173229  0  4.157904  0
C  C67  1  0.49298493  0.52636827  0.70066967  1  0  0.214055  0  3.857065  0  0  0.181206  0  4.163916  0  0  0.192658  0  4.174158  0  0  0.060143  0.17371  0  4.156908  0
C  C68  1  0.27952604  0.02651409  0.20062241  1  0  0.213188  0  3.85796  0  0  0.180796  0  4.164754  0  0  0.19111  0  4.175486  0  0  0.059391  0.173281  0  4.157796  0
C  C69  1  0.50702184  0.47363551  0.29932672  1  0  0.214233  0  3.856844  0  0  0.181314  0  4.16381  0  0  0.19275  0  4.174066  0  0  0.060278  0.173815  0  4.156788  0
C  C70  1  0.11625110  0.43895652  0.76956654  1  0  -0.5065  0  3.603501  0  0  -0.565455  0  3.838109  0  0  -0.571938  0  3.8456  0  0  -0.25113  -0.560478  0  3.832196  0
C  C71  1  0.32397639  0.06122809  0.73040043  1  0  -0.507398  0  3.602451  0  0  -0.567073  0  3.837223  0  0  -0.573825  0  3.845622  0  0  -0.251461  -0.562134  0  3.831245  0
C  C72  1  0.88375052  0.56104213  0.23043210  1  0  -0.506432  0  3.603672  0  0  -0.565382  0  3.838241  0  0  -0.571859  0  3.845744  0  0  -0.25112  -0.560403  0  3.832326  0
C  C73  1  0.67602860  0.93877466  0.26960019  1  0  -0.50736  0  3.602562  0  0  -0.567087  0  3.837365  0  0  -0.573839  0  3.845766  0  0  -0.251503  -0.562151  0  3.83139  0
C  C74  1  0.08888749  0.29492137  0.92668215  1  0  -0.52118  0  3.645385  0  0  -0.578613  0  3.880242  0  0  -0.585864  0  3.889816  0  0  -0.259388  -0.57333  0  3.873099  0
C  C75  1  0.31014006  0.20565557  0.57329485  1  0  -0.52215  0  3.644714  0  0  -0.58012  0  3.8796  0  0  -0.587421  0  3.889163  0  0  -0.259506  -0.574822  0  3.872486  0
C  C76  1  0.91111168  0.70508036  0.07331722  1  0  -0.521047  0  3.645182  0  0  -0.578562  0  3.880318  0  0  -0.585817  0  3.889905  0  0  -0.25939  -0.573285  0  3.873167  0
C  C77  1  0.68985951  0.79434513  0.42670660  1  0  -0.522124  0  3.644698  0  0  -0.580081  0  3.879598  0  0  -0.587382  0  3.889165  0  0  -0.259481  -0.574787  0  3.872481  0
C  C78  1  0.15847094  0.52144016  0.88840676  1  0  -0.509171  0  3.609417  0  0  -0.567282  0  3.846701  0  0  -0.574158  0  3.854409  0  0  -0.252136  -0.562163  0  3.840519  0
C  C79  1  0.56788033  0.97894006  0.61168500  1  0  -0.510054  0  3.610132  0  0  -0.568553  0  3.847334  0  0  -0.575537  0  3.85559  0  0  -0.254494  -0.563448  0  3.841041  0
C  C80  1  0.84153007  0.47856054  0.11159040  1  0  -0.509164  0  3.609422  0  0  -0.567226  0  3.846684  0  0  -0.574097  0  3.854401  0  0  -0.25212  -0.562108  0  3.840504  0
C  C81  1  0.43211689  0.02106372  0.38831327  1  0  -0.510139  0  3.610314  0  0  -0.568651  0  3.84754  0  0  -0.575634  0  3.855789  0  0  -0.254501  -0.563546  0  3.84125  0
C  C82  1  0.52200427  0.14573848  0.03552412  1  0  -0.413832  0  3.778007  0  0  -0.401816  0  4.106546  0  0  -0.419172  0  4.129345  0  0  -0.16981  -0.389791  0  4.091553  0
C  C83  1  0.70307693  0.35404155  0.46446074  1  0  -0.415339  0  3.778597  0  0  -0.403461  0  4.108513  0  0  -0.420369  0  4.130032  0  0  -0.171547  -0.391461  0  4.093575  0
C  C84  1  0.47799901  0.85426120  0.96447420  1  0  -0.413847  0  3.778119  0  0  -0.401776  0  4.106257  0  0  -0.419134  0  4.12909  0  0  -0.169795  -0.389747  0  4.091254  0
C  C85  1  0.29691522  0.64595505  0.53554180  1  0  -0.415115  0  3.778539  0  0  -0.403188  0  4.108338  0  0  -0.420126  0  4.129952  0  0  -0.171477  -0.391187  0  4.093397  0
C  C86  1  0.40790070  0.26325653  0.05716124  1  0  0.296735  0  3.832019  0  0  0.264959  0  4.129677  0  0  0.279217  0  4.140227  0  0  0.076696  0.25466  0  4.123152  0
C  C87  1  0.72824510  0.23665778  0.44268325  1  0  0.30111  0  3.829944  0  0  0.268251  0  4.128692  0  0  0.2833  0  4.138128  0  0  0.079687  0.25796  0  4.122175  0
C  C88  1  0.59209525  0.73674418  0.94284667  1  0  0.296753  0  3.832044  0  0  0.265012  0  4.129624  0  0  0.279249  0  4.140194  0  0  0.076729  0.254719  0  4.123089  0
C  C89  1  0.27174654  0.76333985  0.55732114  1  0  0.30111  0  3.830145  0  0  0.2682  0  4.128887  0  0  0.283239  0  4.138306  0  0  0.079693  0.257912  0  4.122371  0
C  C90  1  0.42209905  0.36342206  0.07836369  1  0  -0.074222  0  3.818979  0  0  -0.087224  0  4.117259  0  0  -0.089077  0  4.1336  0  0  -0.015125  -0.086148  0  4.106371  0
C  C91  1  0.86396424  0.13642543  0.42156589  1  0  -0.076245  0  3.815962  0  0  -0.088448  0  4.114312  0  0  -0.08998  0  4.129759  0  0  -0.016055  -0.087446  0  4.103543  0
C  C92  1  0.57789815  0.63657556  0.92163992  1  0  -0.074206  0  3.818746  0  0  -0.087281  0  4.117065  0  0  -0.089126  0  4.133408  0  0  -0.015139  -0.086206  0  4.106171  0
C  C93  1  0.13603137  0.86357425  0.57843340  1  0  -0.076236  0  3.81607  0  0  -0.088285  0  4.114228  0  0  -0.089807  0  4.129669  0  0  -0.016029  -0.087295  0  4.103473  0
C  C94  1  0.55906713  0.34239356  0.07768539  1  0  0.236579  0  3.797822  0  0  0.200273  0  4.103885  0  0  0.212016  0  4.113798  0  0  0.089621  0.192346  0  4.097154  0
C  C95  1  0.97921470  0.15738964  0.42233914  1  0  0.236929  0  3.796341  0  0  0.199674  0  4.102671  0  0  0.211589  0  4.112153  0  0  0.089174  0.191797  0  4.095927  0
C  C96  1  0.44093162  0.65760612  0.92231458  1  0  0.236827  0  3.797607  0  0  0.200409  0  4.103817  0  0  0.21215  0  4.113732  0  0  0.089642  0.192485  0  4.097092  0
C  C97  1  0.02077803  0.84261107  0.57766149  1  0  0.236969  0  3.796281  0  0  0.199704  0  4.102553  0  0  0.211623  0  4.112024  0  0  0.08925  0.191831  0  4.095808  0
C  C98  1  0.67814817  0.22576538  0.05637387  1  0  -0.080349  0  3.837873  0  0  -0.090939  0  4.132226  0  0  -0.092837  0  4.149005  0  0  -0.016756  -0.090226  0  4.121609  0
C  C99  1  0.96019324  0.27405260  0.44365344  1  0  -0.079431  0  3.838509  0  0  -0.089192  0  4.131885  0  0  -0.091001  0  4.148574  0  0  -0.016475  -0.088561  0  4.121346  0
C  C100  1  0.32184510  0.77423737  0.94362225  1  0  -0.080396  0  3.838269  0  0  -0.090963  0  4.132365  0  0  -0.092859  0  4.149142  0  0  -0.016776  -0.090266  0  4.121764  0
C  C101  1  0.03979819  0.72595118  0.55634489  1  0  -0.079561  0  3.838784  0  0  -0.089296  0  4.132083  0  0  -0.091111  0  4.148775  0  0  -0.016518  -0.088662  0  4.121537  0
C  C102  1  0.65503337  0.13065222  0.03568774  1  0  0.297041  0  3.836087  0  0  0.268618  0  4.124953  0  0  0.28255  0  4.136239  0  0  0.079211  0.259028  0  4.117583  0
C  C103  1  0.82119164  0.36909657  0.46436238  1  0  0.295921  0  3.833479  0  0  0.267321  0  4.122033  0  0  0.281255  0  4.133411  0  0  0.077958  0.25777  0  4.114683  0
C  C104  1  0.34496029  0.86935156  0.96430647  1  0  0.296189  0  3.837006  0  0  0.268475  0  4.124858  0  0  0.282406  0  4.136139  0  0  0.079178  0.258889  0  4.117489  0
C  C105  1  0.17879540  0.63090311  0.53564164  1  0  0.295623  0  3.833803  0  0  0.267068  0  4.122246  0  0  0.281003  0  4.133613  0  0  0.07786  0.257517  0  4.114893  0
Cl  Cl106  1  0.27870019  0.50891336  0.10255932  1  0  0.004655  0  1.484308  0  0  0.006212  0  1.740322  0  0  0.005894  0  1.732103  0  0  0.038983  0.006327  0  1.74664  0
Cl  Cl107  1  0.89038080  0.99088442  0.39738181  1  0  0.004426  0  1.484201  0  0  0.005946  0  1.740289  0  0  0.005769  0  1.731799  0  0  0.038427  0.006096  0  1.74662  0
Cl  Cl108  1  0.72129909  0.49108324  0.89744278  1  0  0.00464  0  1.484276  0  0  0.006199  0  1.7403  0  0  0.005881  0  1.732079  0  0  0.038975  0.006314  0  1.746616  0
Cl  Cl109  1  0.10961067  0.00911628  0.60261723  1  0  0.004532  0  1.484037  0  0  0.005832  0  1.740273  0  0  0.005652  0  1.731779  0  0  0.038358  0.005984  0  1.74661  0
Cl  Cl110  1  0.84585474  0.20202038  0.05249219  1  0  0.006876  0  1.461756  0  0  0.00757  0  1.712207  0  0  0.007056  0  1.704184  0  0  0.035707  0.00783  0  1.718545  0
Cl  Cl111  1  0.10023998  0.29785926  0.44752438  1  0  0.006829  0  1.461836  0  0  0.007154  0  1.712038  0  0  0.006668  0  1.703935  0  0  0.0359  0.007433  0  1.71841  0
Cl  Cl112  1  0.15414239  0.79798443  0.94750276  1  0  0.006835  0  1.462067  0  0  0.007605  0  1.712461  0  0  0.007091  0  1.704441  0  0  0.035737  0.007868  0  1.718802  0
Cl  Cl113  1  0.89974813  0.70214452  0.55247916  1  0  0.006991  0  1.461982  0  0  0.007286  0  1.712152  0  0  0.006803  0  1.704053  0  0  0.035987  0.007562  0  1.718521  0
F  F114  1  0.68819357  0.26380555  0.85913747  1  0  -0.192296  0  1.256545  0  0  -0.143601  0  1.434098  0  0  -0.153847  0  1.426911  0  0  -0.109951  -0.136161  0  1.439175  0
F  F115  1  0.81117078  0.23600883  0.64103582  1  0  -0.192154  0  1.256966  0  0  -0.143261  0  1.43434  0  0  -0.153495  0  1.427155  0  0  -0.109724  -0.135826  0  1.439416  0
F  F116  1  0.31179279  0.73619105  0.14086513  1  0  -0.192254  0  1.256541  0  0  -0.143631  0  1.434058  0  0  -0.153876  0  1.426868  0  0  -0.109963  -0.136191  0  1.439131  0
F  F117  1  0.18883360  0.76398674  0.35896081  1  0  -0.191867  0  1.257026  0  0  -0.143237  0  1.434338  0  0  -0.153468  0  1.42715  0  0  -0.109703  -0.135798  0  1.439414  0
F  F118  1  0.97350759  0.12242914  0.83028569  1  0  -0.160971  0  1.229534  0  0  -0.11212  0  1.390663  0  0  -0.119235  0  1.380233  0  0  -0.097147  -0.107206  0  1.398165  0
F  F119  1  0.92601200  0.37779426  0.66963058  1  0  -0.160922  0  1.228199  0  0  -0.11223  0  1.389033  0  0  -0.119702  0  1.378886  0  0  -0.097189  -0.107328  0  1.396543  0
F  F120  1  0.02648068  0.87757875  0.16972112  1  0  -0.160896  0  1.229665  0  0  -0.112074  0  1.39073  0  0  -0.1192  0  1.380303  0  0  -0.097082  -0.107159  0  1.398232  0
F  F121  1  0.07399369  0.62219823  0.33036836  1  0  -0.160961  0  1.228319  0  0  -0.112277  0  1.389078  0  0  -0.119756  0  1.378933  0  0  -0.097194  -0.107376  0  1.396587  0
F  F122  1  0.09525250  0.87705608  0.78054786  1  0  -0.155194  0  1.283628  0  0  -0.114538  0  1.461038  0  0  -0.122511  0  1.451383  0  0  -0.089457  -0.108554  0  1.467517  0
F  F123  1  0.75231694  0.62327649  0.71920325  1  0  -0.155248  0  1.283533  0  0  -0.114322  0  1.460927  0  0  -0.122453  0  1.451606  0  0  -0.090284  -0.108336  0  1.4674  0
F  F124  1  0.90475065  0.12295489  0.21945291  1  0  -0.155197  0  1.283608  0  0  -0.114553  0  1.461033  0  0  -0.12253  0  1.451379  0  0  -0.089483  -0.108568  0  1.467512  0
F  F125  1  0.24769448  0.37671292  0.28080025  1  0  -0.155227  0  1.283454  0  0  -0.114326  0  1.460856  0  0  -0.122459  0  1.451537  0  0  -0.090346  -0.108341  0  1.467331  0
F  F126  1  0.92763023  0.77704990  0.76094513  1  0  -0.155108  0  1.242195  0  0  -0.100005  0  1.403141  0  0  -0.111244  0  1.396911  0  0  -0.089574  -0.095043  0  1.410922  0
F  F127  1  0.46498089  0.72310257  0.73886798  1  0  -0.154657  0  1.241983  0  0  -0.099863  0  1.402617  0  0  -0.107441  0  1.392666  0  0  -0.089851  -0.094914  0  1.41041  0
F  F128  1  0.07238868  0.22294464  0.23905663  1  0  -0.15509  0  1.242128  0  0  -0.100014  0  1.403098  0  0  -0.111233  0  1.396861  0  0  -0.089616  -0.095045  0  1.410888  0
F  F129  1  0.53503162  0.27689403  0.26113237  1  0  -0.15479  0  1.241981  0  0  -0.099948  0  1.40262  0  0  -0.107527  0  1.392671  0  0  -0.08987  -0.094998  0  1.410415  0
F  F130  1  0.64217020  0.92014769  0.78640960  1  0  -0.190751  0  1.246191  0  0  -0.130879  0  1.411093  0  0  -0.140332  0  1.401876  0  0  -0.098439  -0.12389  0  1.417306  0
F  F131  1  0.34828651  0.57968751  0.71368651  1  0  -0.191359  0  1.245658  0  0  -0.130905  0  1.410272  0  0  -0.144822  0  1.405523  0  0  -0.098326  -0.123897  0  1.416449  0
F  F132  1  0.35784304  0.07983967  0.21359038  1  0  -0.190742  0  1.246257  0  0  -0.130856  0  1.411133  0  0  -0.140307  0  1.401919  0  0  -0.098421  -0.123863  0  1.417347  0
F  F133  1  0.65171756  0.42031730  0.28631388  1  0  -0.191353  0  1.245747  0  0  -0.130911  0  1.410386  0  0  -0.144782  0  1.405591  0  0  -0.098368  -0.123897  0  1.416562  0
F  F134  1  0.27413470  0.28409030  0.05741482  1  0  -0.207414  0  1.226797  0  0  -0.14801  0  1.391547  0  0  -0.158202  0  1.381923  0  0  -0.099943  -0.14087  0  1.398592  0
F  F135  1  0.61559493  0.21588710  0.44232612  1  0  -0.208289  0  1.22705  0  0  -0.14886  0  1.392474  0  0  -0.160667  0  1.384111  0  0  -0.100875  -0.141707  0  1.399506  0
F  F136  1  0.72586295  0.71590116  0.94259555  1  0  -0.207385  0  1.226749  0  0  -0.148014  0  1.39147  0  0  -0.158198  0  1.381851  0  0  -0.09995  -0.140878  0  1.398512  0
F  F137  1  0.38439732  0.78410847  0.55767974  1  0  -0.208334  0  1.227097  0  0  -0.148899  0  1.392532  0  0  -0.160688  0  1.384157  0  0  -0.100904  -0.141746  0  1.399565  0
F  F138  1  0.57616197  0.43802700  0.09717805  1  0  -0.170404  0  1.272742  0  0  -0.113759  0  1.441984  0  0  -0.124277  0  1.434554  0  0  -0.080457  -0.106005  0  1.446694  0
F  F139  1  0.11156126  0.06172735  0.40289087  1  0  -0.169963  0  1.2719  0  0  -0.113078  0  1.441375  0  0  -0.123481  0  1.43368  0  0  -0.079183  -0.105317  0  1.446076  0
F  F140  1  0.42383783  0.56197371  0.90282411  1  0  -0.170441  0  1.272798  0  0  -0.113795  0  1.44206  0  0  -0.124309  0  1.434634  0  0  -0.080462  -0.106039  0  1.446773  0
F  F141  1  0.88843350  0.93827438  0.59710624  1  0  -0.169981  0  1.271886  0  0  -0.113138  0  1.441409  0  0  -0.12354  0  1.433711  0  0  -0.079244  -0.105379  0  1.446109  0
F  F142  1  0.77092724  0.01826408  0.01325031  1  0  -0.19948  0  1.24771  0  0  -0.141208  0  1.415647  0  0  -0.152006  0  1.406761  0  0  -0.096722  -0.133542  0  1.421941  0
F  F143  1  0.80214296  0.48142576  0.48687411  1  0  -0.199812  0  1.247397  0  0  -0.140719  0  1.414737  0  0  -0.151546  0  1.405856  0  0  -0.095366  -0.133027  0  1.421012  0
F  F144  1  0.22907321  0.98175304  0.98673072  1  0  -0.198995  0  1.247941  0  0  -0.141137  0  1.415768  0  0  -0.151934  0  1.406883  0  0  -0.096689  -0.133472  0  1.422061  0
F  F145  1  0.19784866  0.51857392  0.51312630  1  0  -0.199775  0  1.247598  0  0  -0.140649  0  1.414862  0  0  -0.151474  0  1.40598  0  0  -0.095322  -0.132957  0  1.421135  0
