# generated using pymatgen
data_BiH23C29NO9
_symmetry_space_group_name_H-M   'P 1'
_cell_length_a   7.47158449
_cell_length_b   16.68239911
_cell_length_c   24.32045637
_cell_angle_alpha   90.00076525
_cell_angle_beta   89.99959033
_cell_angle_gamma   97.28494877
_symmetry_Int_Tables_number   1
_chemical_formula_structural   BiH23C29NO9
_chemical_formula_sum   'Bi4 H92 C116 N4 O36'
_cell_volume   3006.92776819
_cell_formula_units_Z   4
loop_
 _symmetry_equiv_pos_site_id
 _symmetry_equiv_pos_as_xyz
  1  'x, y, z'
loop_
 _atom_site_type_symbol
 _atom_site_label
 _atom_site_symmetry_multiplicity
 _atom_site_fract_x
 _atom_site_fract_y
 _atom_site_fract_z
 _atom_site_occupancy
 _atom_site_pbe_bader_charge
 _atom_site_pbe_bader_spin_density
 _atom_site_pbe_cm5_charge
 _atom_site_pbe_ddec_charge
 _atom_site_pbe_ddec_spin_density
 _atom_site_pbe_ddec_sum_bond_order
 _atom_site_pbe_magmom
Bi  Bi0  1  0.87925303  0.52222036  0.68980756  1  1.908446  0  0.892069  1.372969  0  2.534749  0
Bi  Bi1  1  0.62074840  0.97779120  0.18981316  1  1.908573  0  0.892137  1.373065  0  2.534895  0
Bi  Bi2  1  0.12075217  0.47778773  0.31018785  1  1.908473  0  0.892133  1.373055  0  2.534934  0
Bi  Bi3  1  0.37924366  0.02219392  0.81018349  1  1.908414  0  0.89221  1.373188  0  2.535112  0
H  H4  1  0.57946063  0.26860785  0.66055481  1  0.088528  0  0.105166  0.106762  0  1.010489  0
H  H5  1  0.92052979  0.23139509  0.16054884  1  0.088633  0  0.105126  0.106703  0  1.010632  0
H  H6  1  0.42053629  0.73138029  0.33944636  1  0.089203  0  0.105229  0.106765  0  1.0103  0
H  H7  1  0.07947653  0.76860272  0.83944534  1  0.088492  0  0.10512  0.10669  0  1.01045  0
H  H8  1  0.02871787  0.94821358  0.47184210  1  0.042904  0  0.098852  0.099261  0  1.023663  0
H  H9  1  0.47128058  0.55178637  0.97184274  1  0.042874  0  0.098861  0.099291  0  1.023602  0
H  H10  1  0.97128061  0.05178967  0.52815373  1  0.042852  0  0.098852  0.099198  0  1.023621  0
H  H11  1  0.52873813  0.44821266  0.02815761  1  0.042947  0  0.09889  0.099306  0  1.023616  0
H  H12  1  0.91764134  0.33047991  0.52008943  1  0.091131  0  0.107967  0.112585  0  1.001929  0
H  H13  1  0.58231351  0.16953251  0.02009844  1  0.090753  0  0.107965  0.112597  0  1.001872  0
H  H14  1  0.08232455  0.66953118  0.47991339  1  0.090782  0  0.107964  0.112585  0  1.001836  0
H  H15  1  0.41766290  0.83047314  0.97990643  1  0.090828  0  0.107953  0.112593  0  1.001992  0
H  H16  1  0.16512630  0.01089854  0.27557570  1  0.108927  0  0.108223  0.114258  0  1.00936  0
H  H17  1  0.33488361  0.48910181  0.77557408  1  0.10885  0  0.108206  0.114241  0  1.009408  0
H  H18  1  0.83487433  0.98909806  0.72442301  1  0.10882  0  0.108215  0.11425  0  1.009309  0
H  H19  1  0.66512522  0.51089540  0.22442627  1  0.108898  0  0.108206  0.114248  0  1.009342  0
H  H20  1  0.48233641  0.13356899  0.62160108  1  0.106943  0  0.097141  0.109516  0  1.047867  0
H  H21  1  0.01766723  0.36642974  0.12159766  1  0.107154  0  0.09717  0.109484  0  1.047815  0
H  H22  1  0.51766973  0.86642339  0.37839434  1  0.106961  0  0.097169  0.109554  0  1.047688  0
H  H23  1  0.98234810  0.63356204  0.87839406  1  0.106347  0  0.097096  0.109391  0  1.047809  0
H  H24  1  0.80805377  0.19757934  0.47737552  1  0.081397  0  0.098316  0.106318  0  1.027442  0
H  H25  1  0.69190668  0.30242397  0.97737702  1  0.080764  0  0.098335  0.106312  0  1.027417  0
H  H26  1  0.19193555  0.80243417  0.52262401  1  0.081205  0  0.098335  0.106259  0  1.027397  0
H  H27  1  0.30807122  0.69757745  0.02262539  1  0.081052  0  0.098292  0.106261  0  1.027529  0
H  H28  1  0.77940216  0.93617691  0.40293955  1  0.093466  0  0.100852  0.098832  0  1.035075  0
H  H29  1  0.72058167  0.56382769  0.90293592  1  0.093483  0  0.100874  0.09887  0  1.035075  0
H  H30  1  0.22060112  0.06381487  0.59705916  1  0.093337  0  0.100828  0.098801  0  1.035083  0
H  H31  1  0.27942051  0.43617919  0.09705909  1  0.093453  0  0.100861  0.098889  0  1.034922  0
H  H32  1  0.23951693  0.17595926  0.52309352  1  0.074814  0  0.102769  0.106355  0  1.00856  0
H  H33  1  0.26047778  0.32403765  0.02308917  1  0.075048  0  0.102796  0.10636  0  1.008566  0
H  H34  1  0.76047673  0.82405063  0.47690642  1  0.074738  0  0.102798  0.106347  0  1.008557  0
H  H35  1  0.73951763  0.67594989  0.97691282  1  0.074999  0  0.102841  0.106428  0  1.008603  0
H  H36  1  0.16866474  0.30608391  0.48491400  1  0.076815  0  0.109922  0.110663  0  1.011618  0
H  H37  1  0.33132596  0.19390820  0.98490803  1  0.076494  0  0.109985  0.110736  0  1.011526  0
H  H38  1  0.83133627  0.69392357  0.51508389  1  0.077293  0  0.109897  0.110667  0  1.011673  0
H  H39  1  0.66864048  0.80607630  0.01509150  1  0.07677  0  0.109912  0.110727  0  1.011451  0
H  H40  1  0.41298195  0.01948243  0.34326252  1  0.074764  0  0.099997  0.106165  0  1.026892  0
H  H41  1  0.08701969  0.48051312  0.84325931  1  0.074739  0  0.099988  0.106134  0  1.026855  0
H  H42  1  0.58700785  0.98052323  0.65673989  1  0.074731  0  0.099978  0.106126  0  1.026912  0
H  H43  1  0.91299551  0.51948772  0.15674186  1  0.074564  0  0.099941  0.106122  0  1.026847  0
H  H44  1  0.47980579  0.27033857  0.34052886  1  0.073511  0  0.103108  0.104625  0  1.022534  0
H  H45  1  0.02017264  0.22965511  0.84052432  1  0.073442  0  0.103083  0.104593  0  1.022769  0
H  H46  1  0.52019875  0.72967194  0.65946738  1  0.073687  0  0.103117  0.104573  0  1.022783  0
H  H47  1  0.97982466  0.77034391  0.15947233  1  0.0737  0  0.103067  0.104583  0  1.022636  0
H  H48  1  0.05767296  0.66872803  0.60009619  1  0.650012  0  0.317994  0.371926  0  0.937043  0
H  H49  1  0.44232461  0.83125722  0.10009397  1  0.650255  0  0.318086  0.372084  0  0.93689  0
H  H50  1  0.94233838  0.33126857  0.39990910  1  0.650088  0  0.318015  0.37199  0  0.936954  0
H  H51  1  0.55764572  0.16873635  0.89990474  1  0.649998  0  0.318007  0.371912  0  0.937118  0
H  H52  1  0.54956578  0.13916569  0.37821251  1  0.04555  0  0.097482  0.093661  0  1.033244  0
H  H53  1  0.95042069  0.36083159  0.87821110  1  0.045593  0  0.097528  0.093747  0  1.033251  0
H  H54  1  0.45042101  0.86084360  0.62178702  1  0.045254  0  0.09761  0.093823  0  1.033157  0
H  H55  1  0.04959770  0.63917107  0.12178802  1  0.045353  0  0.097568  0.093812  0  1.033255  0
H  H56  1  0.94495748  0.85035450  0.64498830  1  0.096743  0  0.107738  0.171252  0  0.991578  0
H  H57  1  0.55506161  0.64964476  0.14499348  1  0.09733  0  0.10774  0.17125  0  0.991724  0
H  H58  1  0.05504316  0.14964210  0.35501041  1  0.096742  0  0.107738  0.171267  0  0.99164  0
H  H59  1  0.44495194  0.35035971  0.85500687  1  0.096949  0  0.107717  0.171248  0  0.991658  0
H  H60  1  0.18150169  0.87005628  0.64342799  1  0.045001  0  0.10126  0.157605  0  1.003516  0
H  H61  1  0.31850983  0.62992977  0.14344928  1  0.045241  0  0.101277  0.157667  0  1.003585  0
H  H62  1  0.81850079  0.12994213  0.35656496  1  0.045181  0  0.101259  0.1576  0  1.003461  0
H  H63  1  0.68151454  0.37006080  0.85655766  1  0.045157  0  0.101298  0.157694  0  1.003487  0
H  H64  1  0.06570807  0.85349014  0.70813735  1  0.098696  0  0.10142  0.161349  0  1.01777  0
H  H65  1  0.43434824  0.64652251  0.20815401  1  0.098161  0  0.101532  0.161547  0  1.01765  0
H  H66  1  0.93430835  0.14651977  0.29186094  1  0.09859  0  0.101446  0.161436  0  1.017806  0
H  H67  1  0.56568420  0.35347773  0.79184881  1  0.098198  0  0.10142  0.16141  0  1.017774  0
H  H68  1  0.79964081  0.32646368  0.74664450  1  0.120834  0  0.123871  0.048747  0  1.018333  0
H  H69  1  0.70035645  0.17354689  0.24665000  1  0.120741  0  0.123924  0.048849  0  1.018281  0
H  H70  1  0.20036874  0.67354562  0.25334269  1  0.120778  0  0.123904  0.048857  0  1.018311  0
H  H71  1  0.29965673  0.82645153  0.75334377  1  0.120919  0  0.123892  0.048841  0  1.018275  0
H  H72  1  0.99814469  0.15865203  0.75165658  1  0.07596  0  0.106839  0.129962  0  1.004283  0
H  H73  1  0.50185531  0.34135440  0.25165008  1  0.075413  0  0.10687  0.129957  0  1.004285  0
H  H74  1  0.00184958  0.84134578  0.24834501  1  0.075492  0  0.106846  0.129974  0  1.004289  0
H  H75  1  0.49816944  0.65864705  0.74834082  1  0.075186  0  0.106894  0.130043  0  1.004199  0
H  H76  1  0.93917135  0.17595849  0.68169710  1  0.077347  0  0.104532  0.124427  0  1.006992  0
H  H77  1  0.56082736  0.32403759  0.18169277  1  0.077172  0  0.104567  0.12444  0  1.007164  0
H  H78  1  0.06084855  0.82404477  0.31830202  1  0.07715  0  0.104535  0.124405  0  1.007115  0
H  H79  1  0.43917725  0.67594935  0.81829730  1  0.077086  0  0.104561  0.124466  0  1.007039  0
H  H80  1  0.79388043  0.19944437  0.73604626  1  0.084274  0  0.108897  0.131318  0  1.011993  0
H  H81  1  0.70612154  0.30056299  0.23604223  1  0.083928  0  0.108937  0.131398  0  1.011895  0
H  H82  1  0.20612694  0.80056191  0.26394792  1  0.084642  0  0.108873  0.131303  0  1.011996  0
H  H83  1  0.29389799  0.69942939  0.76394579  1  0.084121  0  0.108895  0.131242  0  1.011881  0
H  H84  1  0.27872508  0.35364702  0.71816835  1  0.100103  0  0.116756  0.142679  0  0.9889  0
H  H85  1  0.22128067  0.14635288  0.21816492  1  0.100034  0  0.116778  0.142749  0  0.988846  0
H  H86  1  0.72131435  0.64634476  0.28185338  1  0.100206  0  0.116696  0.14266  0  0.989033  0
H  H87  1  0.77871178  0.85364795  0.78184407  1  0.100145  0  0.11673  0.142715  0  0.988979  0
H  H88  1  0.23598926  0.27484666  0.66828986  1  0.072655  0  0.11253  0.131849  0  0.968897  0
H  H89  1  0.26402174  0.22515353  0.16828912  1  0.07262  0  0.112526  0.131827  0  0.968879  0
H  H90  1  0.76406975  0.72514815  0.33172858  1  0.072403  0  0.112629  0.131796  0  0.968899  0
H  H91  1  0.73596584  0.77484428  0.83171823  1  0.072626  0  0.112533  0.1318  0  0.968953  0
H  H92  1  0.29427683  0.25021654  0.73704209  1  0.088968  0  0.107126  0.131677  0  1.000173  0
H  H93  1  0.20572591  0.24978371  0.23703841  1  0.089069  0  0.107139  0.131673  0  1.000081  0
H  H94  1  0.70572863  0.74977342  0.26297964  1  0.089474  0  0.10714  0.131648  0  1.000096  0
H  H95  1  0.79429100  0.75022317  0.76296893  1  0.089321  0  0.107152  0.131681  0  1.000138  0
C  C96  1  0.44951022  0.07146176  0.47653283  1  0.006964  0  -0.002432  -0.019115  0  3.952874  0
C  C97  1  0.05048904  0.42854108  0.97653170  1  0.007108  0  -0.00246  -0.019113  0  3.952856  0
C  C98  1  0.55049213  0.92854572  0.52346259  1  0.006893  0  -0.002436  -0.019105  0  3.952769  0
C  C99  1  0.94953133  0.57145433  0.02346701  1  0.006855  0  -0.002485  -0.019193  0  3.952839  0
C  C100  1  0.56880082  0.07608409  0.52165317  1  -0.021439  0  -0.003084  -0.016661  0  3.955949  0
C  C101  1  0.93120181  0.42391751  0.02165512  1  -0.021388  0  -0.002981  -0.016542  0  3.955908  0
C  C102  1  0.43120370  0.92392158  0.47834307  1  -0.021333  0  -0.00307  -0.016641  0  3.956066  0
C  C103  1  0.06880435  0.57607970  0.97834235  1  -0.021435  0  -0.003061  -0.016657  0  3.956036  0
C  C104  1  0.81091816  0.96793401  0.29304781  1  1.528395  0  0.20677  0.54057  0  4.224735  0
C  C105  1  0.68907553  0.53207280  0.79304478  1  1.528475  0  0.206846  0.540744  0  4.224316  0
C  C106  1  0.18908715  0.03206018  0.70695378  1  1.529121  0  0.206719  0.540429  0  4.224724  0
C  C107  1  0.31092697  0.46793045  0.20695311  1  1.528393  0  0.206907  0.540804  0  4.22416  0
C  C108  1  0.37976563  0.99512189  0.45544503  1  -0.025479  0  -0.002447  -0.015313  0  3.958793  0
C  C109  1  0.12024935  0.50487837  0.95544314  1  -0.025657  0  -0.002516  -0.015436  0  3.958968  0
C  C110  1  0.62022299  0.00488438  0.54455573  1  -0.025023  0  -0.002425  -0.015318  0  3.958649  0
C  C111  1  0.87977102  0.49511704  0.04455598  1  -0.025584  0  -0.002409  -0.015273  0  3.958769  0
C  C112  1  0.82352629  0.38634871  0.61887001  1  1.524819  0  0.207771  0.544757  0  4.20506  0
C  C113  1  0.67643947  0.11365829  0.11887748  1  1.525413  0  0.207724  0.544795  0  4.205226  0
C  C114  1  0.17644341  0.61365211  0.38112870  1  1.525099  0  0.207766  0.544619  0  4.205021  0
C  C115  1  0.32355583  0.88634315  0.88112287  1  1.525826  0  0.20793  0.544829  0  4.205416  0
C  C116  1  0.63738207  0.15606301  0.54624059  1  -0.050243  0  -0.004752  0.078341  0  4.00544  0
C  C117  1  0.86261627  0.34393964  0.04624072  1  -0.050222  0  -0.004702  0.078383  0  4.005528  0
C  C118  1  0.36262712  0.84394024  0.45375853  1  -0.050175  0  -0.004793  0.078269  0  4.005593  0
C  C119  1  0.13738003  0.65606059  0.95376169  1  -0.049851  0  -0.0047  0.078425  0  4.005232  0
C  C120  1  0.95682755  0.97353968  0.33506415  1  -0.064458  0  -0.020727  -0.044418  0  4.007194  0
C  C121  1  0.54317037  0.52646186  0.83506263  1  -0.06438  0  -0.020737  -0.044452  0  4.007145  0
C  C122  1  0.04317108  0.02645934  0.66493784  1  -0.065124  0  -0.020651  -0.044189  0  4.006981  0
C  C123  1  0.45683948  0.47353898  0.16493813  1  -0.064338  0  -0.020814  -0.044641  0  4.007213  0
C  C124  1  0.75643417  0.30746833  0.59292777  1  -0.064759  0  -0.018118  -0.030842  0  3.989177  0
C  C125  1  0.74353539  0.19253578  0.09293212  1  -0.065887  0  -0.018144  -0.031086  0  3.989164  0
C  C126  1  0.24354473  0.69253189  0.40707176  1  -0.066295  0  -0.01824  -0.031063  0  3.989059  0
C  C127  1  0.25645238  0.80746747  0.90706905  1  -0.066439  0  -0.018028  -0.030803  0  3.989188  0
C  C128  1  0.39823811  0.14782111  0.45290375  1  -0.042355  0  0.001739  0.09121  0  3.988828  0
C  C129  1  0.10175321  0.35218008  0.95289892  1  -0.042472  0  0.001637  0.09102  0  3.988854  0
C  C130  1  0.60175017  0.85218395  0.54709496  1  -0.042213  0  0.001799  0.091283  0  3.988655  0
C  C131  1  0.89825665  0.64782076  0.04709896  1  -0.041984  0  0.001728  0.091115  0  3.988764  0
C  C132  1  0.23643707  0.98756446  0.41263099  1  0.033671  0  -0.002576  0.084229  0  4.006394  0
C  C133  1  0.26356946  0.51243078  0.91262926  1  0.034032  0  -0.002597  0.084197  0  4.006571  0
C  C134  1  0.76355304  0.01243758  0.58736813  1  0.032726  0  -0.002563  0.084364  0  4.006149  0
C  C135  1  0.73643653  0.48756583  0.08736821  1  0.033807  0  -0.002667  0.084134  0  4.006583  0
C  C136  1  0.63115086  0.25221802  0.62076349  1  -0.061248  0  -0.083295  -0.087457  0  3.974642  0
C  C137  1  0.86884010  0.24778358  0.12075984  1  -0.061322  0  -0.083285  -0.087295  0  3.974595  0
C  C138  1  0.36882903  0.74778099  0.37923605  1  -0.061046  0  -0.083384  -0.08738  0  3.974156  0
C  C139  1  0.13117005  0.75220880  0.87923764  1  -0.060588  0  -0.083374  -0.087391  0  3.974571  0
C  C140  1  0.05753116  0.96241279  0.42872123  1  -0.048313  0  -0.090068  -0.134857  0  3.979422  0
C  C141  1  0.44247427  0.53758939  0.92872016  1  -0.048392  0  -0.090008  -0.134849  0  3.979358  0
C  C142  1  0.94246830  0.03758442  0.57127460  1  -0.047805  0  -0.090112  -0.134884  0  3.979033  0
C  C143  1  0.55753207  0.46241326  0.07127896  1  -0.04825  0  -0.090071  -0.134892  0  3.979382  0
C  C144  1  0.31873339  0.29621523  0.41007679  1  0.005996  0  -0.020928  -0.048096  0  3.98641  0
C  C145  1  0.18125399  0.20377792  0.91007412  1  0.005984  0  -0.020887  -0.047935  0  3.986373  0
C  C146  1  0.68125439  0.70378802  0.58992316  1  0.005906  0  -0.020903  -0.048244  0  3.986654  0
C  C147  1  0.81872788  0.79621384  0.08992541  1  0.005809  0  -0.020856  -0.047928  0  3.986297  0
C  C148  1  0.26239680  0.37027381  0.38485727  1  1.530285  0  0.213142  0.556373  0  4.176709  0
C  C149  1  0.23759489  0.12972311  0.88485051  1  1.530535  0  0.213064  0.556186  0  4.176881  0
C  C150  1  0.73760219  0.62973125  0.61514062  1  1.530599  0  0.2132  0.556405  0  4.176765  0
C  C151  1  0.76238147  0.87027288  0.11514615  1  1.530601  0  0.213086  0.55626  0  4.176647  0
C  C152  1  0.82150601  0.28669150  0.54153260  1  -0.035406  0  -0.079402  -0.081778  0  3.950428  0
C  C153  1  0.67845965  0.21331830  0.04153934  1  -0.034863  0  -0.079413  -0.081664  0  3.950254  0
C  C154  1  0.17845937  0.71331778  0.45846528  1  -0.0349  0  -0.079329  -0.081664  0  3.949936  0
C  C155  1  0.32152262  0.78668917  0.95846348  1  -0.034955  0  -0.079499  -0.081937  0  3.950545  0
C  C156  1  0.13564078  0.99734156  0.31866663  1  -0.007424  0  -0.079271  -0.081524  0  3.953997  0
C  C157  1  0.36435641  0.50265557  0.81866582  1  -0.008277  0  -0.079213  -0.081512  0  3.953931  0
C  C158  1  0.86435420  0.00266350  0.68133208  1  -0.007043  0  -0.079254  -0.081571  0  3.95404  0
C  C159  1  0.63565928  0.49734225  0.18133206  1  -0.008409  0  -0.0792  -0.081483  0  3.953835  0
C  C160  1  0.57529220  0.17650642  0.59825622  1  0.015738  0  -0.091762  -0.141333  0  3.966631  0
C  C161  1  0.92470151  0.32349357  0.09825397  1  0.015731  0  -0.091814  -0.141369  0  3.966624  0
C  C162  1  0.42470410  0.82349381  0.40174372  1  0.015451  0  -0.091796  -0.141442  0  3.966528  0
C  C163  1  0.07531516  0.67649821  0.90174392  1  0.016171  0  -0.091689  -0.141221  0  3.966485  0
C  C164  1  0.76016268  0.21211404  0.51802002  1  -0.029237  0  -0.090636  -0.130734  0  3.967555  0
C  C165  1  0.73981945  0.28789051  0.01802073  1  -0.028647  0  -0.090602  -0.13072  0  3.967429  0
C  C166  1  0.23982596  0.78789706  0.48197869  1  -0.029107  0  -0.090605  -0.130603  0  3.967259  0
C  C167  1  0.26018739  0.71210912  0.98198004  1  -0.028915  0  -0.090582  -0.130623  0  3.967253  0
C  C168  1  0.91836378  0.95508491  0.39031184  1  -0.033451  0  -0.086676  -0.097213  0  3.985747  0
C  C169  1  0.58163282  0.54491644  0.89030999  1  -0.033421  0  -0.086729  -0.09724  0  3.985878  0
C  C170  1  0.08163169  0.04491713  0.60968810  1  -0.033235  0  -0.086669  -0.097254  0  3.985518  0
C  C171  1  0.41837283  0.45507896  0.10969077  1  -0.033373  0  -0.0867  -0.097166  0  3.985529  0
C  C172  1  0.29130051  0.19593427  0.48279333  1  -0.013434  0  -0.084947  -0.126856  0  3.953205  0
C  C173  1  0.20868609  0.30406686  0.98278659  1  -0.013639  0  -0.084925  -0.126755  0  3.953437  0
C  C174  1  0.70869396  0.80406898  0.51720538  1  -0.013389  0  -0.084906  -0.126773  0  3.95311  0
C  C175  1  0.79129646  0.69592732  0.01721458  1  -0.013387  0  -0.084901  -0.126825  0  3.953426  0
C  C176  1  0.25183351  0.26912722  0.46163251  1  -0.093288  0  -0.076039  -0.069487  0  3.952831  0
C  C177  1  0.24813756  0.23086929  0.96163077  1  -0.092638  0  -0.076148  -0.069654  0  3.952824  0
C  C178  1  0.74815879  0.73087784  0.53836743  1  -0.093439  0  -0.076119  -0.069578  0  3.952982  0
C  C179  1  0.75183210  0.76912186  0.03837041  1  -0.093042  0  -0.076111  -0.069616  0  3.952894  0
C  C180  1  0.27444597  0.00352331  0.35703208  1  -0.090584  0  -0.086056  -0.125835  0  3.964801  0
C  C181  1  0.22555142  0.49647733  0.85703200  1  -0.089662  0  -0.086039  -0.125713  0  3.964834  0
C  C182  1  0.72554563  0.99647450  0.64296622  1  -0.090677  0  -0.086067  -0.125886  0  3.964863  0
C  C183  1  0.77446193  0.50352169  0.14296465  1  -0.089377  0  -0.08596  -0.125695  0  3.964756  0
C  C184  1  0.42700445  0.24889904  0.38032248  1  -0.075495  0  -0.08097  -0.07516  0  3.958422  0
C  C185  1  0.07296721  0.25108812  0.88031967  1  -0.076035  0  -0.080957  -0.075167  0  3.958267  0
C  C186  1  0.57298870  0.75110904  0.61967664  1  -0.076187  0  -0.080978  -0.075025  0  3.95858  0
C  C187  1  0.92701182  0.74890304  0.11968109  1  -0.076452  0  -0.081005  -0.075276  0  3.95814  0
C  C188  1  0.46482682  0.17545461  0.40144876  1  0.063695  0  -0.089409  -0.131542  0  3.982718  0
C  C189  1  0.03516289  0.32454141  0.90144506  1  0.063952  0  -0.089423  -0.131565  0  3.982251  0
C  C190  1  0.53515695  0.82455347  0.59855077  1  0.064168  0  -0.08961  -0.131782  0  3.982712  0
C  C191  1  0.96485297  0.67545702  0.09855241  1  0.064098  0  -0.089444  -0.131504  0  3.982405  0
C  C192  1  0.06853953  0.83532702  0.66502253  1  -0.066921  0  -0.243866  -0.541347  0  3.893603  0
C  C193  1  0.43148902  0.66466428  0.16503567  1  -0.067225  0  -0.243915  -0.54153  0  3.893802  0
C  C194  1  0.93147032  0.16467382  0.33497535  1  -0.06698  0  -0.243784  -0.541311  0  3.893808  0
C  C195  1  0.56852836  0.33533475  0.83496798  1  -0.066928  0  -0.243828  -0.541377  0  3.89351  0
C  C196  1  0.07103942  0.74640189  0.65853129  1  1.493773  0  0.231249  0.686646  0  4.071421  0
C  C197  1  0.42897118  0.75359169  0.15853414  1  1.492485  0  0.231391  0.686867  0  4.070902  0
C  C198  1  0.92897058  0.25359471  0.34147276  1  1.492822  0  0.231249  0.686519  0  4.071143  0
C  C199  1  0.57101889  0.24640068  0.84146333  1  1.492915  0  0.231446  0.686848  0  4.071168  0
C  C200  1  0.94503903  0.34298602  0.73888922  1  1.335311  0  0.173826  0.290734  0  4.109538  0
C  C201  1  0.55496189  0.15702260  0.23889735  1  1.335549  0  0.173783  0.290657  0  4.10934  0
C  C202  1  0.05498540  0.65701905  0.26110785  1  1.33534  0  0.173843  0.290679  0  4.109185  0
C  C203  1  0.44504210  0.84297643  0.76110547  1  1.335464  0  0.173809  0.290574  0  4.109335  0
C  C204  1  0.93505612  0.19889873  0.72392709  1  0.246294  0  -0.134609  -0.297386  0  3.894388  0
C  C205  1  0.56494504  0.30110477  0.22392172  1  0.247257  0  -0.13469  -0.297457  0  3.894687  0
C  C206  1  0.06495339  0.80110089  0.27607368  1  0.246581  0  -0.134577  -0.297367  0  3.894649  0
C  C207  1  0.43507501  0.69889426  0.77607041  1  0.247617  0  -0.134667  -0.297474  0  3.894472  0
C  C208  1  0.22228206  0.29054272  0.71188165  1  0.248293  0  -0.128629  -0.272168  0  3.847135  0
C  C209  1  0.27772515  0.20945707  0.21187908  1  0.248275  0  -0.128635  -0.272147  0  3.846989  0
C  C210  1  0.77775252  0.70945088  0.28813556  1  0.247573  0  -0.128668  -0.272018  0  3.84731  0
C  C211  1  0.72226864  0.79054376  0.78812703  1  0.247935  0  -0.128613  -0.272177  0  3.847352  0
N  N212  1  0.03170462  0.28034196  0.72679312  1  -1.203856  0  -0.269359  0.049863  0  3.721215  0
N  N213  1  0.46829767  0.21966535  0.22679023  1  -1.203897  0  -0.269455  0.049676  0  3.721258  0
N  N214  1  0.96831577  0.71965828  0.27321216  1  -1.203402  0  -0.269368  0.049771  0  3.721426  0
N  N215  1  0.53170817  0.78033549  0.77320683  1  -1.204238  0  -0.269405  0.049901  0  3.72131  0
O  O216  1  0.71209406  0.41473945  0.65349461  1  -1.121546  0  -0.290195  -0.511644  0  2.198752  0
O  O217  1  0.78788060  0.08526396  0.15349870  1  -1.121479  0  -0.290144  -0.511705  0  2.199  0
O  O218  1  0.28788465  0.58525533  0.34650862  1  -1.121439  0  -0.290175  -0.511639  0  2.198883  0
O  O219  1  0.21210869  0.91473989  0.84650453  1  -1.121561  0  -0.290204  -0.511706  0  2.199119  0
O  O220  1  0.85224319  0.00962525  0.24841385  1  -1.122797  0  -0.287826  -0.512515  0  2.25859  0
O  O221  1  0.64776034  0.49036964  0.74841472  1  -1.123137  0  -0.287842  -0.512562  0  2.258362  0
O  O222  1  0.14777986  0.99037015  0.75159103  1  -1.122872  0  -0.287821  -0.512429  0  2.258573  0
O  O223  1  0.35224614  0.50962394  0.25158605  1  -1.123089  0  -0.28787  -0.512563  0  2.258394  0
O  O224  1  0.97876979  0.42221158  0.61033768  1  -1.13951  0  -0.301814  -0.521174  0  2.081956  0
O  O225  1  0.52119597  0.07779949  0.11034557  1  -1.139454  0  -0.301797  -0.521143  0  2.081983  0
O  O226  1  0.02120026  0.57779528  0.38965979  1  -1.13903  0  -0.301751  -0.520958  0  2.081731  0
O  O227  1  0.47878930  0.92220436  0.88965683  1  -1.139639  0  -0.30188  -0.521154  0  2.082265  0
O  O228  1  0.34012754  0.39832136  0.34033060  1  -1.134514  0  -0.287434  -0.510736  0  2.177418  0
O  O229  1  0.15986043  0.10167292  0.84032498  1  -1.134717  0  -0.287447  -0.510783  0  2.1775  0
O  O230  1  0.65988386  0.60168975  0.65966976  1  -1.134796  0  -0.287444  -0.510724  0  2.177488  0
O  O231  1  0.84012081  0.89832609  0.15967208  1  -1.134724  0  -0.287413  -0.51067  0  2.177202  0
O  O232  1  0.66065824  0.92585693  0.29965909  1  -1.168247  0  -0.306043  -0.539653  0  2.121037  0
O  O233  1  0.83932834  0.57415845  0.79964954  1  -1.168204  0  -0.306096  -0.539795  0  2.120738  0
O  O234  1  0.33933103  0.07414209  0.70033756  1  -1.168349  0  -0.306035  -0.53964  0  2.121144  0
O  O235  1  0.16066649  0.42585084  0.20034300  1  -1.168119  0  -0.306117  -0.539787  0  2.120632  0
O  O236  1  0.12895250  0.40195806  0.40469312  1  -1.166352  0  -0.303587  -0.559436  0  2.176845  0
O  O237  1  0.37102426  0.09803499  0.90469195  1  -1.166358  0  -0.303534  -0.559322  0  2.176583  0
O  O238  1  0.87103291  0.59804156  0.59530106  1  -1.166219  0  -0.303548  -0.559292  0  2.176725  0
O  O239  1  0.62893851  0.90195072  0.09530758  1  -1.166524  0  -0.303554  -0.559425  0  2.176853  0
O  O240  1  0.11251870  0.72608535  0.60722167  1  -1.168389  0  -0.330739  -0.490911  0  2.297931  0
O  O241  1  0.38748894  0.77389823  0.10722521  1  -1.168432  0  -0.330947  -0.491148  0  2.297916  0
O  O242  1  0.88748812  0.27390944  0.39278279  1  -1.168522  0  -0.330776  -0.490902  0  2.297737  0
O  O243  1  0.61248005  0.22609534  0.89277555  1  -1.168348  0  -0.330902  -0.491031  0  2.298156  0
O  O244  1  0.03104959  0.69655738  0.69555549  1  -1.183454  0  -0.292402  -0.561025  0  2.165633  0
O  O245  1  0.46893984  0.80345440  0.19555789  1  -1.182391  0  -0.292541  -0.561265  0  2.165194  0
O  O246  1  0.96896816  0.30345253  0.30444733  1  -1.182492  0  -0.292508  -0.561105  0  2.16517  0
O  O247  1  0.53104692  0.19654522  0.80444369  1  -1.182675  0  -0.292567  -0.561259  0  2.16564  0
O  O248  1  0.01714744  0.41550530  0.74126635  1  -1.178997  0  -0.2953  -0.491375  0  2.332202  0
O  O249  1  0.48287084  0.08450772  0.24127576  1  -1.178902  0  -0.295313  -0.491319  0  2.332135  0
O  O250  1  0.98288903  0.58449978  0.25873071  1  -1.179038  0  -0.295363  -0.491389  0  2.332032  0
O  O251  1  0.51713198  0.91549191  0.75873035  1  -1.178916  0  -0.29531  -0.491291  0  2.332246  0
