# generated using pymatgen
data_TbH7(C3O4)2
_symmetry_space_group_name_H-M   'P 1'
_cell_length_a   6.12374616
_cell_length_b   10.08433804
_cell_length_c   15.39062734
_cell_angle_alpha   102.90861677
_cell_angle_beta   90.02358330
_cell_angle_gamma   107.69517150
_symmetry_Int_Tables_number   1
_chemical_formula_structural   TbH7(C3O4)2
_chemical_formula_sum   'Tb4 H28 C24 O32'
_cell_volume   880.18929825
_cell_formula_units_Z   4
loop_
 _symmetry_equiv_pos_site_id
 _symmetry_equiv_pos_as_xyz
  1  'x, y, z'
loop_
 _atom_site_type_symbol
 _atom_site_label
 _atom_site_symmetry_multiplicity
 _atom_site_fract_x
 _atom_site_fract_y
 _atom_site_fract_z
 _atom_site_occupancy
 _atom_site_hle17_bader_spin_density
 _atom_site_hle17_ddec_charge
 _atom_site_hle17_ddec_spin_density
 _atom_site_hle17_ddec_sum_bond_order
 _atom_site_hle17_magmom
 _atom_site_hse06_10hf_bader_spin_density
 _atom_site_hse06_10hf_ddec_charge
 _atom_site_hse06_10hf_ddec_spin_density
 _atom_site_hse06_10hf_ddec_sum_bond_order
 _atom_site_hse06_10hf_magmom
 _atom_site_hse06_bader_spin_density
 _atom_site_hse06_ddec_charge
 _atom_site_hse06_ddec_spin_density
 _atom_site_hse06_ddec_sum_bond_order
 _atom_site_hse06_magmom
 _atom_site_pbe_bader_spin_density
 _atom_site_pbe_cm5_charge
 _atom_site_pbe_ddec_charge
 _atom_site_pbe_ddec_spin_density
 _atom_site_pbe_ddec_sum_bond_order
 _atom_site_pbe_magmom
Tb  Tb0  1  0.65226702  0.18502273  0.20426438  1  0  2.17671  0  1.74749  0  0  2.089193  0  2.090194  0  0  2.144632  0  2.044556  0  0  1.518994  2.050101  0  2.124622  0
Tb  Tb1  1  0.46772560  0.81498795  0.29572223  1  0  2.175202  0  1.748676  0  0  2.086506  0  2.092847  0  0  2.14294  0  2.045779  0  0  1.519449  2.049819  0  2.124963  0
Tb  Tb2  1  0.34773473  0.81497517  0.79573343  1  0  2.176693  0  1.74741  0  0  2.089185  0  2.090121  0  0  2.144536  0  2.044633  0  0  1.518994  2.050048  0  2.124625  0
Tb  Tb3  1  0.53227287  0.18501316  0.70427799  1  0  2.175149  0  1.748687  0  0  2.086479  0  2.092808  0  0  2.142859  0  2.045834  0  0  1.519416  2.049787  0  2.124917  0
H  H4  1  0.20436473  0.49854646  0.48576805  1  0  0.132254  0  0.914948  0  0  0.145981  0  0.973871  0  0  0.148878  0  0.972036  0  0  0.112295  0.14397  0  0.975185  0
H  H5  1  0.70516628  0.50150233  0.01415062  1  0  0.132136  0  0.914049  0  0  0.14571  0  0.973228  0  0  0.148681  0  0.97128  0  0  0.111677  0.143941  0  0.974413  0
H  H6  1  0.79563267  0.50145251  0.51423186  1  0  0.13226  0  0.914942  0  0  0.145985  0  0.973859  0  0  0.148876  0  0.972026  0  0  0.11231  0.143971  0  0.975176  0
H  H7  1  0.29483599  0.49849985  0.98584911  1  0  0.132147  0  0.914037  0  0  0.14572  0  0.973202  0  0  0.148692  0  0.971251  0  0  0.111684  0.143953  0  0.974386  0
H  H8  1  0.40973939  0.42250835  0.43475311  1  0  0.147968  0  0.920381  0  0  0.160217  0  0.978781  0  0  0.163679  0  0.976475  0  0  0.119884  0.157955  0  0.98011  0
H  H9  1  0.98682357  0.57742622  0.06512777  1  0  0.14867  0  0.921178  0  0  0.161208  0  0.97902  0  0  0.16468  0  0.976725  0  0  0.119711  0.159055  0  0.980357  0
H  H10  1  0.59025908  0.57749276  0.56524776  1  0  0.147964  0  0.920356  0  0  0.160202  0  0.97877  0  0  0.163659  0  0.976465  0  0  0.119892  0.157941  0  0.980097  0
H  H11  1  0.01317923  0.42257703  0.93487212  1  0  0.148688  0  0.921192  0  0  0.161219  0  0.979025  0  0  0.164691  0  0.97673  0  0  0.119724  0.159067  0  0.980359  0
H  H12  1  0.11763078  0.19612281  0.46063795  1  0  0.156841  0  0.894495  0  0  0.171059  0  0.945519  0  0  0.174722  0  0.943286  0  0  0.125323  0.168541  0  0.946995  0
H  H13  1  0.92168247  0.80409669  0.03943416  1  0  0.156382  0  0.895866  0  0  0.170562  0  0.946902  0  0  0.174205  0  0.944712  0  0  0.125261  0.168071  0  0.948433  0
H  H14  1  0.88236659  0.80387937  0.53936243  1  0  0.156901  0  0.894486  0  0  0.171081  0  0.945494  0  0  0.174754  0  0.943264  0  0  0.125321  0.168566  0  0.94696  0
H  H15  1  0.07831276  0.19590121  0.96056625  1  0  0.156385  0  0.895886  0  0  0.170612  0  0.946864  0  0  0.174257  0  0.944671  0  0  0.125257  0.168119  0  0.9484  0
H  H16  1  0.91852790  0.28802627  0.49282554  1  0  0.137928  0  0.911382  0  0  0.152704  0  0.966333  0  0  0.155392  0  0.96491  0  0  0.119632  0.150947  0  0.967085  0
H  H17  1  0.63055807  0.71214721  0.00710094  1  0  0.137685  0  0.911569  0  0  0.152419  0  0.966597  0  0  0.15506  0  0.96528  0  0  0.119399  0.150618  0  0.96754  0
H  H18  1  0.08146893  0.71197483  0.50717338  1  0  0.137952  0  0.911402  0  0  0.152696  0  0.966333  0  0  0.155391  0  0.964916  0  0  0.119617  0.150938  0  0.967086  0
H  H19  1  0.36944043  0.28785068  0.99289882  1  0  0.137742  0  0.911527  0  0  0.152478  0  0.966559  0  0  0.155119  0  0.965241  0  0  0.119407  0.150672  0  0.967505  0
H  H20  1  0.96986084  0.45356257  0.31613605  1  0  0.396373  0  0.885211  0  0  0.370554  0  0.957583  0  0  0.382584  0  0.944296  0  0  0.306854  0.362336  0  0.966668  0
H  H21  1  0.51627476  0.54655471  0.18383894  1  0  0.395614  0  0.886108  0  0  0.370097  0  0.958058  0  0  0.382055  0  0.944858  0  0  0.306768  0.361438  0  0.967635  0
H  H22  1  0.03014090  0.54643854  0.68386352  1  0  0.396334  0  0.885219  0  0  0.370504  0  0.957615  0  0  0.382535  0  0.944325  0  0  0.306836  0.362288  0  0.966694  0
H  H23  1  0.48372591  0.45344426  0.81616162  1  0  0.395629  0  0.886097  0  0  0.370122  0  0.958036  0  0  0.38208  0  0.944835  0  0  0.306786  0.361461  0  0.96762  0
H  H24  1  0.28423468  0.05028342  0.04567445  1  0  0.455528  0  0.839438  0  0  0.425626  0  0.899526  0  0  0.437532  0  0.882462  0  0  0.303492  0.417892  0  0.910589  0
H  H25  1  0.23434867  0.94953872  0.45432091  1  0  0.456479  0  0.837991  0  0  0.426856  0  0.897709  0  0  0.438726  0  0.880663  0  0  0.303634  0.419125  0  0.908807  0
H  H26  1  0.71576109  0.94971555  0.95432611  1  0  0.455397  0  0.83962  0  0  0.425507  0  0.899694  0  0  0.437413  0  0.882629  0  0  0.303418  0.417773  0  0.910753  0
H  H27  1  0.76565253  0.05046133  0.54567981  1  0  0.456455  0  0.83802  0  0  0.426834  0  0.897736  0  0  0.438704  0  0.880689  0  0  0.303631  0.419098  0  0.908844  0
H  H28  1  0.18701833  0.12445152  0.13780172  1  0  0.447322  0  0.850325  0  0  0.416517  0  0.91289  0  0  0.428757  0  0.895137  0  0  0.304227  0.408257  0  0.924905  0
H  H29  1  0.06305894  0.87527828  0.36215865  1  0  0.447967  0  0.84987  0  0  0.416879  0  0.912774  0  0  0.429172  0  0.894946  0  0  0.304159  0.408619  0  0.924817  0
H  H30  1  0.81297690  0.87554638  0.86219934  1  0  0.44729  0  0.850349  0  0  0.416491  0  0.912907  0  0  0.42873  0  0.895156  0  0  0.30424  0.40823  0  0.924923  0
H  H31  1  0.93694226  0.12472176  0.63784207  1  0  0.447982  0  0.849847  0  0  0.416871  0  0.912778  0  0  0.429162  0  0.894953  0  0  0.304163  0.408615  0  0.924813  0
C  C32  1  0.06961586  0.32237454  0.36977414  1  0  0.263085  0  3.565165  0  0  0.259414  0  3.812946  0  0  0.26462  0  3.822949  0  0  0.073812  0.256319  0  3.805563  0
C  C33  1  0.74728678  0.67767991  0.13017168  1  0  0.262169  0  3.564333  0  0  0.258775  0  3.812058  0  0  0.263795  0  3.822471  0  0  0.073972  0.255669  0  3.805497  0
C  C34  1  0.93038805  0.67762764  0.63022559  1  0  0.263134  0  3.5651  0  0  0.259499  0  3.812725  0  0  0.264647  0  3.822847  0  0  0.073825  0.2564  0  3.805346  0
C  C35  1  0.25271389  0.32231907  0.86982953  1  0  0.262136  0  3.564287  0  0  0.258786  0  3.812019  0  0  0.263803  0  3.822431  0  0  0.074034  0.255676  0  3.805463  0
C  C36  1  0.26092955  0.45498823  0.42057800  1  0  -0.352236  0  3.625629  0  0  -0.395135  0  3.868934  0  0  -0.400805  0  3.873902  0  0  -0.160152  -0.39054  0  3.864737  0
C  C37  1  0.80553069  0.54501641  0.07934561  1  0  -0.353156  0  3.626171  0  0  -0.396544  0  3.869061  0  0  -0.402161  0  3.873904  0  0  -0.159512  -0.392149  0  3.865071  0
C  C38  1  0.73907218  0.54501288  0.57942288  1  0  -0.352216  0  3.625538  0  0  -0.395107  0  3.868767  0  0  -0.400744  0  3.87374  0  0  -0.160186  -0.390504  0  3.864572  0
C  C39  1  0.19446832  0.45498577  0.92065412  1  0  -0.353218  0  3.626204  0  0  -0.396583  0  3.869069  0  0  -0.402203  0  3.873916  0  0  -0.159554  -0.392192  0  3.86508  0
C  C40  1  0.33789158  0.57542908  0.37264907  1  0  0.704531  0  3.852143  0  0  0.65817  0  4.161578  0  0  0.691769  0  4.155156  0  0  0.199332  0.635778  0  4.165891  0
C  C41  1  0.76188178  0.42451070  0.12721583  1  0  0.70653  0  3.846725  0  0  0.661227  0  4.154884  0  0  0.694807  0  4.148284  0  0  0.201122  0.63901  0  4.158702  0
C  C42  1  0.66210689  0.42457203  0.62735116  1  0  0.704456  0  3.852282  0  0  0.658088  0  4.161714  0  0  0.691683  0  4.155288  0  0  0.19927  0.635676  0  4.166051  0
C  C43  1  0.23812322  0.57549041  0.87278374  1  0  0.706612  0  3.846792  0  0  0.661314  0  4.154927  0  0  0.694897  0  4.148315  0  0  0.201173  0.639092  0  4.158749  0
C  C44  1  0.97645960  0.22566878  0.43442127  1  0  -0.344117  0  3.585704  0  0  -0.382268  0  3.820499  0  0  -0.387975  0  3.823977  0  0  -0.148387  -0.377553  0  3.816967  0
C  C45  1  0.75088033  0.77446285  0.06556286  1  0  -0.34296  0  3.586458  0  0  -0.381133  0  3.821633  0  0  -0.386848  0  3.825216  0  0  -0.148107  -0.376845  0  3.818966  0
C  C46  1  0.02353887  0.77433233  0.56557830  1  0  -0.344254  0  3.585877  0  0  -0.382262  0  3.820459  0  0  -0.387991  0  3.823985  0  0  -0.14835  -0.377555  0  3.816936  0
C  C47  1  0.24911327  0.22553505  0.93443689  1  0  -0.343093  0  3.586492  0  0  -0.381327  0  3.821673  0  0  -0.387045  0  3.825261  0  0  -0.148138  -0.377037  0  3.819008  0
C  C48  1  0.77819726  0.09118538  0.39790413  1  0  0.760357  0  3.771603  0  0  0.710503  0  4.073947  0  0  0.746731  0  4.063784  0  0  0.229056  0.686922  0  4.080077  0
C  C49  1  0.68717522  0.90889989  0.10206131  1  0  0.761413  0  3.771019  0  0  0.711115  0  4.074484  0  0  0.747381  0  4.064235  0  0  0.228424  0.687689  0  4.080571  0
C  C50  1  0.22180284  0.90881572  0.60209415  1  0  0.760459  0  3.77153  0  0  0.710591  0  4.073821  0  0  0.746837  0  4.06365  0  0  0.229132  0.687018  0  4.07994  0
C  C51  1  0.31282220  0.09109586  0.89793619  1  0  0.761491  0  3.771051  0  0  0.711243  0  4.074436  0  0  0.747511  0  4.064179  0  0  0.228517  0.687828  0  4.080501  0
C  C52  1  0.16663836  0.23938788  0.28959696  1  0  0.655653  0  3.783678  0  0  0.611485  0  4.077917  0  0  0.645836  0  4.069162  0  0  0.238072  0.589041  0  4.083143  0
C  C53  1  0.92751700  0.76065520  0.21035264  1  0  0.653601  0  3.785148  0  0  0.609525  0  4.078819  0  0  0.643981  0  4.070019  0  0  0.237107  0.587316  0  4.083623  0
C  C54  1  0.83336284  0.76061215  0.71040181  1  0  0.655554  0  3.78372  0  0  0.611372  0  4.077969  0  0  0.645733  0  4.06923  0  0  0.238051  0.58893  0  4.083187  0
C  C55  1  0.07248257  0.23934484  0.78964678  1  0  0.653809  0  3.784765  0  0  0.609586  0  4.078683  0  0  0.64405  0  4.069867  0  0  0.237113  0.587374  0  4.083489  0
O  O56  1  0.20669553  0.57842516  0.30772369  1  0  -0.69533  0  1.962586  0  0  -0.645487  0  2.189082  0  0  -0.672259  0  2.180765  0  0  -0.363885  -0.627681  0  2.194981  0
O  O57  1  0.62822273  0.42168572  0.19228894  1  0  -0.697012  0  1.960058  0  0  -0.647969  0  2.186273  0  0  -0.674491  0  2.177855  0  0  -0.36443  -0.628777  0  2.191828  0
O  O58  1  0.79330567  0.42157488  0.69227573  1  0  -0.695313  0  1.962603  0  0  -0.64547  0  2.189089  0  0  -0.672233  0  2.180775  0  0  -0.363881  -0.627653  0  2.194988  0
O  O59  1  0.37178227  0.57831539  0.80771193  1  0  -0.697001  0  1.960035  0  0  -0.647981  0  2.186266  0  0  -0.674493  0  2.177848  0  0  -0.364456  -0.628781  0  2.191829  0
O  O60  1  0.52545091  0.67476439  0.39794402  1  0  -0.65673  0  1.917533  0  0  -0.621894  0  2.150176  0  0  -0.646872  0  2.14244  0  0  -0.371596  -0.60573  0  2.155737  0
O  O61  1  0.84941379  0.32495012  0.10176613  1  0  -0.658434  0  1.913247  0  0  -0.624183  0  2.145423  0  0  -0.649006  0  2.13768  0  0  -0.373032  -0.607995  0  2.151969  0
O  O62  1  0.47454917  0.32523994  0.60205732  1  0  -0.656707  0  1.917622  0  0  -0.621858  0  2.150243  0  0  -0.646836  0  2.142526  0  0  -0.371542  -0.605688  0  2.155814  0
O  O63  1  0.15058848  0.67505205  0.89823230  1  0  -0.658539  0  1.913332  0  0  -0.624293  0  2.145508  0  0  -0.649108  0  2.137768  0  0  -0.37308  -0.6081  0  2.152071  0
O  O64  1  0.65966194  0.07794601  0.32629026  1  0  -0.779607  0  2.182966  0  0  -0.735297  0  2.444753  0  0  -0.766513  0  2.438919  0  0  -0.432805  -0.716115  0  2.450311  0
O  O65  1  0.58226690  0.92220054  0.17372651  1  0  -0.780619  0  2.183855  0  0  -0.735788  0  2.445354  0  0  -0.766977  0  2.439457  0  0  -0.43208  -0.716252  0  2.451394  0
O  O66  1  0.34033980  0.92205509  0.67370802  1  0  -0.779639  0  2.182918  0  0  -0.735332  0  2.444695  0  0  -0.766535  0  2.438859  0  0  -0.432842  -0.716151  0  2.450256  0
O  O67  1  0.41772343  0.07779736  0.82627455  1  0  -0.780607  0  2.183959  0  0  -0.735817  0  2.445476  0  0  -0.766988  0  2.439578  0  0  -0.432092  -0.716271  0  2.451489  0
O  O68  1  0.72808521  0.98886701  0.43723701  1  0  -0.648998  0  1.95025  0  0  -0.596932  0  2.170589  0  0  -0.622092  0  2.16062  0  0  -0.3211  -0.579954  0  2.177081  0
O  O69  1  0.73900107  0.01110899  0.06263216  1  0  -0.64873  0  1.948957  0  0  -0.59659  0  2.169597  0  0  -0.621659  0  2.15957  0  0  -0.320136  -0.579495  0  2.177013  0
O  O70  1  0.27191762  0.01113303  0.56276111  1  0  -0.649003  0  1.950164  0  0  -0.596961  0  2.170523  0  0  -0.622113  0  2.160539  0  0  -0.321122  -0.57999  0  2.177013  0
O  O71  1  0.26099252  0.98888891  0.93736760  1  0  -0.648742  0  1.948885  0  0  -0.596631  0  2.16952  0  0  -0.621696  0  2.1595  0  0  -0.320168  -0.57954  0  2.176932  0
O  O72  1  0.03370551  0.18294399  0.21809733  1  0  -0.703388  0  2.122649  0  0  -0.65451  0  2.358739  0  0  -0.682336  0  2.350049  0  0  -0.377134  -0.636189  0  2.364796  0
O  O73  1  0.85128172  0.81720929  0.28183322  1  0  -0.702591  0  2.123787  0  0  -0.653448  0  2.359559  0  0  -0.68141  0  2.350816  0  0  -0.376845  -0.63508  0  2.365136  0
O  O74  1  0.96630110  0.81706033  0.78190336  1  0  -0.703351  0  2.122536  0  0  -0.654479  0  2.358633  0  0  -0.682291  0  2.349948  0  0  -0.377099  -0.636149  0  2.364691  0
O  O75  1  0.14871838  0.18279182  0.71816701  1  0  -0.702683  0  2.123747  0  0  -0.653488  0  2.359592  0  0  -0.681447  0  2.350849  0  0  -0.376857  -0.635126  0  2.365169  0
O  O76  1  0.36544052  0.23078750  0.29924323  1  0  -0.649715  0  2.026552  0  0  -0.612941  0  2.272554  0  0  -0.638661  0  2.263438  0  0  -0.369295  -0.5962  0  2.278921  0
O  O77  1  0.13490682  0.76917740  0.20073562  1  0  -0.64879  0  2.025351  0  0  -0.612095  0  2.27129  0  0  -0.637971  0  2.262097  0  0  -0.369001  -0.595503  0  2.277394  0
O  O78  1  0.63456666  0.76921469  0.70075780  1  0  -0.649654  0  2.026688  0  0  -0.612904  0  2.272728  0  0  -0.63861  0  2.263619  0  0  -0.369305  -0.596154  0  2.279092  0
O  O79  1  0.86509114  0.23081943  0.79926593  1  0  -0.648864  0  2.025188  0  0  -0.612112  0  2.271183  0  0  -0.637986  0  2.261991  0  0  -0.369013  -0.595519  0  2.277281  0
O  O80  1  0.88550224  0.36341906  0.33599739  1  0  -0.645121  0  2.077828  0  0  -0.606147  0  2.307713  0  0  -0.624484  0  2.29646  0  0  -0.431012  -0.594111  0  2.31561  0
O  O81  1  0.52207888  0.63665329  0.16394853  1  0  -0.643229  0  2.076459  0  0  -0.604447  0  2.306054  0  0  -0.622776  0  2.294848  0  0  -0.430611  -0.592377  0  2.314911  0
O  O82  1  0.11450006  0.63657990  0.66400123  1  0  -0.645079  0  2.077746  0  0  -0.60612  0  2.307609  0  0  -0.624437  0  2.296394  0  0  -0.430994  -0.59408  0  2.315508  0
O  O83  1  0.47791852  0.36334568  0.83605203  1  0  -0.643236  0  2.076457  0  0  -0.604466  0  2.306044  0  0  -0.62279  0  2.294841  0  0  -0.430652  -0.592393  0  2.314905  0
O  O84  1  0.32317822  0.10285501  0.10978943  1  0  -0.958315  0  1.869576  0  0  -0.919313  0  2.068943  0  0  -0.942166  0  2.035035  0  0  -0.676361  -0.904289  0  2.091929  0
O  O85  1  0.22068337  0.89662347  0.39029656  1  0  -0.959315  0  1.868167  0  0  -0.920177  0  2.067463  0  0  -0.943142  0  2.033533  0  0  -0.676174  -0.905578  0  2.090628  0
O  O86  1  0.67681707  0.89713647  0.89021070  1  0  -0.958137  0  1.869693  0  0  -0.919151  0  2.069023  0  0  -0.941993  0  2.035128  0  0  -0.676306  -0.90412  0  2.092012  0
O  O87  1  0.77931623  0.10337336  0.60970305  1  0  -0.959288  0  1.868136  0  0  -0.920132  0  2.067468  0  0  -0.943087  0  2.033545  0  0  -0.676175  -0.905534  0  2.090636  0
