# generated using pymatgen
data_CdH7C8I2N5
_symmetry_space_group_name_H-M   'P 1'
_cell_length_a   9.38257258
_cell_length_b   9.65079957
_cell_length_c   15.10443145
_cell_angle_alpha   90.00014621
_cell_angle_beta   90.00002120
_cell_angle_gamma   108.08151589
_symmetry_Int_Tables_number   1
_chemical_formula_structural   CdH7C8I2N5
_chemical_formula_sum   'Cd4 H28 C32 I8 N20'
_cell_volume   1300.15367988
_cell_formula_units_Z   4
loop_
 _symmetry_equiv_pos_site_id
 _symmetry_equiv_pos_as_xyz
  1  'x, y, z'
loop_
 _atom_site_type_symbol
 _atom_site_label
 _atom_site_symmetry_multiplicity
 _atom_site_fract_x
 _atom_site_fract_y
 _atom_site_fract_z
 _atom_site_occupancy
 _atom_site_hle17_bader_spin_density
 _atom_site_hle17_ddec_charge
 _atom_site_hle17_ddec_spin_density
 _atom_site_hle17_ddec_sum_bond_order
 _atom_site_hle17_magmom
 _atom_site_hse06_10hf_bader_spin_density
 _atom_site_hse06_10hf_ddec_charge
 _atom_site_hse06_10hf_ddec_spin_density
 _atom_site_hse06_10hf_ddec_sum_bond_order
 _atom_site_hse06_10hf_magmom
 _atom_site_hse06_bader_spin_density
 _atom_site_hse06_ddec_charge
 _atom_site_hse06_ddec_spin_density
 _atom_site_hse06_ddec_sum_bond_order
 _atom_site_hse06_magmom
 _atom_site_pbe_bader_spin_density
 _atom_site_pbe_cm5_charge
 _atom_site_pbe_ddec_charge
 _atom_site_pbe_ddec_spin_density
 _atom_site_pbe_ddec_sum_bond_order
 _atom_site_pbe_magmom
Cd  Cd0  1  0.04840062  0.39843283  0.89142018  1  0  0.76311  0  2.08917  0  0  0.599953  0  2.536305  0  0  0.649204  0  2.502367  0  0  0.519878  0.565924  0  2.558665  0
Cd  Cd1  1  0.45160133  0.10156975  0.39142035  1  0  0.763098  0  2.089198  0  0  0.599938  0  2.536359  0  0  0.649197  0  2.502403  0  0  0.519881  0.565912  0  2.558718  0
Cd  Cd2  1  0.95159867  0.60156978  0.10857798  1  0  0.763048  0  2.0892  0  0  0.599867  0  2.536373  0  0  0.649132  0  2.502408  0  0  0.519853  0.565842  0  2.558731  0
Cd  Cd3  1  0.54839911  0.89842634  0.60857649  1  0  0.763079  0  2.089236  0  0  0.599926  0  2.536362  0  0  0.649179  0  2.502424  0  0  0.519865  0.565903  0  2.558722  0
H  H4  1  0.13615505  0.96862893  0.89834710  1  0  0.083704  0  0.979866  0  0  0.09203  0  1.050739  0  0  0.09594  0  1.045151  0  0  0.104605  0.089121  0  1.054815  0
H  H5  1  0.36384163  0.53137226  0.39834251  1  0  0.083707  0  0.979844  0  0  0.09203  0  1.050726  0  0  0.095939  0  1.045138  0  0  0.10459  0.089121  0  1.054808  0
H  H6  1  0.86383891  0.03137365  0.10165834  1  0  0.083661  0  0.979886  0  0  0.091989  0  1.050768  0  0  0.095898  0  1.04518  0  0  0.104578  0.089082  0  1.054851  0
H  H7  1  0.63616026  0.46862166  0.60165897  1  0  0.083668  0  0.979802  0  0  0.091978  0  1.050693  0  0  0.095888  0  1.045106  0  0  0.10456  0.089067  0  1.054785  0
H  H8  1  0.77853580  0.14095294  0.77460133  1  0  0.110362  0  0.971601  0  0  0.114257  0  1.046801  0  0  0.118179  0  1.04141  0  0  0.12352  0.111289  0  1.050428  0
H  H9  1  0.72146372  0.35904643  0.27460189  1  0  0.110273  0  0.971605  0  0  0.114196  0  1.04678  0  0  0.118117  0  1.041392  0  0  0.123478  0.111215  0  1.050418  0
H  H10  1  0.22145709  0.85904963  0.22540213  1  0  0.110319  0  0.971636  0  0  0.114201  0  1.046839  0  0  0.118124  0  1.041451  0  0  0.123474  0.111212  0  1.050484  0
H  H11  1  0.27853989  0.64095293  0.72540025  1  0  0.110346  0  0.971507  0  0  0.114221  0  1.04672  0  0  0.118158  0  1.041316  0  0  0.12349  0.111209  0  1.050384  0
H  H12  1  0.32519642  0.01059488  0.00539647  1  0  0.111616  0  0.961167  0  0  0.12168  0  1.022539  0  0  0.125174  0  1.021127  0  0  0.096399  0.119093  0  1.023753  0
H  H13  1  0.17479510  0.48940260  0.50539051  1  0  0.111683  0  0.961172  0  0  0.121731  0  1.022547  0  0  0.125233  0  1.021121  0  0  0.096426  0.119126  0  1.023781  0
H  H14  1  0.67479685  0.98940552  0.99460766  1  0  0.111722  0  0.961246  0  0  0.121749  0  1.022641  0  0  0.125266  0  1.021202  0  0  0.096417  0.119143  0  1.023874  0
H  H15  1  0.82520428  0.51059348  0.49460765  1  0  0.111685  0  0.961273  0  0  0.121718  0  1.022662  0  0  0.125231  0  1.021228  0  0  0.096389  0.119112  0  1.023895  0
H  H16  1  0.47360474  0.42566468  0.14066772  1  0  0.103305  0  0.966298  0  0  0.10978  0  1.031205  0  0  0.112352  0  1.031544  0  0  0.103916  0.107962  0  1.030995  0
H  H17  1  0.02640302  0.07434004  0.64066767  1  0  0.103297  0  0.966208  0  0  0.109768  0  1.031135  0  0  0.112338  0  1.031475  0  0  0.103894  0.107958  0  1.03093  0
H  H18  1  0.52639451  0.57434119  0.85933177  1  0  0.103291  0  0.966284  0  0  0.109762  0  1.031234  0  0  0.112331  0  1.031576  0  0  0.103879  0.107947  0  1.031024  0
H  H19  1  0.97359995  0.92565389  0.35933115  1  0  0.103337  0  0.966197  0  0  0.109805  0  1.031159  0  0  0.112373  0  1.0315  0  0  0.103893  0.107996  0  1.030953  0
H  H20  1  0.01201037  0.82764139  0.79871463  1  0  0.112404  0  0.963074  0  0  0.115628  0  1.036435  0  0  0.119301  0  1.031199  0  0  0.124308  0.11282  0  1.040042  0
H  H21  1  0.48799070  0.67236044  0.29871293  1  0  0.112385  0  0.963063  0  0  0.115534  0  1.036483  0  0  0.119208  0  1.03125  0  0  0.124269  0.112737  0  1.040089  0
H  H22  1  0.98799277  0.17236668  0.20128420  1  0  0.112416  0  0.963026  0  0  0.115597  0  1.036424  0  0  0.119274  0  1.031187  0  0  0.124299  0.112785  0  1.040031  0
H  H23  1  0.51200868  0.32763564  0.70128656  1  0  0.112321  0  0.963165  0  0  0.115559  0  1.036505  0  0  0.119235  0  1.031269  0  0  0.124276  0.112748  0  1.04011  0
H  H24  1  0.29132040  0.50392902  0.05014003  1  0  0.068211  0  0.993997  0  0  0.074607  0  1.064057  0  0  0.077485  0  1.061208  0  0  0.091379  0.072379  0  1.066238  0
H  H25  1  0.20869105  0.99607935  0.55014137  1  0  0.068186  0  0.993988  0  0  0.07463  0  1.063992  0  0  0.077511  0  1.061144  0  0  0.091383  0.072396  0  1.066179  0
H  H26  1  0.70868099  0.49607687  0.94985747  1  0  0.068224  0  0.994008  0  0  0.074605  0  1.064052  0  0  0.077485  0  1.061202  0  0  0.091378  0.072395  0  1.066218  0
H  H27  1  0.79131157  0.00391349  0.44985613  1  0  0.068222  0  0.994022  0  0  0.07462  0  1.064047  0  0  0.077503  0  1.061197  0  0  0.091386  0.072402  0  1.066222  0
H  H28  1  0.49454166  0.17297396  0.11859650  1  0  0.094781  0  0.977485  0  0  0.100844  0  1.047394  0  0  0.104392  0  1.044157  0  0  0.087417  0.098194  0  1.049837  0
H  H29  1  0.00545687  0.32702517  0.61859092  1  0  0.094748  0  0.977569  0  0  0.100811  0  1.047483  0  0  0.104355  0  1.044254  0  0  0.087389  0.098162  0  1.049924  0
H  H30  1  0.50545405  0.82703081  0.88140563  1  0  0.09475  0  0.977504  0  0  0.100815  0  1.047421  0  0  0.104357  0  1.044196  0  0  0.087397  0.098164  0  1.049866  0
H  H31  1  0.99454255  0.67296765  0.38140659  1  0  0.094699  0  0.977444  0  0  0.100756  0  1.047382  0  0  0.104299  0  1.044154  0  0  0.087352  0.098107  0  1.049825  0
C  C32  1  0.12064550  0.07588589  0.90708817  1  0  0.089577  0  3.62971  0  0  0.043925  0  3.905522  0  0  0.056127  0  3.90924  0  0  0.081754  0.036008  0  3.901394  0
C  C33  1  0.37935435  0.42411675  0.40708555  1  0  0.089471  0  3.629659  0  0  0.043781  0  3.905524  0  0  0.055981  0  3.909255  0  0  0.081713  0.03586  0  3.901402  0
C  C34  1  0.87935021  0.92411887  0.09291661  1  0  0.089594  0  3.629847  0  0  0.043869  0  3.905744  0  0  0.05608  0  3.909472  0  0  0.081724  0.035948  0  3.901618  0
C  C35  1  0.62064887  0.57588480  0.59291526  1  0  0.089548  0  3.629851  0  0  0.043882  0  3.905728  0  0  0.056083  0  3.909469  0  0  0.081781  0.035962  0  3.901595  0
C  C36  1  0.22144467  0.17325333  0.96989632  1  0  0.195753  0  3.788754  0  0  0.195939  0  4.033886  0  0  0.199762  0  4.055482  0  0  0.112978  0.193357  0  4.019585  0
C  C37  1  0.27855246  0.32675067  0.46989352  1  0  0.195818  0  3.788617  0  0  0.196008  0  4.033753  0  0  0.199829  0  4.055353  0  0  0.113022  0.193426  0  4.019448  0
C  C38  1  0.77855245  0.82675254  0.03010714  1  0  0.195619  0  3.788995  0  0  0.195838  0  4.034111  0  0  0.199647  0  4.055735  0  0  0.113024  0.193256  0  4.019796  0
C  C39  1  0.72144542  0.67325084  0.53010531  1  0  0.195814  0  3.789008  0  0  0.195991  0  4.034127  0  0  0.199808  0  4.055742  0  0  0.113081  0.19341  0  4.019806  0
C  C40  1  0.80906024  0.04166868  0.76624013  1  0  0.142251  0  3.627152  0  0  0.07121  0  3.889688  0  0  0.09119  0  3.905646  0  0  0.15749  0.063276  0  3.881493  0
C  C41  1  0.69093815  0.45833391  0.26624018  1  0  0.142148  0  3.627341  0  0  0.071153  0  3.889866  0  0  0.091087  0  3.905806  0  0  0.157522  0.06323  0  3.881683  0
C  C42  1  0.19093551  0.95833282  0.23376068  1  0  0.142079  0  3.627047  0  0  0.071133  0  3.889517  0  0  0.091074  0  3.905469  0  0  0.157477  0.063208  0  3.881363  0
C  C43  1  0.30906981  0.54165895  0.73376262  1  0  0.142119  0  3.627475  0  0  0.071217  0  3.889929  0  0  0.091129  0  3.905868  0  0  0.157582  0.063315  0  3.881786  0
C  C44  1  0.32220450  0.12116278  0.01757312  1  0  -0.12582  0  3.659298  0  0  -0.145958  0  3.901123  0  0  -0.152149  0  3.922172  0  0  -0.075771  -0.141901  0  3.887093  0
C  C45  1  0.17779235  0.37883804  0.51756698  1  0  -0.125841  0  3.659535  0  0  -0.14594  0  3.901333  0  0  -0.152137  0  3.92238  0  0  -0.075795  -0.141866  0  3.887312  0
C  C46  1  0.67779044  0.87884633  0.98242770  1  0  -0.125871  0  3.659468  0  0  -0.14596  0  3.901254  0  0  -0.152164  0  3.922292  0  0  -0.075802  -0.141885  0  3.887229  0
C  C47  1  0.82221070  0.62114935  0.48242589  1  0  -0.125823  0  3.659245  0  0  -0.14591  0  3.901011  0  0  -0.15211  0  3.922049  0  0  -0.075721  -0.141833  0  3.886985  0
C  C48  1  0.40437780  0.35031458  0.09277574  1  0  -0.085596  0  3.67201  0  0  -0.10029  0  3.925329  0  0  -0.105784  0  3.945322  0  0  -0.076884  -0.096877  0  3.912165  0
C  C49  1  0.09563382  0.14968558  0.59277253  1  0  -0.085551  0  3.672024  0  0  -0.10023  0  3.925333  0  0  -0.105721  0  3.945324  0  0  -0.076884  -0.096826  0  3.912176  0
C  C50  1  0.59561714  0.64969453  0.90722507  1  0  -0.085475  0  3.671984  0  0  -0.100187  0  3.925294  0  0  -0.105677  0  3.945283  0  0  -0.076818  -0.096774  0  3.912134  0
C  C51  1  0.90437713  0.85029642  0.40722299  1  0  -0.085533  0  3.672013  0  0  -0.100235  0  3.925294  0  0  -0.105725  0  3.945287  0  0  -0.076842  -0.096827  0  3.912137  0
C  C52  1  0.93109206  0.88113691  0.77853590  1  0  0.115688  0  3.632145  0  0  0.052994  0  3.90486  0  0  0.071028  0  3.919727  0  0  0.147169  0.046232  0  3.897504  0
C  C53  1  0.56890855  0.61886436  0.27853471  1  0  0.115568  0  3.632216  0  0  0.053013  0  3.904972  0  0  0.071001  0  3.919811  0  0  0.147166  0.046238  0  3.89763  0
C  C54  1  0.06890895  0.11887115  0.22146491  1  0  0.115549  0  3.632286  0  0  0.052939  0  3.905026  0  0  0.070936  0  3.919881  0  0  0.147104  0.046182  0  3.897669  0
C  C55  1  0.43109797  0.38113067  0.72146478  1  0  0.115747  0  3.631761  0  0  0.053113  0  3.904511  0  0  0.07109  0  3.919351  0  0  0.147214  0.046357  0  3.897151  0
C  C56  1  0.30219173  0.39524830  0.04201054  1  0  0.141539  0  3.691991  0  0  0.110934  0  3.941217  0  0  0.117794  0  3.958813  0  0  0.04735  0.106443  0  3.92956  0
C  C57  1  0.19781576  0.10475923  0.54201124  1  0  0.141561  0  3.692259  0  0  0.110923  0  3.941465  0  0  0.117779  0  3.959066  0  0  0.047371  0.106437  0  3.929814  0
C  C58  1  0.69781073  0.60475759  0.95799160  1  0  0.141445  0  3.691764  0  0  0.110906  0  3.940996  0  0  0.117766  0  3.958591  0  0  0.047393  0.106399  0  3.929326  0
C  C59  1  0.80218426  0.89524230  0.45798825  1  0  0.141546  0  3.691639  0  0  0.110976  0  3.940889  0  0  0.117834  0  3.958483  0  0  0.047385  0.106475  0  3.929229  0
C  C60  1  0.41574577  0.21137037  0.08015351  1  0  0.004205  0  3.705269  0  0  -0.013535  0  3.954505  0  0  -0.010354  0  3.971961  0  0  -0.071096  -0.015513  0  3.942879  0
C  C61  1  0.08425259  0.28863511  0.58014919  1  0  0.004144  0  3.705185  0  0  -0.013618  0  3.954433  0  0  -0.010435  0  3.971885  0  0  -0.071042  -0.015595  0  3.942805  0
C  C62  1  0.58425242  0.78863550  0.91985062  1  0  0.004137  0  3.705564  0  0  -0.013608  0  3.954816  0  0  -0.01043  0  3.972282  0  0  -0.071106  -0.015582  0  3.943179  0
C  C63  1  0.91574350  0.71136749  0.41984897  1  0  0.004138  0  3.705664  0  0  -0.013597  0  3.954902  0  0  -0.010419  0  3.972366  0  0  -0.071083  -0.01557  0  3.943267  0
I  I64  1  0.16970951  0.70038819  0.96165546  1  0  -0.462762  0  1.244142  0  0  -0.411115  0  1.58809  0  0  -0.433352  0  1.566448  0  0  -0.198233  -0.394911  0  1.602443  0
I  I65  1  0.33028872  0.79961438  0.46164865  1  0  -0.462764  0  1.244124  0  0  -0.411108  0  1.588039  0  0  -0.433351  0  1.566412  0  0  -0.198238  -0.3949  0  1.602392  0
I  I66  1  0.83028689  0.29961875  0.03833940  1  0  -0.462824  0  1.244223  0  0  -0.411113  0  1.588064  0  0  -0.433363  0  1.566449  0  0  -0.198247  -0.394911  0  1.602415  0
I  I67  1  0.66971283  0.20037845  0.53834422  1  0  -0.462802  0  1.244184  0  0  -0.411111  0  1.588068  0  0  -0.433373  0  1.566467  0  0  -0.198243  -0.394906  0  1.602419  0
I  I68  1  0.85645444  0.45189741  0.76030049  1  0  -0.517644  0  1.025458  0  0  -0.472301  0  1.333818  0  0  -0.49325  0  1.313742  0  0  -0.267608  -0.456816  0  1.347214  0
I  I69  1  0.64354825  0.04810192  0.26030185  1  0  -0.517653  0  1.025463  0  0  -0.472308  0  1.333815  0  0  -0.493259  0  1.313736  0  0  -0.267605  -0.45682  0  1.347207  0
I  I70  1  0.14355464  0.54811940  0.23969767  1  0  -0.517627  0  1.025475  0  0  -0.472244  0  1.33379  0  0  -0.493195  0  1.313711  0  0  -0.267593  -0.456757  0  1.347182  0
I  I71  1  0.35643685  0.95186906  0.73969168  1  0  -0.517655  0  1.025532  0  0  -0.472276  0  1.333856  0  0  -0.493228  0  1.31378  0  0  -0.267617  -0.456786  0  1.347239  0
N  N72  1  0.92710857  0.01567347  0.80887132  1  0  0.015536  0  3.588781  0  0  0.128104  0  3.777077  0  0  0.090187  0  3.836438  0  0  -0.122336  0.136459  0  3.759952  0
N  N73  1  0.57289278  0.48432825  0.30887007  1  0  0.015824  0  3.588631  0  0  0.128185  0  3.777131  0  0  0.090421  0  3.836292  0  0  -0.122299  0.136541  0  3.760005  0
N  N74  1  0.07288641  0.98433238  0.19113016  1  0  0.015685  0  3.588542  0  0  0.128138  0  3.776934  0  0  0.090323  0  3.836166  0  0  -0.122271  0.136491  0  3.759804  0
N  N75  1  0.42710908  0.51566893  0.69113075  1  0  0.015727  0  3.588517  0  0  0.128068  0  3.777059  0  0  0.090322  0  3.836213  0  0  -0.122353  0.13642  0  3.759925  0
N  N76  1  0.21311254  0.30964876  0.98160624  1  0  -0.3256  0  3.229405  0  0  -0.253676  0  3.476276  0  0  -0.272274  0  3.497469  0  0  -0.320193  -0.241112  0  3.461857  0
N  N77  1  0.28689035  0.19035315  0.48160520  1  0  -0.325623  0  3.229186  0  0  -0.253722  0  3.476127  0  0  -0.272308  0  3.497291  0  0  -0.320237  -0.24116  0  3.461718  0
N  N78  1  0.78688527  0.69035928  0.01839590  1  0  -0.325429  0  3.229353  0  0  -0.253559  0  3.47628  0  0  -0.272147  0  3.497454  0  0  -0.320247  -0.241021  0  3.461932  0
N  N79  1  0.71311339  0.80963643  0.51839363  1  0  -0.325615  0  3.229685  0  0  -0.253724  0  3.476628  0  0  -0.272311  0  3.497798  0  0  -0.320314  -0.241195  0  3.462309  0
N  N80  1  0.74663679  0.93096507  0.71336300  1  0  -0.249145  0  3.189588  0  0  -0.185836  0  3.480568  0  0  -0.202978  0  3.498188  0  0  -0.243493  -0.173844  0  3.466453  0
N  N81  1  0.75336191  0.56903371  0.21336374  1  0  -0.249033  0  3.189719  0  0  -0.185699  0  3.480644  0  0  -0.202848  0  3.498288  0  0  -0.243472  -0.173706  0  3.466524  0
N  N82  1  0.25336246  0.06904080  0.28663847  1  0  -0.248876  0  3.189342  0  0  -0.185583  0  3.480296  0  0  -0.202724  0  3.497934  0  0  -0.243384  -0.173593  0  3.466178  0
N  N83  1  0.24664349  0.43096458  0.78663508  1  0  -0.248919  0  3.189716  0  0  -0.185602  0  3.48062  0  0  -0.202743  0  3.498266  0  0  -0.243416  -0.173613  0  3.466493  0
N  N84  1  0.01764923  0.11452052  0.86694104  1  0  -0.185639  0  3.063431  0  0  -0.164294  0  3.339602  0  0  -0.16627  0  3.358843  0  0  -0.198994  -0.15767  0  3.33017  0
N  N85  1  0.48235336  0.38548412  0.36693903  1  0  -0.185659  0  3.063329  0  0  -0.164221  0  3.339508  0  0  -0.166244  0  3.358718  0  0  -0.198991  -0.157597  0  3.330077  0
N  N86  1  0.98234652  0.88548098  0.13306110  1  0  -0.185573  0  3.063344  0  0  -0.164166  0  3.33952  0  0  -0.166182  0  3.358747  0  0  -0.198933  -0.157537  0  3.330088  0
N  N87  1  0.51765273  0.61451635  0.63306178  1  0  -0.185657  0  3.063499  0  0  -0.164225  0  3.339665  0  0  -0.166261  0  3.358881  0  0  -0.198988  -0.157596  0  3.33023  0
N  N88  1  0.82298286  0.82969390  0.72074883  1  0  -0.199803  0  2.936948  0  0  -0.184889  0  3.225278  0  0  -0.191713  0  3.239532  0  0  -0.223545  -0.17991  0  3.21372  0
N  N89  1  0.67701728  0.67030602  0.22074907  1  0  -0.199777  0  2.937041  0  0  -0.184872  0  3.225327  0  0  -0.1917  0  3.239598  0  0  -0.223514  -0.179893  0  3.213776  0
N  N90  1  0.17701956  0.17031526  0.27924999  1  0  -0.199899  0  2.93713  0  0  -0.184993  0  3.225454  0  0  -0.191818  0  3.239724  0  0  -0.223614  -0.180014  0  3.213898  0
N  N91  1  0.32298321  0.32968681  0.77925240  1  0  -0.2  0  2.936803  0  0  -0.185113  0  3.225146  0  0  -0.191939  0  3.239419  0  0  -0.223695  -0.180136  0  3.213589  0
