# generated using pymatgen
data_Ni3H28C38(N5O7)2
_symmetry_space_group_name_H-M   'P 1'
_cell_length_a   10.01557821
_cell_length_b   14.56935024
_cell_length_c   19.84224506
_cell_angle_alpha   80.50472632
_cell_angle_beta   75.36343596
_cell_angle_gamma   69.85105196
_symmetry_Int_Tables_number   1
_chemical_formula_structural   Ni3H28C38(N5O7)2
_chemical_formula_sum   'Ni6 H56 C76 N20 O28'
_cell_volume   2620.28633242
_cell_formula_units_Z   2
loop_
 _symmetry_equiv_pos_site_id
 _symmetry_equiv_pos_as_xyz
  1  'x, y, z'
loop_
 _atom_site_type_symbol
 _atom_site_label
 _atom_site_symmetry_multiplicity
 _atom_site_fract_x
 _atom_site_fract_y
 _atom_site_fract_z
 _atom_site_occupancy
 _atom_site_pbe_bader_charge
 _atom_site_pbe_bader_spin_density
 _atom_site_pbe_cm5_charge
 _atom_site_pbe_ddec_charge
 _atom_site_pbe_ddec_spin_density
 _atom_site_pbe_ddec_sum_bond_order
 _atom_site_pbe_magmom
Ni  Ni0  1  0.50000214  0.00000295  0.49999997  1  1.207405  1.555812  0.66907  0.813937  1.789487  2.500024  1.543
Ni  Ni1  1  0.00001443  0.49999287  0.00000076  1  1.206948  1.557004  0.668529  0.813165  1.79069  2.500149  1.544
Ni  Ni2  1  0.14770755  0.78800292  0.59589243  1  1.141711  1.5265  0.631027  0.761958  1.750848  2.48243  1.512
Ni  Ni3  1  0.53139941  0.71197057  0.90455931  1  1.140524  1.526707  0.63082  0.760554  1.749757  2.48389  1.512
Ni  Ni4  1  0.85228713  0.21199814  0.40410463  1  1.14196  1.526477  0.631044  0.761944  1.750818  2.482579  1.512
Ni  Ni5  1  0.46859969  0.28802993  0.09544280  1  1.140582  1.526697  0.630776  0.760491  1.749752  2.483649  1.512
H  H6  1  0.09452522  0.93613886  0.49539413  1  0.611512  0.000643  0.31788  0.394411  0.000491  0.892758  0.0
H  H7  1  0.52576656  0.56372804  0.00493597  1  0.63994  0.000584  0.318218  0.395364  0.0005  0.891605  0.0
H  H8  1  0.90547224  0.06386965  0.50460557  1  0.611491  0.000643  0.317888  0.394427  0.00049  0.89269  0.0
H  H9  1  0.47426376  0.43624718  0.99505856  1  0.639702  0.000584  0.318196  0.395417  0.000499  0.891568  0.0
H  H10  1  0.20448927  0.94068289  0.53954530  1  0.648729  -5.1e-05  0.296658  0.38985  3.2e-05  0.945482  0.0
H  H11  1  0.68459048  0.55922332  0.96091164  1  0.657233  -4.3e-05  0.296303  0.389393  3e-05  0.946119  0.0
H  H12  1  0.79550849  0.05931825  0.46045387  1  0.648735  -5.1e-05  0.296646  0.389867  3.1e-05  0.94546  0.0
H  H13  1  0.31543346  0.44077703  0.03908627  1  0.657519  -4.4e-05  0.29622  0.389195  3e-05  0.946375  0.0
H  H14  1  0.37730387  0.88452818  0.85978973  1  0.453817  -0.000466  0.318963  0.309164  -0.000483  0.906385  -0.001
H  H15  1  0.12213234  0.61536993  0.64065925  1  0.443975  -0.000499  0.318794  0.30881  -0.000485  0.90694  -0.001
H  H16  1  0.62269898  0.11546645  0.14021271  1  0.453786  -0.000465  0.318984  0.309197  -0.000483  0.906403  -0.001
H  H17  1  0.87787842  0.38462095  0.35934118  1  0.444127  -0.000498  0.318746  0.30872  -0.000484  0.907066  -0.001
H  H18  1  0.53857836  0.88928870  0.86462398  1  0.442739  -0.000548  0.316819  0.304723  -0.000524  0.910465  -0.001
H  H19  1  0.29290560  0.61081748  0.63574748  1  0.438333  -0.000526  0.316977  0.30561  -0.000531  0.909243  -0.001
H  H20  1  0.46141254  0.11071610  0.13537506  1  0.442702  -0.000549  0.316744  0.304608  -0.000524  0.910562  -0.001
H  H21  1  0.70709561  0.38918287  0.36425035  1  0.43837  -0.000526  0.316992  0.30562  -0.000531  0.909247  -0.001
H  H22  1  0.75676625  0.83934215  0.77110419  1  0.12934  0.000413  0.111962  0.130374  0.00027  0.998927  0.0
H  H23  1  0.36734515  0.66072506  0.72936861  1  0.142221  0.000395  0.112036  0.130247  0.000274  0.999481  0.0
H  H24  1  0.24323627  0.16065317  0.22889719  1  0.129357  0.000413  0.111971  0.130403  0.00027  0.998979  0.0
H  H25  1  0.63266853  0.33927958  0.27062600  1  0.14249  0.000395  0.112055  0.130321  0.000274  0.999457  0.0
H  H26  1  0.32615588  0.86238426  0.75199644  1  0.091147  0.000135  0.113174  0.126886  -7.5e-05  0.981258  0.0
H  H27  1  0.94086177  0.63744116  0.74836421  1  0.075465  0.000148  0.11303  0.126964  -7.2e-05  0.981276  0.0
H  H28  1  0.67384628  0.13760959  0.24800469  1  0.091102  0.000135  0.113165  0.126867  -7.5e-05  0.981254  0.0
H  H29  1  0.05914219  0.36255994  0.25163416  1  0.075089  0.000148  0.112998  0.126933  -7.1e-05  0.981341  0.0
H  H30  1  0.47544493  0.72178707  0.52999833  1  0.154173  0.001965  0.119209  0.099344  0.000752  1.027265  0.001
H  H31  1  0.72733798  0.77812979  0.97042020  1  0.129073  0.001967  0.119423  0.100093  0.000746  1.027856  0.001
H  H32  1  0.52452705  0.27822528  0.47000564  1  0.154285  0.001965  0.119207  0.099368  0.000752  1.027303  0.001
H  H33  1  0.27266417  0.22186863  0.02958533  1  0.129028  0.001968  0.119452  0.100089  0.000747  1.027894  0.001
H  H34  1  0.62537149  0.67245480  0.41481062  1  0.123512  0.000788  0.117327  0.133957  0.000403  1.00017  0.0
H  H35  1  0.71244898  0.82749595  0.08558497  1  0.140747  0.000777  0.117645  0.133682  0.000402  1.001685  0.0
H  H36  1  0.37460924  0.32756530  0.58518408  1  0.123125  0.000788  0.117336  0.134024  0.000403  1.000191  0.0
H  H37  1  0.28754350  0.17250105  0.91442201  1  0.140746  0.000777  0.117647  0.133791  0.000402  1.001702  0.0
H  H38  1  0.23565375  0.67732189  0.35562317  1  0.100938  0.000942  0.119603  0.130979  0.000495  0.97611  0.0
H  H39  1  0.26813697  0.82329826  0.14463451  1  0.10233  0.000936  0.119289  0.130353  0.000493  0.976741  0.0
H  H40  1  0.76431939  0.32268769  0.64436541  1  0.101077  0.000941  0.11963  0.130964  0.000495  0.976155  0.0
H  H41  1  0.73186228  0.17668405  0.85537313  1  0.102341  0.000936  0.119291  0.130414  0.000493  0.976663  0.0
H  H42  1  0.09563180  0.73019023  0.47564701  1  0.151823  0.001572  0.129678  0.119012  0.000447  0.9837  0.002
H  H43  1  0.30129648  0.77021647  0.02468780  1  0.145783  0.001566  0.12917  0.118547  0.000437  0.983932  0.002
H  H44  1  0.90434715  0.26982025  0.52434623  1  0.152138  0.00157  0.129653  0.119074  0.000446  0.983684  0.002
H  H45  1  0.69870870  0.22977086  0.97531636  1  0.146437  0.001567  0.12921  0.118497  0.000438  0.98387  0.002
H  H46  1  0.89719793  0.65493148  0.22849451  1  0.095494  0.000978  0.114324  0.123781  0.000477  0.987314  0.0
H  H47  1  0.78046365  0.84469958  0.27168842  1  0.114591  0.000974  0.114382  0.123581  0.000477  0.986963  0.0
H  H48  1  0.10277398  0.34507656  0.77151259  1  0.095521  0.000979  0.114261  0.12371  0.000477  0.987319  0.0
H  H49  1  0.21954474  0.15529643  0.72831160  1  0.114622  0.000974  0.114366  0.123548  0.000477  0.98703  0.0
H  H50  1  0.03052139  0.60937319  0.10495448  1  0.171108  0.00175  0.124148  0.109258  0.000605  0.992951  0.001
H  H51  1  0.74478552  0.89020539  0.39522650  1  0.15838  0.001764  0.124065  0.109421  0.000606  0.992595  0.001
H  H52  1  0.96946698  0.39063054  0.89505562  1  0.170918  0.001752  0.124147  0.109244  0.000607  0.992936  0.001
H  H53  1  0.25522354  0.10979144  0.60477584  1  0.158195  0.001763  0.124069  0.109446  0.000606  0.992578  0.001
H  H54  1  0.70001721  0.51997045  0.07930212  1  0.136911  0.001815  0.119553  0.089672  0.000643  1.019587  0.001
H  H55  1  0.29897730  0.97971599  0.42109066  1  0.118366  0.001828  0.119367  0.089661  0.000644  1.019196  0.001
H  H56  1  0.29998671  0.48002853  0.92069857  1  0.136696  0.001816  0.119568  0.089724  0.000643  1.019522  0.001
H  H57  1  0.70102117  0.02028809  0.57890852  1  0.118486  0.001827  0.11943  0.089681  0.000644  1.019358  0.001
H  H58  1  0.54661838  0.56933220  0.19738621  1  0.148758  0.000932  0.115074  0.126577  0.000496  1.000873  0.0
H  H59  1  0.31301864  0.93033059  0.30304567  1  0.125729  0.000943  0.115104  0.127178  0.000493  1.001478  0.0
H  H60  1  0.45337972  0.43066594  0.80261132  1  0.148765  0.000932  0.115084  0.126621  0.000495  1.000874  0.0
H  H61  1  0.68698462  0.06966982  0.69695390  1  0.125347  0.000944  0.115091  0.127168  0.000494  1.001468  0.0
C  C62  1  0.68762889  0.82166096  0.54767104  1  1.639847  0.007432  0.192667  0.577376  0.005679  4.273212  0.005
C  C63  1  0.05652136  0.67854248  0.95272693  1  1.647982  0.007357  0.192349  0.574732  0.00568  4.275066  0.005
C  C64  1  0.31237060  0.17834092  0.45232831  1  1.639001  0.007425  0.192633  0.57726  0.005678  4.273206  0.005
C  C65  1  0.94351895  0.32144254  0.04727453  1  1.64965  0.007354  0.192034  0.574444  0.005678  4.275894  0.005
C  C66  1  0.63842159  0.83097784  0.62585723  1  -0.003355  0.018816  -0.003169  -0.061127  0.010594  3.904676  0.012
C  C67  1  0.09489146  0.66938299  0.87452040  1  -0.010549  0.018709  -0.002339  -0.058273  0.010522  3.900157  0.012
C  C68  1  0.36156903  0.16903656  0.37414253  1  -0.004161  0.018815  -0.003149  -0.06102  0.010593  3.904458  0.012
C  C69  1  0.90513690  0.33060775  0.12547626  1  -0.010453  0.018712  -0.002335  -0.058238  0.010524  3.899991  0.012
C  C70  1  0.73225863  0.82925284  0.66855020  1  -0.02052  -0.000439  -0.016158  -0.044972  -0.001218  3.991411  -0.001
C  C71  1  0.22980746  0.67102472  0.83189690  1  -0.040493  -0.000443  -0.016366  -0.045555  -0.001238  3.988469  -0.001
C  C72  1  0.26773640  0.17075427  0.33145152  1  -0.020058  -0.000439  -0.01622  -0.045047  -0.001217  3.99138  -0.001
C  C73  1  0.77020511  0.32897564  0.16810147  1  -0.040545  -0.000443  -0.016336  -0.045477  -0.001237  3.988115  -0.001
C  C74  1  0.88860585  0.81711068  0.63979862  1  1.508182  -0.004092  0.191555  0.545137  -0.005834  4.185395  -0.006
C  C75  1  0.34512862  0.68317193  0.86069210  1  1.507642  -0.004147  0.189998  0.542189  -0.005812  4.186267  -0.006
C  C76  1  0.11138431  0.18288676  0.36020003  1  1.507972  -0.004093  0.19158  0.545194  -0.005832  4.185736  -0.006
C  C77  1  0.65488739  0.31682544  0.13930473  1  1.507846  -0.004148  0.190076  0.542222  -0.00581  4.186073  -0.006
C  C78  1  0.68067269  0.84079714  0.73998021  1  0.006503  0.016453  -0.082683  -0.176192  0.009355  3.921455  0.01
C  C79  1  0.26149290  0.65934390  0.76046931  1  0.001405  0.01638  -0.082198  -0.175504  0.009304  3.919918  0.01
C  C80  1  0.31932197  0.15920855  0.26002276  1  0.006639  0.01645  -0.082665  -0.176255  0.009353  3.921507  0.01
C  C81  1  0.73852414  0.34065345  0.23952689  1  0.000874  0.016376  -0.082266  -0.175685  0.009302  3.920027  0.01
C  C82  1  0.53544287  0.85116154  0.77086167  1  0.291689  -0.005507  0.082091  0.267145  -0.006749  4.041255  -0.006
C  C83  1  0.15768074  0.64885987  0.72957517  1  0.285339  -0.005552  0.081392  0.266711  -0.006778  4.041074  -0.006
C  C84  1  0.46455453  0.14884040  0.22913945  1  0.291611  -0.005506  0.08208  0.267165  -0.006749  4.041212  -0.006
C  C85  1  0.84233117  0.35114415  0.27042277  1  0.285358  -0.005552  0.081438  0.266769  -0.006778  4.04112  -0.006
C  C86  1  0.44049409  0.85393287  0.72921117  1  -0.004515  0.01659  -0.083124  -0.179287  0.009262  3.919096  0.01
C  C87  1  0.02376233  0.64603858  0.77117333  1  0.021921  0.016566  -0.082744  -0.179715  0.009268  3.919712  0.01
C  C88  1  0.55950262  0.14606606  0.27078794  1  -0.004688  0.016588  -0.083101  -0.179287  0.009261  3.919021  0.01
C  C89  1  0.97624433  0.35395896  0.22882822  1  0.022481  0.016569  -0.082767  -0.179844  0.009269  3.919833  0.01
C  C90  1  0.49087838  0.84631656  0.65721960  1  0.001038  0.001832  -0.014197  -0.053029  1.2e-05  3.987321  0.001
C  C91  1  0.99423238  0.65390389  0.84313532  1  -0.007063  0.001872  -0.014888  -0.053265  3e-05  3.984973  0.001
C  C92  1  0.50911219  0.15369122  0.34278008  1  0.002746  0.001831  -0.014177  -0.052949  1.3e-05  3.987032  0.001
C  C93  1  0.00578495  0.34609290  0.15686595  1  -0.007546  0.001872  -0.014866  -0.053086  3e-05  3.984938  0.001
C  C94  1  0.38234236  0.85534776  0.61469280  1  1.534979  -0.002835  0.223569  0.585274  -0.003211  4.141072  -0.002
C  C95  1  0.85221117  0.64480231  0.88563684  1  1.561596  -0.002877  0.224527  0.587967  -0.003263  4.138311  -0.003
C  C96  1  0.61765957  0.14465324  0.38530282  1  1.533638  -0.002831  0.223583  0.585349  -0.00321  4.141153  -0.002
C  C97  1  0.14779719  0.35519833  0.11436910  1  1.562212  -0.00288  0.224471  0.587933  -0.003261  4.138663  -0.003
C  C98  1  0.42443350  0.71135374  0.49071399  1  0.471801  -0.005606  0.047644  0.107258  -0.006274  3.914129  -0.004
C  C99  1  0.62651210  0.78867439  0.00966862  1  0.469614  -0.005584  0.047037  0.105544  -0.006257  3.913  -0.004
C  C100  1  0.57554231  0.28865919  0.50928587  1  0.47195  -0.005605  0.047605  0.107151  -0.006274  3.913806  -0.004
C  C101  1  0.37349144  0.21132326  0.99033584  1  0.469511  -0.005581  0.047059  0.105675  -0.006254  3.912976  -0.004
C  C102  1  0.50912466  0.68313701  0.42599477  1  -0.012443  0.004244  -0.07349  -0.17848  0.002329  3.895901  0.004
C  C103  1  0.61804388  0.81696486  0.07436945  1  0.016773  0.004074  -0.073784  -0.177136  0.002244  3.897035  0.003
C  C104  1  0.49085153  0.31687955  0.57400354  1  -0.013466  0.004247  -0.073506  -0.178379  0.002331  3.896084  0.004
C  C105  1  0.38194345  0.18303438  0.92563839  1  0.016998  0.00407  -0.073896  -0.177469  0.002242  3.897051  0.003
C  C106  1  0.44074737  0.67123457  0.37581257  1  0.287856  -0.008157  0.099797  0.192002  -0.00961  4.048918  -0.005
C  C107  1  0.48741777  0.82907451  0.12448975  1  0.317429  -0.008195  0.098617  0.189535  -0.009672  4.055653  -0.006
C  C108  1  0.55922747  0.32878039  0.62418210  1  0.289669  -0.008157  0.09963  0.191553  -0.009612  4.0492  -0.005
C  C109  1  0.51257540  0.17091872  0.87551464  1  0.317228  -0.008194  0.098673  0.189809  -0.00967  4.055414  -0.006
C  C110  1  0.29023862  0.68706667  0.39368717  1  0.008989  0.004843  -0.072027  -0.177148  0.002493  3.923076  0.004
C  C111  1  0.37064438  0.81337092  0.10659544  1  -0.004165  0.004871  -0.070863  -0.174666  0.002503  3.926736  0.004
C  C112  1  0.70973516  0.31294383  0.60630624  1  0.008  0.004842  -0.071975  -0.176895  0.002493  3.923029  0.004
C  C113  1  0.62935253  0.18661645  0.89340979  1  -0.003479  0.004868  -0.070963  -0.175006  0.002503  3.926454  0.004
C  C114  1  0.21304210  0.71595242  0.45949372  1  0.450344  -0.007195  0.045039  0.08321  -0.00783  3.933838  -0.004
C  C115  1  0.38830684  0.78441656  0.04080879  1  0.429643  -0.00724  0.045645  0.082781  -0.007874  3.935076  -0.004
C  C116  1  0.78693337  0.28405218  0.54049929  1  0.450441  -0.007197  0.045009  0.083116  -0.007833  3.933553  -0.004
C  C117  1  0.61169111  0.21557079  0.95919580  1  0.42887  -0.007235  0.045704  0.083063  -0.007872  3.934888  -0.004
C  C118  1  0.71192078  0.61593705  0.22166983  1  0.302624  -0.003989  0.096679  0.188758  -0.004907  4.053833  -0.003
C  C119  1  0.54932377  0.88384813  0.27864274  1  0.281755  -0.004014  0.096904  0.189794  -0.004939  4.052344  -0.003
C  C120  1  0.28805526  0.38406419  0.77833213  1  0.303033  -0.003991  0.096697  0.188671  -0.004908  4.053792  -0.003
C  C121  1  0.45068633  0.11614639  0.72135676  1  0.281895  -0.004017  0.096964  0.189886  -0.004943  4.052248  -0.003
C  C122  1  0.84989865  0.62682335  0.19587130  1  0.038805  0.001414  -0.072647  -0.184602  0.000241  3.928775  0.002
C  C123  1  0.67246558  0.87283284  0.30438101  1  -0.039834  0.001424  -0.073092  -0.184219  0.000196  3.927308  0.002
C  C124  1  0.15007600  0.37318097  0.80413444  1  0.038239  0.001418  -0.072543  -0.184319  0.000243  3.92832  0.002
C  C125  1  0.32754864  0.12716174  0.69561996  1  -0.039376  0.001423  -0.073138  -0.18427  0.000196  3.92752  0.002
C  C126  1  0.92410698  0.60128584  0.12889462  1  0.408831  -0.004169  0.05341  0.106672  -0.004879  3.908967  -0.003
C  C127  1  0.65414650  0.89832440  0.37135706  1  0.494377  -0.004213  0.052748  0.105037  -0.004867  3.91105  -0.003
C  C128  1  0.07588417  0.39871860  0.87111452  1  0.409035  -0.004171  0.053245  0.106322  -0.00488  3.909023  -0.003
C  C129  1  0.34584950  0.10167836  0.62864665  1  0.494128  -0.004214  0.052743  0.105015  -0.004869  3.910955  -0.003
C  C130  1  0.73570905  0.55403876  0.11332210  1  0.522039  -0.002729  0.047939  0.097117  -0.003263  3.950334  -0.002
C  C131  1  0.40280354  0.94559850  0.38703253  1  0.490452  -0.002735  0.048166  0.098495  -0.003257  3.948478  -0.002
C  C132  1  0.26429145  0.44595866  0.88667622  1  0.522503  -0.00273  0.047891  0.096916  -0.003265  3.950381  -0.002
C  C133  1  0.59720184  0.05440397  0.61296295  1  0.490031  -0.002737  0.048062  0.098526  -0.00326  3.948435  -0.002
C  C134  1  0.65270026  0.57983856  0.17873319  1  -0.079247  0.003173  -0.07665  -0.183692  0.001584  3.923197  0.003
C  C135  1  0.41102317  0.91981896  0.32164610  1  0.002946  0.00306  -0.076635  -0.185636  0.001512  3.925977  0.003
C  C136  1  0.34729755  0.42016466  0.82126266  1  -0.079374  0.003177  -0.076591  -0.183648  0.001586  3.923229  0.003
C  C137  1  0.58897878  0.08018420  0.67834821  1  0.003213  0.003061  -0.076689  -0.185773  0.001513  3.926088  0.003
N  N138  1  0.86888216  0.56393369  0.08861664  1  -1.194718  0.065343  -0.321008  -0.217268  0.038462  3.565599  0.058
N  N139  1  0.52125260  0.93573836  0.41164063  1  -1.19893  0.065104  -0.320031  -0.216739  0.038292  3.566893  0.058
N  N140  1  0.13112103  0.43606019  0.91138536  1  -1.19462  0.065362  -0.320962  -0.216921  0.038469  3.565749  0.058
N  N141  1  0.47874582  0.06426136  0.58836017  1  -1.198594  0.065116  -0.319924  -0.21664  0.038299  3.566583  0.058
N  N142  1  0.48737824  0.85366862  0.84475364  1  -1.16229  0.077309  -0.581026  -0.578197  0.044361  3.430984  0.065
N  N143  1  0.18611546  0.64635730  0.65566180  1  -1.141602  0.077107  -0.580848  -0.579113  0.044232  3.430463  0.065
N  N144  1  0.51262356  0.14632375  0.15524724  1  -1.162173  0.077317  -0.580977  -0.57812  0.044365  3.430957  0.065
N  N145  1  0.81388780  0.35364313  0.34433827  1  -1.141627  0.077118  -0.580821  -0.578989  0.044238  3.430549  0.065
N  N146  1  0.27861303  0.72858358  0.50754440  1  -1.213266  0.063297  -0.336271  -0.260062  0.036829  3.625479  0.058
N  N147  1  0.51474849  0.77151128  0.99279986  1  -1.220267  0.062869  -0.335909  -0.258656  0.036641  3.623968  0.057
N  N148  1  0.72136357  0.27142292  0.49244013  1  -1.213493  0.063286  -0.336296  -0.260174  0.036823  3.624976  0.058
N  N149  1  0.48525747  0.22848330  0.00720118  1  -1.220763  0.062861  -0.335882  -0.25872  0.036638  3.624124  0.057
N  N150  1  0.51055731  0.64488497  0.30729154  1  -0.471168  -0.005903  -0.147205  -0.136564  -0.006109  3.256661  -0.003
N  N151  1  0.46233357  0.85534714  0.19300472  1  -0.467265  -0.006093  -0.146261  -0.135571  -0.006293  3.255336  -0.003
N  N152  1  0.48940962  0.35513600  0.69270685  1  -0.470742  -0.005903  -0.147032  -0.13633  -0.006107  3.256542  -0.003
N  N153  1  0.53766407  0.14464765  0.80700190  1  -0.46767  -0.006099  -0.146298  -0.135707  -0.006299  3.255534  -0.003
N  N154  1  0.64322157  0.64135169  0.29044330  1  -0.463975  -0.011465  -0.142447  -0.128409  -0.01214  3.261585  -0.008
N  N155  1  0.57475942  0.85860025  0.20982608  1  -0.467768  -0.011744  -0.143232  -0.128867  -0.012442  3.258971  -0.008
N  N156  1  0.35675145  0.35865605  0.70955513  1  -0.464492  -0.011459  -0.142463  -0.12838  -0.012134  3.261332  -0.008
N  N157  1  0.42524073  0.14140020  0.79017439  1  -0.467445  -0.011747  -0.143206  -0.128808  -0.012445  3.258985  -0.008
O  O158  1  0.37647486  0.91182490  0.55795907  1  -1.151099  0.062481  -0.292088  -0.546141  0.035403  2.409048  0.058
O  O159  1  0.84608717  0.58844018  0.94243124  1  -1.152677  0.062667  -0.292176  -0.547493  0.035513  2.410971  0.059
O  O160  1  0.62352743  0.08818210  0.44203971  1  -1.15105  0.062484  -0.292026  -0.54621  0.035405  2.409286  0.058
O  O161  1  0.15392739  0.41155366  0.05756979  1  -1.153051  0.062694  -0.292128  -0.547436  0.035528  2.411118  0.059
O  O162  1  0.70093102  0.90157077  0.51068468  1  -1.153438  0.063186  -0.342081  -0.594606  0.03496  2.312592  0.054
O  O163  1  0.11293533  0.59846792  0.98953975  1  -1.16005  0.06307  -0.341252  -0.593066  0.034838  2.312534  0.054
O  O164  1  0.29906510  0.09843837  0.48931208  1  -1.153555  0.063154  -0.342029  -0.594472  0.034939  2.312806  0.054
O  O165  1  0.88710863  0.40149795  0.01046086  1  -1.161131  0.063031  -0.341132  -0.592818  0.034816  2.313064  0.054
O  O166  1  0.95482225  0.77529374  0.58296962  1  -1.129417  0.092505  -0.3147  -0.528434  0.051882  2.220663  0.083
O  O167  1  0.31251692  0.72505088  0.91749213  1  -1.13046  0.092621  -0.313643  -0.527035  0.051921  2.219371  0.083
O  O168  1  0.04517344  0.22470513  0.41702812  1  -1.129396  0.092505  -0.314698  -0.528418  0.051879  2.220848  0.083
O  O169  1  0.68749145  0.27494519  0.08250940  1  -1.130447  0.092609  -0.313714  -0.527026  0.051913  2.219276  0.083
O  O170  1  0.95973369  0.84569664  0.67259117  1  -1.127696  0.08768  -0.313501  -0.504308  0.049323  2.154152  0.078
O  O171  1  0.47776293  0.65439616  0.82796947  1  -1.11866  0.0876  -0.313203  -0.503287  0.049389  2.157051  0.078
O  O172  1  0.04026369  0.15429856  0.32740686  1  -1.127605  0.087673  -0.31354  -0.5044  0.049317  2.154351  0.078
O  O173  1  0.52225373  0.34560433  0.17203239  1  -1.118444  0.087609  -0.313309  -0.503448  0.049391  2.15689  0.078
O  O174  1  0.29678745  0.80492026  0.63892684  1  -1.130675  0.070551  -0.300623  -0.513612  0.039989  2.390323  0.065
O  O175  1  0.74039256  0.69503517  0.86132666  1  -1.142856  0.070973  -0.301443  -0.515096  0.040215  2.390575  0.065
O  O176  1  0.70321486  0.19507760  0.36106312  1  -1.130878  0.070558  -0.300624  -0.513568  0.039993  2.390255  0.065
O  O177  1  0.25960864  0.30497203  0.13867778  1  -1.143116  0.070971  -0.30139  -0.515046  0.040212  2.390722  0.065
O  O178  1  0.10682038  0.93368080  0.54296108  1  -1.209127  0.059505  -0.559333  -0.723928  0.033834  2.103879  0.051
O  O179  1  0.58333465  0.56638251  0.95741159  1  -1.246286  0.059401  -0.55858  -0.723516  0.03372  2.105606  0.051
O  O180  1  0.89317772  0.06631960  0.45703815  1  -1.209056  0.059504  -0.559337  -0.723973  0.033835  2.103804  0.051
O  O181  1  0.41668825  0.43361557  0.04258475  1  -1.246432  0.059409  -0.558454  -0.723339  0.03372  2.10566  0.051
O  O182  1  0.70341871  0.74318356  0.52495371  1  -1.151267  0.030688  -0.336143  -0.536758  0.016728  2.055989  0.026
O  O183  1  0.97113137  0.75699672  0.97557731  1  -1.156808  0.030579  -0.336471  -0.536486  0.016669  2.057149  0.025
O  O184  1  0.29658636  0.25682862  0.47504600  1  -1.150276  0.030698  -0.336212  -0.53686  0.016733  2.055475  0.026
O  O185  1  0.02892562  0.24297462  0.02443245  1  -1.157519  0.030583  -0.336275  -0.536493  0.016671  2.057046  0.025
