# generated using pymatgen
data_H12Au2C13(SCl)2
_symmetry_space_group_name_H-M   'P 1'
_cell_length_a   7.40787836
_cell_length_b   10.52745276
_cell_length_c   11.16744013
_cell_angle_alpha   118.11050075
_cell_angle_beta   97.75729851
_cell_angle_gamma   90.00940580
_symmetry_Int_Tables_number   1
_chemical_formula_structural   H12Au2C13(SCl)2
_chemical_formula_sum   'H24 Au4 C26 S4 Cl4'
_cell_volume   759.11535330
_cell_formula_units_Z   2
loop_
 _symmetry_equiv_pos_site_id
 _symmetry_equiv_pos_as_xyz
  1  'x, y, z'
loop_
 _atom_site_type_symbol
 _atom_site_label
 _atom_site_symmetry_multiplicity
 _atom_site_fract_x
 _atom_site_fract_y
 _atom_site_fract_z
 _atom_site_occupancy
 _atom_site_pbe_bader_spin_density
 _atom_site_pbe_cm5_charge
 _atom_site_pbe_ddec_charge
 _atom_site_pbe_ddec_spin_density
 _atom_site_pbe_ddec_sum_bond_order
 _atom_site_pbe_magmom
H  H0  1  0.84112772  0.84438123  0.31447772  1  0  0.092212  0.102973  0  1.048096  0
H  H1  1  0.65930307  0.52990539  0.68627175  1  0  0.091839  0.10313  0  1.047843  0
H  H2  1  0.15888524  0.15561863  0.68552672  1  0  0.092238  0.103016  0  1.048123  0
H  H3  1  0.34068330  0.47010198  0.31373015  1  0  0.091795  0.102989  0  1.047955  0
H  H4  1  0.75924613  0.05470995  0.52309809  1  0  0.095285  0.093959  0  1.031913  0
H  H5  1  0.74118447  0.53097943  0.47726753  1  0  0.095585  0.094156  0  1.03197  0
H  H6  1  0.24076954  0.94528992  0.47690212  1  0  0.095264  0.093942  0  1.031893  0
H  H7  1  0.25880151  0.46902363  0.52273151  1  0  0.095551  0.094116  0  1.031961  0
H  H8  1  0.76066804  0.29755861  0.54090037  1  0  0.092518  0.100153  0  1.028492  0
H  H9  1  0.73934943  0.75556678  0.45871989  1  0  0.092171  0.100011  0  1.028936  0
H  H10  1  0.23934315  0.70243693  0.45909662  1  0  0.092546  0.100197  0  1.028472  0
H  H11  1  0.26064668  0.24444277  0.54128650  1  0  0.092236  0.100084  0  1.028935  0
H  H12  1  0.84424561  0.33326201  0.34775665  1  0  0.086077  0.082807  0  1.059257  0
H  H13  1  0.65585247  0.98460886  0.65134093  1  0  0.086502  0.083095  0  1.058274  0
H  H14  1  0.15575750  0.66673460  0.65224101  1  0  0.086062  0.082769  0  1.059297  0
H  H15  1  0.34414326  0.01539637  0.34866440  1  0  0.08654  0.083193  0  1.058179  0
H  H16  1  0.91560376  0.12397963  0.13727111  1  0  0.08401  0.078671  0  1.083883  0
H  H17  1  0.58494529  0.98662224  0.86239052  1  0  0.083903  0.07894  0  1.083968  0
H  H18  1  0.08440636  0.87601915  0.86272902  1  0  0.083988  0.078612  0  1.083948  0
H  H19  1  0.41505054  0.01338406  0.13761530  1  0  0.083915  0.078937  0  1.083935  0
H  H20  1  0.71120915  0.67871670  0.08292172  1  0  0.09616  0.145194  0  1.028507  0
H  H21  1  0.78863813  0.59596309  0.91779022  1  0  0.095976  0.14497  0  1.028219  0
H  H22  1  0.28879143  0.32128207  0.91707668  1  0  0.096163  0.145195  0  1.028492  0
H  H23  1  0.21135826  0.40403459  0.08220643  1  0  0.095982  0.144999  0  1.02825  0
Au  Au24  1  0.18538834  0.73770963  0.13776059  1  0  0.235707  0.062286  0  2.870302  0
Au  Au25  1  0.31494598  0.60000556  0.86247663  1  0  0.236303  0.063348  0  2.869141  0
Au  Au26  1  0.81461313  0.26228374  0.86223727  1  0  0.235721  0.062321  0  2.870331  0
Au  Au27  1  0.68505596  0.39999320  0.13752189  1  0  0.236312  0.06334  0  2.869144  0
C  C28  1  0.87864171  0.97234117  0.21313282  1  0  -0.025147  0.026314  0  4.003487  0
C  C29  1  0.62183894  0.75919129  0.78708844  1  0  -0.025524  0.025412  0  4.00208  0
C  C30  1  0.12135565  0.02765219  0.78686110  1  0  -0.025142  0.0263  0  4.003657  0
C  C31  1  0.37815796  0.24081178  0.21291603  1  0  -0.025572  0.025224  0  4.002208  0
C  C32  1  0.83724304  0.95115590  0.32136562  1  0  -0.09295  -0.118285  0  3.97207  0
C  C33  1  0.66315310  0.62959607  0.67905385  1  0  -0.092169  -0.117516  0  3.971398  0
C  C34  1  0.16276406  0.04883964  0.67863190  1  0  -0.092973  -0.118345  0  3.972293  0
C  C35  1  0.33683161  0.37040806  0.32094556  1  0  -0.092125  -0.117301  0  3.971368  0
C  C36  1  0.79316307  0.06919260  0.43817585  1  0  -0.08429  -0.054926  0  3.9586  0
C  C37  1  0.70719178  0.63045365  0.56205063  1  0  -0.084857  -0.055626  0  3.960102  0
C  C38  1  0.20684714  0.93080726  0.56182388  1  0  -0.084259  -0.054879  0  3.958552  0
C  C39  1  0.29279702  0.36955049  0.43795093  1  0  -0.084776  -0.055511  0  3.959838  0
C  C40  1  0.79435775  0.20667553  0.44824435  1  0  -0.082927  -0.05534  0  3.947718  0
C  C41  1  0.70582304  0.75761606  0.55154574  1  0  -0.082442  -0.054837  0  3.946915  0
C  C42  1  0.20564126  0.79332108  0.55175027  1  0  -0.082943  -0.055399  0  3.947661  0
C  C43  1  0.29417405  0.24238917  0.44845882  1  0  -0.082505  -0.05496  0  3.946845  0
C  C44  1  0.83943284  0.22643514  0.34067502  1  0  -0.091971  -0.066026  0  3.988573  0
C  C45  1  0.66084609  0.88512382  0.65889550  1  0  -0.092117  -0.066284  0  3.986193  0
C  C46  1  0.16057444  0.77356256  0.65932080  1  0  -0.092001  -0.066049  0  3.988585  0
C  C47  1  0.33915218  0.11487925  0.34110999  1  0  -0.09218  -0.066415  0  3.986226  0
C  C48  1  0.87979985  0.10896502  0.22149983  1  0  -0.096622  -0.116964  0  3.990258  0
C  C49  1  0.62071238  0.88727440  0.77834671  1  0  -0.096777  -0.11722  0  3.988274  0
C  C50  1  0.12020461  0.89103159  0.77849527  1  0  -0.096566  -0.116841  0  3.990384  0
C  C51  1  0.37928462  0.11272975  0.22165825  1  0  -0.096786  -0.117173  0  3.988284  0
C  C52  1  0.75001179  0.69670585  0.00031007  1  0  -0.143001  -0.251529  0  3.769271  0
C  C53  1  0.24998743  0.30329291  0.99968910  1  0  -0.143006  -0.251576  0  3.769312  0
S  S54  1  0.94461040  0.82880420  0.06234374  1  0  0.029576  0.179725  0  3.495746  0
S  S55  1  0.55562677  0.76670719  0.93797206  1  0  0.029031  0.178966  0  3.49404  0
S  S56  1  0.05539252  0.17119025  0.93765384  1  0  0.029554  0.179701  0  3.49574  0
S  S57  1  0.44437003  0.23329480  0.06203192  1  0  0.029037  0.179057  0  3.494034  0
Cl  Cl58  1  0.44278205  0.67891988  0.23387278  1  0  -0.26588  -0.334731  0  1.600934  0
Cl  Cl59  1  0.05748861  0.44510938  0.76644845  1  0  -0.266175  -0.334803  0  1.600029  0
Cl  Cl60  1  0.55722234  0.32107565  0.76612540  1  0  -0.265895  -0.33475  0  1.600956  0
Cl  Cl61  1  0.94251207  0.55489046  0.23355222  1  0  -0.266184  -0.334813  0  1.600057  0
