# generated using pymatgen
data_CdH16C26N2(OF)6
_symmetry_space_group_name_H-M   'P 1'
_cell_length_a   7.80112780
_cell_length_b   7.78858767
_cell_length_c   21.58300000
_cell_angle_alpha   93.16593388
_cell_angle_beta   93.16083954
_cell_angle_gamma   98.32850608
_symmetry_Int_Tables_number   1
_chemical_formula_structural   CdH16C26N2(OF)6
_chemical_formula_sum   'Cd2 H32 C52 N4 O12 F12'
_cell_volume   1292.91921444
_cell_formula_units_Z   2
loop_
 _symmetry_equiv_pos_site_id
 _symmetry_equiv_pos_as_xyz
  1  'x, y, z'
loop_
 _atom_site_type_symbol
 _atom_site_label
 _atom_site_symmetry_multiplicity
 _atom_site_fract_x
 _atom_site_fract_y
 _atom_site_fract_z
 _atom_site_occupancy
 _atom_site_hle17_bader_spin_density
 _atom_site_hle17_ddec_charge
 _atom_site_hle17_ddec_spin_density
 _atom_site_hle17_ddec_sum_bond_order
 _atom_site_hle17_magmom
 _atom_site_hse06_10hf_bader_spin_density
 _atom_site_hse06_10hf_ddec_charge
 _atom_site_hse06_10hf_ddec_spin_density
 _atom_site_hse06_10hf_ddec_sum_bond_order
 _atom_site_hse06_10hf_magmom
 _atom_site_hse06_bader_spin_density
 _atom_site_hse06_ddec_charge
 _atom_site_hse06_ddec_spin_density
 _atom_site_hse06_ddec_sum_bond_order
 _atom_site_hse06_magmom
 _atom_site_pbe_bader_charge
 _atom_site_pbe_bader_spin_density
 _atom_site_pbe_cm5_charge
 _atom_site_pbe_ddec_charge
 _atom_site_pbe_ddec_spin_density
 _atom_site_pbe_ddec_sum_bond_order
 _atom_site_pbe_magmom
Cd  Cd0  1  0.36658216  0.63339070  0.74999561  1  0  1.12006  0  1.766757  0  0  0.932905  0  2.219263  0  0  0.987283  0  2.167335  0  1.301231  0  0.783559  0.894386  0  2.254674  0
Cd  Cd1  1  0.63341880  0.36660852  0.25000411  1  0  1.120068  0  1.766715  0  0  0.932909  0  2.219221  0  0  0.98729  0  2.167292  0  1.301238  0  0.783567  0.894393  0  2.254625  0
H  H2  1  0.45715975  0.75624758  0.96479514  1  0  0.1372  0  0.985601  0  0  0.136608  0  1.062014  0  0  0.142447  0  1.059454  0  0.138071  0  0.094964  0.132451  0  1.064022  0
H  H3  1  0.24375648  0.54293678  0.53519825  1  0  0.138381  0  0.983823  0  0  0.136736  0  1.062126  0  0  0.142563  0  1.059584  0  0.13844  0  0.095008  0.132574  0  1.064143  0
H  H4  1  0.54284069  0.24375684  0.03520514  1  0  0.137206  0  0.985581  0  0  0.1366  0  1.062003  0  0  0.142453  0  1.059427  0  0.138085  0  0.094972  0.132444  0  1.064009  0
H  H5  1  0.75624556  0.45706114  0.46480055  1  0  0.138384  0  0.983818  0  0  0.136746  0  1.062084  0  0  0.142572  0  1.059543  0  0.138074  0  0.095022  0.132584  0  1.064103  0
H  H6  1  0.19496834  0.44121203  0.09023913  1  0  0.093639  0  0.954845  0  0  0.100557  0  1.018252  0  0  0.102539  0  1.016933  0  0.096302  0  0.119462  0.099102  0  1.019224  0
H  H7  1  0.55882704  0.80505226  0.40976642  1  0  0.093641  0  0.954567  0  0  0.10057  0  1.017835  0  0  0.102539  0  1.01654  0  0.095819  0  0.119482  0.09912  0  1.018798  0
H  H8  1  0.80503114  0.55878588  0.90976147  1  0  0.093638  0  0.954856  0  0  0.100559  0  1.018259  0  0  0.10254  0  1.016943  0  0.096314  0  0.119479  0.099104  0  1.019231  0
H  H9  1  0.44117045  0.19494956  0.59023283  1  0  0.093667  0  0.954605  0  0  0.100582  0  1.017884  0  0  0.102551  0  1.016589  0  0.095845  0  0.119493  0.099133  0  1.018844  0
H  H10  1  0.99456593  0.17392144  0.01785069  1  0  0.129227  0  0.943867  0  0  0.137375  0  1.003243  0  0  0.141359  0  1.00091  0  0.101477  0  0.107074  0.134513  0  1.005072  0
H  H11  1  0.82597883  0.00534285  0.48215728  1  0  0.129564  0  0.942942  0  0  0.137305  0  1.003121  0  0  0.141291  0  1.00079  0  0.102433  0  0.107083  0.134438  0  1.004957  0
H  H12  1  0.00543612  0.82607647  0.98214904  1  0  0.129195  0  0.943914  0  0  0.137364  0  1.00327  0  0  0.141347  0  1.000938  0  0.1015  0  0.107078  0.134501  0  1.005099  0
H  H13  1  0.17402251  0.99465897  0.51784204  1  0  0.129552  0  0.942976  0  0  0.137289  0  1.003159  0  0  0.141275  0  1.000827  0  0.102262  0  0.107053  0.134421  0  1.004996  0
H  H14  1  0.06713754  0.24409881  0.89869932  1  0  0.124637  0  0.968071  0  0  0.129976  0  1.03712  0  0  0.133022  0  1.034711  0  0.100891  0  0.104717  0.127753  0  1.03885  0
H  H15  1  0.75579519  0.93278388  0.60129812  1  0  0.124508  0  0.968304  0  0  0.130152  0  1.036962  0  0  0.133209  0  1.034554  0  0.099849  0  0.104693  0.127912  0  1.03872  0
H  H16  1  0.93286618  0.75590170  0.10130049  1  0  0.124693  0  0.967997  0  0  0.130006  0  1.037083  0  0  0.133052  0  1.034673  0  0.10095  0  0.104739  0.127786  0  1.038809  0
H  H17  1  0.24420686  0.06721403  0.39870114  1  0  0.124518  0  0.968275  0  0  0.130167  0  1.036935  0  0  0.133226  0  1.034524  0  0.099838  0  0.104696  0.127927  0  1.038695  0
H  H18  1  0.97088601  0.65183646  0.70616639  1  0  0.07927  0  0.963885  0  0  0.085105  0  1.031018  0  0  0.087414  0  1.029685  0  0.126969  0  0.111267  0.083435  0  1.03196  0
H  H19  1  0.34763312  0.02924198  0.79378824  1  0  0.079464  0  0.963553  0  0  0.085464  0  1.03053  0  0  0.087817  0  1.029169  0  0.131189  0  0.111335  0.083793  0  1.031449  0
H  H20  1  0.02911494  0.34816276  0.29383426  1  0  0.079223  0  0.963954  0  0  0.085093  0  1.031047  0  0  0.087402  0  1.029713  0  0.126976  0  0.111263  0.083424  0  1.031989  0
H  H21  1  0.65236675  0.97075854  0.20621241  1  0  0.079483  0  0.963559  0  0  0.085482  0  1.030531  0  0  0.087835  0  1.029168  0  0.131192  0  0.111353  0.083812  0  1.031449  0
H  H22  1  0.74969957  0.84876244  0.70707518  1  0  0.116576  0  0.979458  0  0  0.124467  0  1.043917  0  0  0.128216  0  1.041886  0  0.125382  0  0.108741  0.121756  0  1.045579  0
H  H23  1  0.15093712  0.25064052  0.79293599  1  0  0.116355  0  0.979906  0  0  0.124193  0  1.044318  0  0  0.127953  0  1.042271  0  0.123712  0  0.108705  0.121467  0  1.046012  0
H  H24  1  0.25029991  0.15123547  0.29292449  1  0  0.116565  0  0.979479  0  0  0.124461  0  1.043942  0  0  0.12821  0  1.041911  0  0.125389  0  0.108745  0.121754  0  1.045593  0
H  H25  1  0.84906255  0.74935870  0.20706418  1  0  0.116375  0  0.979895  0  0  0.124215  0  1.044305  0  0  0.127975  0  1.042258  0  0.123704  0  0.108709  0.121489  0  1.046  0
H  H26  1  0.39884752  0.25126335  0.69454678  1  0  0.075778  0  0.951316  0  0  0.08519  0  1.014332  0  0  0.087151  0  1.013351  0  0.121541  0  0.114584  0.083723  0  1.015168  0
H  H27  1  0.74860103  0.60160797  0.80551121  1  0  0.075865  0  0.952088  0  0  0.085228  0  1.015118  0  0  0.087222  0  1.01408  0  0.119208  0  0.11466  0.083713  0  1.016025  0
H  H28  1  0.60115196  0.74873456  0.30545242  1  0  0.075814  0  0.951335  0  0  0.085215  0  1.014366  0  0  0.087174  0  1.013388  0  0.121455  0  0.114618  0.083749  0  1.015202  0
H  H29  1  0.25139736  0.39839124  0.19448893  1  0  0.075844  0  0.952074  0  0  0.085223  0  1.015088  0  0  0.087195  0  1.014074  0  0.119441  0  0.114649  0.083704  0  1.015994  0
H  H30  1  0.59874203  0.03045774  0.69238931  1  0  0.112467  0  0.971875  0  0  0.121424  0  1.035183  0  0  0.124716  0  1.034127  0  0.127826  0  0.108919  0.119004  0  1.036181  0
H  H31  1  0.96921699  0.40149761  0.80759435  1  0  0.112802  0  0.971397  0  0  0.121614  0  1.034825  0  0  0.124857  0  1.033856  0  0.127913  0  0.109187  0.119245  0  1.035771  0
H  H32  1  0.40125765  0.96954147  0.30760993  1  0  0.112469  0  0.971871  0  0  0.121419  0  1.035186  0  0  0.12471  0  1.034132  0  0.127851  0  0.108912  0.118999  0  1.036184  0
H  H33  1  0.03078120  0.59850031  0.19240530  1  0  0.11281  0  0.971375  0  0  0.121621  0  1.034804  0  0  0.124864  0  1.033835  0  0.127898  0  0.109203  0.119252  0  1.03575  0
C  C34  1  0.53636901  0.83181850  0.87685084  1  0  0.234154  0  3.929676  0  0  0.218089  0  4.200152  0  0  0.238714  0  4.209753  0  0.731428  0  0.086969  0.204472  0  4.193365  0
C  C35  1  0.16819730  0.46367436  0.62313801  1  0  0.234574  0  3.928038  0  0  0.217796  0  4.199737  0  0  0.23844  0  4.20929  0  0.731434  0  0.086788  0.20417  0  4.192957  0
C  C36  1  0.46363214  0.16818201  0.12314984  1  0  0.234322  0  3.929475  0  0  0.21815  0  4.200002  0  0  0.238788  0  4.209581  0  0.735497  0  0.08703  0.204539  0  4.193212  0
C  C37  1  0.83180148  0.53632746  0.37686126  1  0  0.234492  0  3.928047  0  0  0.217694  0  4.199727  0  0  0.238337  0  4.209278  0  0.73142  0  0.086748  0.20407  0  4.192947  0
C  C38  1  0.43860628  0.72370029  0.91504067  1  0  -0.379233  0  3.760012  0  0  -0.422315  0  4.039904  0  0  -0.444524  0  4.058063  0  -0.015896  0  -0.160164  -0.407616  0  4.027535  0
C  C39  1  0.27628027  0.56147486  0.58495148  1  0  -0.378086  0  3.757961  0  0  -0.422067  0  4.040273  0  0  -0.44428  0  4.058457  0  -0.018435  0  -0.15996  -0.407389  0  4.027872  0
C  C40  1  0.56139506  0.27630153  0.08495958  1  0  -0.379316  0  3.759916  0  0  -0.42236  0  4.039837  0  0  -0.444587  0  4.057981  0  -0.019736  0  -0.160165  -0.407663  0  4.027466  0
C  C41  1  0.72372088  0.43852566  0.41504781  1  0  -0.378016  0  3.757946  0  0  -0.42199  0  4.040269  0  0  -0.444202  0  4.058458  0  -0.018038  0  -0.159947  -0.407313  0  4.027867  0
C  C42  1  0.31740497  0.57193820  0.89593885  1  0  0.410149  0  3.843911  0  0  0.391293  0  4.107852  0  0  0.420373  0  4.10946  0  0.799397  0  0.119711  0.371878  0  4.106194  0
C  C43  1  0.42802304  0.68259066  0.60405491  1  0  0.409335  0  3.84523  0  0  0.390562  0  4.108804  0  0  0.419635  0  4.110434  0  0.800028  0  0.119674  0.371227  0  4.107009  0
C  C44  1  0.68259638  0.42806361  0.10406186  1  0  0.410123  0  3.84405  0  0  0.39128  0  4.107997  0  0  0.420361  0  4.109607  0  0.799453  0  0.119656  0.371867  0  4.106339  0
C  C45  1  0.57197683  0.31740985  0.39594435  1  0  0.409336  0  3.845151  0  0  0.390578  0  4.108722  0  0  0.419651  0  4.110353  0  0.800076  0  0.119749  0.371244  0  4.106927  0
C  C46  1  0.23784406  0.47026807  0.94433222  1  0  0.095038  0  3.697272  0  0  0.087662  0  3.959085  0  0  0.085919  0  3.976047  0  0.352118  0  0.055752  0.08848  0  3.947698  0
C  C47  1  0.52970910  0.76212094  0.55567191  1  0  0.095569  0  3.696761  0  0  0.088204  0  3.958228  0  0  0.086461  0  3.975205  0  0.352026  0  0.055716  0.088992  0  3.946818  0
C  C48  1  0.76215709  0.52973244  0.05566892  1  0  0.095077  0  3.697232  0  0  0.087629  0  3.959113  0  0  0.085886  0  3.976074  0  0.352082  0  0.055733  0.088447  0  3.947728  0
C  C49  1  0.47029186  0.23787828  0.44432735  1  0  0.095564  0  3.696568  0  0  0.088208  0  3.958071  0  0  0.086468  0  3.975046  0  0.351923  0  0.055704  0.088996  0  3.946661  0
C  C50  1  0.17969485  0.41272032  0.04042142  1  0  0.110579  0  3.619861  0  0  0.069106  0  3.896845  0  0  0.078311  0  3.910957  0  0.39245  0  0.003062  0.063211  0  3.887118  0
C  C51  1  0.58729118  0.82028633  0.45958695  1  0  0.111017  0  3.619947  0  0  0.069422  0  3.896922  0  0  0.078631  0  3.91105  0  0.392494  0  0.003413  0.063524  0  3.887183  0
C  C52  1  0.82030482  0.58727890  0.95957874  1  0  0.110668  0  3.619863  0  0  0.069172  0  3.89685  0  0  0.078378  0  3.910963  0  0.392463  0  0.003093  0.063277  0  3.887121  0
C  C53  1  0.41270887  0.17971549  0.54041234  1  0  0.110848  0  3.619981  0  0  0.069306  0  3.896948  0  0  0.078514  0  3.911074  0  0.392527  0  0.003348  0.063407  0  3.887209  0
C  C54  1  0.08253438  0.28232572  0.00285889  1  0  -0.159863  0  3.785864  0  0  -0.185296  0  4.062361  0  0  -0.191804  0  4.080734  0  0.082441  0  -0.119351  -0.18108  0  4.049812  0
C  C55  1  0.71761292  0.91739638  0.49715027  1  0  -0.159132  0  3.784456  0  0  -0.1851  0  4.062239  0  0  -0.191589  0  4.080573  0  0.018569  0  -0.119402  -0.180882  0  4.049684  0
C  C56  1  0.91746767  0.71767219  0.99714083  1  0  -0.159865  0  3.785889  0  0  -0.185317  0  4.062388  0  0  -0.191821  0  4.080753  0  0.082426  0  -0.119406  -0.181101  0  4.04984  0
C  C57  1  0.28238675  0.08260284  0.50284896  1  0  -0.159069  0  3.784355  0  0  -0.185015  0  4.062089  0  0  -0.191509  0  4.080436  0  0.018765  0  -0.119343  -0.180798  0  4.049535  0
C  C58  1  0.12012819  0.31916393  0.94091369  1  0  -0.133569  0  3.721322  0  0  -0.17175  0  3.992917  0  0  -0.167946  0  4.007957  0  -0.013808  0  -0.104694  -0.173807  0  3.982523  0
C  C59  1  0.68075923  0.87979100  0.55909216  1  0  -0.13348  0  3.720583  0  0  -0.172199  0  3.992377  0  0  -0.168406  0  4.007436  0  0.051099  0  -0.104771  -0.174252  0  3.981988  0
C  C60  1  0.87987405  0.68083528  0.05908652  1  0  -0.133648  0  3.721215  0  0  -0.171801  0  3.992865  0  0  -0.167996  0  4.007903  0  -0.013883  0  -0.104701  -0.173861  0  3.982472  0
C  C61  1  0.31924173  0.12020821  0.44090711  1  0  -0.133452  0  3.720399  0  0  -0.172173  0  3.992191  0  0  -0.16838  0  4.007249  0  0.051082  0  -0.104738  -0.174226  0  3.981802  0
C  C62  1  0.65410586  0.99335349  0.90799887  1  0  0.716011  0  3.617928  0  0  0.643111  0  3.957838  0  0  0.671589  0  3.931379  0  1.635935  0  0.296487  0.622835  0  3.976587  0
C  C63  1  0.00675414  0.34593148  0.59199864  1  0  0.718555  0  3.613532  0  0  0.644176  0  3.955643  0  0  0.672704  0  3.929039  0  1.638744  0  0.297049  0.623909  0  3.974386  0
C  C64  1  0.34589182  0.00664963  0.09200179  1  0  0.715976  0  3.617881  0  0  0.643312  0  3.957443  0  0  0.671794  0  3.930967  0  1.635731  0  0.296532  0.62302  0  3.976197  0
C  C65  1  0.99324572  0.65406904  0.40800063  1  0  0.718488  0  3.613675  0  0  0.644221  0  3.955605  0  0  0.672753  0  3.928992  0  1.638687  0  0.297043  0.62395  0  3.974348  0
C  C66  1  0.00384115  0.78536733  0.72578537  1  0  0.122994  0  3.720998  0  0  0.096339  0  3.966768  0  0  0.102319  0  3.98678  0  0.423913  0  0.04306  0.092526  0  3.953099  0
C  C67  1  0.21429823  0.99620890  0.77417764  1  0  0.121988  0  3.72271  0  0  0.095118  0  3.968423  0  0  0.101047  0  3.988425  0  0.425919  0  0.042708  0.091325  0  3.954737  0
C  C68  1  0.99615961  0.21463058  0.27421525  1  0  0.122976  0  3.72106  0  0  0.096305  0  3.966828  0  0  0.102288  0  3.986839  0  0.423913  0  0.043014  0.092491  0  3.953162  0
C  C69  1  0.78570144  0.00379031  0.22582299  1  0  0.121976  0  3.722718  0  0  0.095119  0  3.968415  0  0  0.101049  0  3.988418  0  0.42591  0  0.04271  0.091326  0  3.95473  0
C  C70  1  0.88127978  0.89810414  0.72582434  1  0  -0.147028  0  3.678096  0  0  -0.167759  0  3.928916  0  0  -0.174911  0  3.948777  0  0.020087  0  -0.08023  -0.163179  0  3.915725  0
C  C71  1  0.10164614  0.11888323  0.77415929  1  0  -0.14612  0  3.678274  0  0  -0.166575  0  3.928788  0  0  -0.173729  0  3.948671  0  0.02069  0  -0.079774  -0.162003  0  3.915602  0
C  C72  1  0.11871989  0.10189508  0.27417583  1  0  -0.146993  0  3.678159  0  0  -0.167754  0  3.929019  0  0  -0.174907  0  3.948881  0  0.020068  0  -0.080213  -0.163174  0  3.91583  0
C  C73  1  0.89835224  0.88111599  0.22584084  1  0  -0.146136  0  3.678258  0  0  -0.166597  0  3.928768  0  0  -0.173752  0  3.94865  0  0.020686  0  -0.079763  -0.162026  0  3.915584  0
C  C74  1  0.92951987  0.07048293  0.74999667  1  0  0.104398  0  3.734653  0  0  0.111159  0  3.973517  0  0  0.115616  0  3.99363  0  0.001279  0  0.016315  0.10828  0  3.95991  0
C  C75  1  0.07047980  0.92951628  0.25000349  1  0  0.104386  0  3.73467  0  0  0.11115  0  3.97354  0  0  0.115608  0  3.993654  0  0.001282  0  0.016296  0.108271  0  3.959934  0
C  C76  1  0.52726307  0.27780725  0.71888007  1  0  0.120093  0  3.725461  0  0  0.091253  0  3.977632  0  0  0.097511  0  3.996693  0  0.437299  0  0.043308  0.087201  0  3.964584  0
C  C77  1  0.72211981  0.47301556  0.78116684  1  0  0.121199  0  3.726444  0  0  0.09228  0  3.978522  0  0  0.09854  0  3.997525  0  0.436048  0  0.043986  0.088241  0  3.965539  0
C  C78  1  0.47273532  0.72219196  0.28111960  1  0  0.12007  0  3.725482  0  0  0.091226  0  3.977659  0  0  0.097484  0  3.99672  0  0.437407  0  0.043266  0.087174  0  3.964613  0
C  C79  1  0.27787986  0.52698365  0.21883286  1  0  0.121242  0  3.726432  0  0  0.092328  0  3.978485  0  0  0.098607  0  3.997492  0  0.435777  0  0.04399  0.088293  0  3.965498  0
C  C80  1  0.64043565  0.15560311  0.71796941  1  0  -0.142597  0  3.674343  0  0  -0.16513  0  3.928371  0  0  -0.171814  0  3.94775  0  -0.00325  0  -0.075818  -0.160772  0  3.915415  0
C  C81  1  0.84422807  0.35976775  0.78203888  1  0  -0.143878  0  3.6755  0  0  -0.16632  0  3.929766  0  0  -0.17298  0  3.949133  0  -0.000575  0  -0.076692  -0.161974  0  3.916729  0
C  C82  1  0.35956254  0.84439480  0.28203024  1  0  -0.142631  0  3.674317  0  0  -0.165154  0  3.928336  0  0  -0.171838  0  3.947718  0  -0.003757  0  -0.075827  -0.160797  0  3.915382  0
C  C83  1  0.15577160  0.64023147  0.21796128  1  0  -0.143946  0  3.675521  0  0  -0.166402  0  3.929781  0  0  -0.173061  0  3.949143  0  -0.000557  0  -0.07673  -0.162054  0  3.916739  0
C  C84  1  0.80435535  0.19562700  0.74999488  1  0  0.10894  0  3.72529  0  0  0.115627  0  3.964728  0  0  0.120293  0  3.984215  0  -0.069469  0  0.017783  0.112648  0  3.951429  0
C  C85  1  0.19564304  0.80437221  0.25000480  1  0  0.109007  0  3.725283  0  0  0.11571  0  3.964686  0  0  0.120376  0  3.984174  0  -0.068967  0  0.017824  0.112731  0  3.951391  0
N  N86  1  0.16772731  0.83207336  0.74997041  1  0  -0.333689  0  3.257657  0  0  -0.255986  0  3.515237  0  0  -0.275264  0  3.534297  0  -1.228763  0  -0.331022  -0.242765  0  3.501929  0
N  N87  1  0.83227236  0.16792586  0.25003022  1  0  -0.333671  0  3.257561  0  0  -0.255969  0  3.51514  0  0  -0.275247  0  3.534201  0  -1.22875  0  -0.331027  -0.242749  0  3.501833  0
N  N88  1  0.56612167  0.43403449  0.75003541  1  0  -0.32005  0  3.248953  0  0  -0.245781  0  3.510478  0  0  -0.264134  0  3.528636  0  -1.227648  0  -0.327811  -0.233139  0  3.497739  0
N  N89  1  0.43387653  0.56596342  0.24996424  1  0  -0.320044  0  3.248906  0  0  -0.245781  0  3.510434  0  0  -0.264132  0  3.528581  0  -1.227651  0  -0.327776  -0.23314  0  3.497694  0
O  O90  1  0.54810352  0.82291029  0.81793947  1  0  -0.541241  0  2.07993  0  0  -0.486412  0  2.332405  0  0  -0.512389  0  2.326869  0  -1.122713  0  -0.31985  -0.46843  0  2.335697  0
O  O91  1  0.17714006  0.45180541  0.68204230  1  0  -0.541069  0  2.079677  0  0  -0.486236  0  2.3322  0  0  -0.512219  0  2.326644  0  -1.12256  0  -0.319725  -0.468253  0  2.335498  0
O  O92  1  0.45189744  0.17708892  0.18206072  1  0  -0.541286  0  2.079858  0  0  -0.486447  0  2.332386  0  0  -0.512427  0  2.326837  0  -1.12274  0  -0.319878  -0.468466  0  2.335675  0
O  O93  1  0.82285781  0.54819901  0.31795747  1  0  -0.54103  0  2.079615  0  0  -0.486197  0  2.332125  0  0  -0.512179  0  2.326569  0  -1.122593  0  -0.319712  -0.468216  0  2.335424  0
O  O94  1  0.26880269  0.51533835  0.83999240  1  0  -0.567893  0  2.021772  0  0  -0.503014  0  2.260403  0  0  -0.529145  0  2.251362  0  -1.137423  0  -0.310749  -0.484875  0  2.266127  0
O  O95  1  0.48460581  0.73114829  0.66000384  1  0  -0.56771  0  2.022641  0  0  -0.502936  0  2.261309  0  0  -0.529065  0  2.252262  0  -1.13723  0  -0.310719  -0.484821  0  2.266984  0
O  O96  1  0.73119827  0.48466086  0.16000779  1  0  -0.567859  0  2.02198  0  0  -0.502969  0  2.260598  0  0  -0.529101  0  2.251557  0  -1.137474  0  -0.310707  -0.484832  0  2.266322  0
O  O97  1  0.51539258  0.26885093  0.33999537  1  0  -0.567739  0  2.022586  0  0  -0.502961  0  2.261236  0  0  -0.529092  0  2.252192  0  -1.13721  0  -0.310771  -0.484849  0  2.266912  0
O  O98  1  0.27527256  0.52762599  0.00598918  1  0  -0.181727  0  2.417825  0  0  -0.108386  0  2.642364  0  0  -0.124222  0  2.650459  0  -1.056671  0  -0.121858  -0.097644  0  2.636626  0
O  O99  1  0.47241656  0.72473791  0.49401114  1  0  -0.182098  0  2.418109  0  0  -0.10868  0  2.642683  0  0  -0.124519  0  2.650779  0  -1.05683  0  -0.122081  -0.097922  0  2.636933  0
O  O100  1  0.72472711  0.47237323  0.99401145  1  0  -0.181808  0  2.417832  0  0  -0.10841  0  2.642362  0  0  -0.124247  0  2.650458  0  -1.056653  0  -0.121866  -0.097669  0  2.636625  0
O  O101  1  0.52758369  0.27526520  0.50598819  1  0  -0.182037  0  2.417882  0  0  -0.108703  0  2.642511  0  0  -0.124543  0  2.650606  0  -1.056841  0  -0.122117  -0.097944  0  2.636761  0
F  F102  1  0.59836856  0.14193197  0.88879850  1  0  -0.257832  0  1.126844  0  0  -0.216183  0  1.280263  0  0  -0.225935  0  1.266489  0  -0.614055  0  -0.108542  -0.209222  0  1.289817  0
F  F103  1  0.85845442  0.40186299  0.61121446  1  0  -0.256977  0  1.125632  0  0  -0.216473  0  1.27972  0  0  -0.226251  0  1.265921  0  -0.614595  0  -0.108594  -0.209514  0  1.289279  0
F  F104  1  0.40162983  0.85806724  0.11120117  1  0  -0.257834  0  1.12677  0  0  -0.216229  0  1.280101  0  0  -0.225984  0  1.266325  0  -0.614036  0  -0.108551  -0.209263  0  1.289656  0
F  F105  1  0.14154397  0.59813623  0.38878428  1  0  -0.256947  0  1.125654  0  0  -0.216495  0  1.279727  0  0  -0.226274  0  1.265927  0  -0.614549  0  -0.108599  -0.209535  0  1.289286  0
F  F106  1  0.82104960  0.99771202  0.89051591  1  0  -0.265068  0  1.154845  0  0  -0.215258  0  1.309904  0  0  -0.225577  0  1.296311  0  -0.624072  0  -0.103807  -0.207795  0  1.319276  0
F  F107  1  0.00227070  0.17871037  0.60947961  1  0  -0.264372  0  1.153793  0  0  -0.215812  0  1.309655  0  0  -0.226143  0  1.296021  0  -0.625213  0  -0.1042  -0.208349  0  1.319033  0
F  F108  1  0.17895193  0.00229109  0.10948576  1  0  -0.265065  0  1.154855  0  0  -0.215328  0  1.309849  0  0  -0.225651  0  1.296254  0  -0.624133  0  -0.103837  -0.207861  0  1.319222  0
F  F109  1  0.99773173  0.82129014  0.39052063  1  0  -0.264398  0  1.15385  0  0  -0.215867  0  1.309684  0  0  -0.226199  0  1.296048  0  -0.625219  0  -0.104247  -0.208404  0  1.319063  0
F  F110  1  0.66283727  0.00499437  0.97120446  1  0  -0.241677  0  1.186746  0  0  -0.205076  0  1.361098  0  0  -0.215301  0  1.346649  0  -0.616216  0  -0.09261  -0.197689  0  1.371041  0
F  F111  1  0.99507746  0.33717410  0.52879461  1  0  -0.249636  0  1.194576  0  0  -0.205325  0  1.360718  0  0  -0.215559  0  1.346227  0  -0.616242  0  -0.092798  -0.197938  0  1.370665  0
F  F112  1  0.33716041  0.99500874  0.02879575  1  0  -0.241686  0  1.186739  0  0  -0.205135  0  1.361005  0  0  -0.215362  0  1.346555  0  -0.616184  0  -0.092624  -0.197743  0  1.370949  0
F  F113  1  0.00492368  0.66282642  0.47120468  1  0  -0.24958  0  1.19462  0  0  -0.205279  0  1.360712  0  0  -0.215516  0  1.34622  0  -0.616198  0  -0.092744  -0.197892  0  1.370659  0
