# generated using pymatgen
data_ZnH4C6(NO)3
_symmetry_space_group_name_H-M   'P 1'
_cell_length_a   13.41039928
_cell_length_b   13.41038031
_cell_length_c   27.57318723
_cell_angle_alpha   89.99998107
_cell_angle_beta   90.00003310
_cell_angle_gamma   89.99974735
_symmetry_Int_Tables_number   1
_chemical_formula_structural   ZnH4C6(NO)3
_chemical_formula_sum   'Zn16 H64 C96 N48 O48'
_cell_volume   4958.72213438
_cell_formula_units_Z   16
loop_
 _symmetry_equiv_pos_site_id
 _symmetry_equiv_pos_as_xyz
  1  'x, y, z'
loop_
 _atom_site_type_symbol
 _atom_site_label
 _atom_site_symmetry_multiplicity
 _atom_site_fract_x
 _atom_site_fract_y
 _atom_site_fract_z
 _atom_site_occupancy
 _atom_site_pbe_bader_charge
 _atom_site_pbe_bader_spin_density
 _atom_site_pbe_cm5_charge
 _atom_site_pbe_ddec_charge
 _atom_site_pbe_ddec_spin_density
 _atom_site_pbe_ddec_sum_bond_order
 _atom_site_pbe_magmom
Zn  Zn0  1  0.97804776  0.08458963  0.44625141  1  1.238451  0  0.711709  0.680446  0  2.505089  0
Zn  Zn1  1  0.41541452  0.97804801  0.44625017  1  1.238598  0  0.711707  0.680409  0  2.505094  0
Zn  Zn2  1  0.52195174  0.41541496  0.44624878  1  1.238527  0  0.711743  0.680497  0  2.505032  0
Zn  Zn3  1  0.08458571  0.52195578  0.44625088  1  1.238658  0  0.711732  0.680518  0  2.504995  0
Zn  Zn4  1  0.47804120  0.91541219  0.05375221  1  1.23866  0  0.711722  0.68051  0  2.504959  0
Zn  Zn5  1  0.58458187  0.47804330  0.05375190  1  1.238523  0  0.711757  0.680561  0  2.504915  0
Zn  Zn6  1  0.02195111  0.58458813  0.05375109  1  1.238677  0  0.711679  0.680408  0  2.505117  0
Zn  Zn7  1  0.91540822  0.02195558  0.05374981  1  1.238442  0  0.711685  0.68045  0  2.505116  0
Zn  Zn8  1  0.02195664  0.91541303  0.55375057  1  1.238675  0  0.711732  0.680454  0  2.505062  0
Zn  Zn9  1  0.58459137  0.02195913  0.55375036  1  1.238533  0  0.711695  0.680495  0  2.505107  0
Zn  Zn10  1  0.47804297  0.58459292  0.55375029  1  1.238487  0  0.711685  0.680426  0  2.505158  0
Zn  Zn11  1  0.91540751  0.47805061  0.55374964  1  1.238461  0  0.711714  0.680474  0  2.504943  0
Zn  Zn12  1  0.52195127  0.08458823  0.94625012  1  1.23856  0  0.711718  0.680488  0  2.505014  0
Zn  Zn13  1  0.41540688  0.52195563  0.94625007  1  1.23852  0  0.711711  0.680506  0  2.505009  0
Zn  Zn14  1  0.97804360  0.41541378  0.94625016  1  1.238678  0  0.711721  0.680473  0  2.505078  0
Zn  Zn15  1  0.08458723  0.97804484  0.94624926  1  1.238624  0  0.711726  0.680515  0  2.505031  0
H  H16  1  0.84913087  0.96278056  0.31287900  1  0.117217  0  0.11147  0.136209  0  0.982084  0
H  H17  1  0.53722467  0.84910737  0.31287642  1  0.116425  0  0.111392  0.136192  0  0.982085  0
H  H18  1  0.65087597  0.53721514  0.31287139  1  0.116856  0  0.111468  0.136337  0  0.981934  0
H  H19  1  0.96277918  0.65087342  0.31287614  1  0.116772  0  0.111441  0.136244  0  0.981972  0
H  H20  1  0.34911715  0.03721735  0.18712930  1  0.116701  0  0.11143  0.136224  0  0.982041  0
H  H21  1  0.46276931  0.34909640  0.18712240  1  0.116332  0  0.111423  0.136161  0  0.981945  0
H  H22  1  0.15088871  0.46277246  0.18712344  1  0.11648  0  0.111422  0.136212  0  0.982059  0
H  H23  1  0.03722089  0.15088446  0.18712163  1  0.116476  0  0.111465  0.136214  0  0.982112  0
H  H24  1  0.15087204  0.03722657  0.68712116  1  0.117182  0  0.111449  0.136188  0  0.982093  0
H  H25  1  0.46278421  0.15088560  0.68712410  1  0.116542  0  0.111432  0.136221  0  0.982112  0
H  H26  1  0.34912173  0.46278080  0.68712043  1  0.116587  0  0.111468  0.136174  0  0.982135  0
H  H27  1  0.03722299  0.34912923  0.68711858  1  0.11679  0  0.111433  0.136145  0  0.982131  0
H  H28  1  0.65088129  0.96278232  0.81287630  1  0.116635  0  0.111443  0.136219  0  0.982144  0
H  H29  1  0.53722019  0.65087121  0.81288066  1  0.116621  0  0.111454  0.136183  0  0.982071  0
H  H30  1  0.84913210  0.53722721  0.81287963  1  0.117192  0  0.111474  0.136242  0  0.982033  0
H  H31  1  0.96277978  0.84912341  0.81287817  1  0.116633  0  0.111446  0.136184  0  0.982123  0
H  H32  1  0.90729343  0.23863162  0.53520374  1  0.139601  0  0.147606  0.114803  0  0.962907  0
H  H33  1  0.26137383  0.90729790  0.53520360  1  0.13934  0  0.147577  0.114804  0  0.9629  0
H  H34  1  0.59269872  0.26137663  0.53520370  1  0.139434  0  0.147563  0.114779  0  0.962842  0
H  H35  1  0.23862651  0.59270135  0.53520398  1  0.139313  0  0.147551  0.114752  0  0.962956  0
H  H36  1  0.40729847  0.76137689  0.96479669  1  0.139331  0  0.147544  0.114776  0  0.962915  0
H  H37  1  0.73862347  0.40729746  0.96479641  1  0.139311  0  0.147578  0.114844  0  0.962872  0
H  H38  1  0.09269939  0.73862804  0.96479883  1  0.139459  0  0.147543  0.114764  0  0.962931  0
H  H39  1  0.76136472  0.09269932  0.96479571  1  0.139678  0  0.147528  0.114763  0  0.962887  0
H  H40  1  0.09270575  0.76137327  0.46479787  1  0.139598  0  0.147551  0.114767  0  0.962949  0
H  H41  1  0.73862983  0.09270178  0.46479548  1  0.139607  0  0.147554  0.114773  0  0.96292  0
H  H42  1  0.40730643  0.73863646  0.46479755  1  0.139518  0  0.147557  0.114808  0  0.962769  0
H  H43  1  0.76136895  0.40729683  0.46479727  1  0.139664  0  0.14754  0.114775  0  0.962909  0
H  H44  1  0.59269549  0.23863024  0.03520347  1  0.13941  0  0.147541  0.11479  0  0.962895  0
H  H45  1  0.26136901  0.59269923  0.03520448  1  0.139367  0  0.147544  0.114782  0  0.962918  0
H  H46  1  0.90730502  0.26137536  0.03520460  1  0.139456  0  0.147553  0.114768  0  0.962887  0
H  H47  1  0.23862552  0.90730110  0.03520445  1  0.139303  0  0.147553  0.114777  0  0.962907  0
H  H48  1  0.06756059  0.29526651  0.40680388  1  0.256594  0  0.147217  0.131674  0  0.995952  0
H  H49  1  0.20473672  0.06756498  0.40680428  1  0.256278  0  0.147226  0.131667  0  0.995911  0
H  H50  1  0.43244254  0.20473509  0.40680140  1  0.256436  0  0.147242  0.131731  0  0.995827  0
H  H51  1  0.29526268  0.43244780  0.40680028  1  0.256836  0  0.147253  0.131745  0  0.995875  0
H  H52  1  0.56754536  0.70473115  0.09320144  1  0.257107  0  0.147229  0.131737  0  0.995929  0
H  H53  1  0.79525775  0.56756676  0.09319459  1  0.255884  0  0.147226  0.131643  0  0.995971  0
H  H54  1  0.93244332  0.79526917  0.09320039  1  0.256943  0  0.147246  0.131752  0  0.995936  0
H  H55  1  0.70473317  0.93244177  0.09319890  1  0.256915  0  0.147207  0.131664  0  0.995913  0
H  H56  1  0.93244009  0.70473913  0.59319773  1  0.256434  0  0.147234  0.131684  0  0.99594  0
H  H57  1  0.79526544  0.93243618  0.59319624  1  0.256514  0  0.147211  0.131655  0  0.995916  0
H  H58  1  0.56756261  0.79526757  0.59320093  1  0.256902  0  0.147233  0.131827  0  0.99573  0
H  H59  1  0.70473278  0.56757499  0.59319408  1  0.256039  0  0.147211  0.131638  0  0.995962  0
H  H60  1  0.43243295  0.29526330  0.90680199  1  0.256377  0  0.14721  0.131669  0  0.995971  0
H  H61  1  0.20473323  0.43243888  0.90680267  1  0.25652  0  0.147208  0.13169  0  0.995946  0
H  H62  1  0.06755214  0.20473349  0.90679941  1  0.256916  0  0.147238  0.131724  0  0.995856  0
H  H63  1  0.29526527  0.06755492  0.90680126  1  0.256885  0  0.147252  0.131743  0  0.995878  0
H  H64  1  0.09300444  0.19461162  0.31074028  1  0.625343  0  0.300837  0.345203  0  0.97429  0
H  H65  1  0.30539804  0.09298987  0.31074902  1  0.625061  0  0.300988  0.345511  0  0.973819  0
H  H66  1  0.40700081  0.30538333  0.31074612  1  0.625055  0  0.300917  0.345376  0  0.974091  0
H  H67  1  0.19461243  0.40699762  0.31074318  1  0.625204  0  0.300894  0.345325  0  0.974095  0
H  H68  1  0.59299410  0.80538966  0.18925561  1  0.625132  0  0.30096  0.345361  0  0.974005  0
H  H69  1  0.69459259  0.59298010  0.18925093  1  0.625147  0  0.300935  0.345391  0  0.974041  0
H  H70  1  0.90700886  0.69460464  0.18925712  1  0.625151  0  0.300914  0.345328  0  0.974108  0
H  H71  1  0.80539919  0.90700152  0.18925890  1  0.625201  0  0.300874  0.34527  0  0.974142  0
H  H72  1  0.90699996  0.80539402  0.68925915  1  0.625243  0  0.300868  0.345247  0  0.974191  0
H  H73  1  0.69461233  0.90700756  0.68925694  1  0.62503  0  0.300844  0.345378  0  0.974457  0
H  H74  1  0.59300135  0.69460591  0.68926057  1  0.625295  0  0.300844  0.3452  0  0.974268  0
H  H75  1  0.80539272  0.59300355  0.68926025  1  0.625371  0  0.300828  0.345215  0  0.974262  0
H  H76  1  0.40700285  0.19460927  0.81074418  1  0.625162  0  0.300873  0.345304  0  0.974138  0
H  H77  1  0.30538870  0.40699721  0.81073980  1  0.625328  0  0.300837  0.345245  0  0.974234  0
H  H78  1  0.09301568  0.30539951  0.81073543  1  0.625511  0  0.30089  0.345348  0  0.974172  0
H  H79  1  0.19460671  0.09300263  0.81073981  1  0.625257  0  0.300836  0.345204  0  0.974285  0
C  C80  1  0.89000871  0.00404033  0.28531317  1  0.044534  0  -0.096695  -0.189545  0  3.943921  0
C  C81  1  0.49596256  0.88998774  0.28531377  1  0.047475  0  -0.096636  -0.189585  0  3.943919  0
C  C82  1  0.60999434  0.49594870  0.28530838  1  0.045354  0  -0.096655  -0.18978  0  3.94397  0
C  C83  1  0.00404270  0.60999154  0.28531191  1  0.045146  0  -0.096688  -0.189569  0  3.94382  0
C  C84  1  0.38999750  0.99595367  0.21468970  1  0.045359  0  -0.096627  -0.189665  0  3.943977  0
C  C85  1  0.50403422  0.38997881  0.21468723  1  0.047339  0  -0.096734  -0.189723  0  3.94371  0
C  C86  1  0.11000543  0.50403312  0.21468752  1  0.046282  0  -0.096736  -0.189896  0  3.943969  0
C  C87  1  0.99596054  0.11000356  0.21468696  1  0.046351  0  -0.096649  -0.189656  0  3.943827  0
C  C88  1  0.10999271  0.99596680  0.71468735  1  0.045535  0  -0.096691  -0.189621  0  3.94376  0
C  C89  1  0.50404632  0.11000821  0.71468639  1  0.04589  0  -0.096584  -0.189487  0  3.943829  0
C  C90  1  0.39000485  0.50403904  0.71468598  1  0.046089  0  -0.096686  -0.189555  0  3.94391  0
C  C91  1  0.99596543  0.39000962  0.71468426  1  0.045683  0  -0.096672  -0.189556  0  3.943817  0
C  C92  1  0.61000466  0.00404526  0.78531445  1  0.044724  0  -0.096667  -0.18958  0  3.944019  0
C  C93  1  0.49596049  0.60999477  0.78531330  1  0.045098  0  -0.096683  -0.189581  0  3.9439  0
C  C94  1  0.89001388  0.49596954  0.78531227  1  0.045158  0  -0.096818  -0.189866  0  3.943883  0
C  C95  1  0.00403716  0.89000357  0.78531248  1  0.045103  0  -0.096737  -0.189702  0  3.94382  0
C  C96  1  0.96172678  0.07442147  0.29928762  1  -0.004201  0  -0.035566  -0.159492  0  4.021977  0
C  C97  1  0.42558643  0.96170696  0.29929219  1  -0.005678  0  -0.035497  -0.159406  0  4.021623  0
C  C98  1  0.53827702  0.42556979  0.29928681  1  -0.004156  0  -0.035615  -0.159647  0  4.022101  0
C  C99  1  0.07442183  0.53827306  0.29928818  1  -0.004363  0  -0.035599  -0.159668  0  4.022083  0
C  C100  1  0.46171438  0.92557744  0.20071309  1  -0.004381  0  -0.035523  -0.159343  0  4.021924  0
C  C101  1  0.57441227  0.46169847  0.20070734  1  -0.005659  0  -0.035405  -0.15935  0  4.02148  0
C  C102  1  0.03828705  0.57441309  0.20071125  1  -0.00424  0  -0.03547  -0.159074  0  4.02151  0
C  C103  1  0.92558247  0.03828241  0.20071214  1  -0.004259  0  -0.035515  -0.159212  0  4.021579  0
C  C104  1  0.03827389  0.92558790  0.70071145  1  -0.004215  0  -0.035454  -0.159258  0  4.021768  0
C  C105  1  0.57442394  0.03828899  0.70071051  1  -0.003716  0  -0.03552  -0.159293  0  4.021777  0
C  C106  1  0.46172216  0.57441795  0.70071335  1  -0.004183  0  -0.035515  -0.159401  0  4.021998  0
C  C107  1  0.92558481  0.46172885  0.70071162  1  -0.003856  0  -0.035562  -0.159445  0  4.021757  0
C  C108  1  0.53828779  0.07442298  0.79928888  1  -0.003855  0  -0.035539  -0.159395  0  4.021818  0
C  C109  1  0.42557946  0.53827436  0.79928665  1  -0.004191  0  -0.035542  -0.15945  0  4.021922  0
C  C110  1  0.96173600  0.42558957  0.79928565  1  -0.003974  0  -0.035511  -0.159202  0  4.021656  0
C  C111  1  0.07441672  0.96172472  0.79928657  1  -0.004185  0  -0.035463  -0.159267  0  4.021845  0
C  C112  1  0.01580179  0.12873896  0.26349111  1  0.516772  0  0.082613  0.289153  0  4.083071  0
C  C113  1  0.37126796  0.01578835  0.26349371  1  0.517206  0  0.082654  0.289259  0  4.082627  0
C  C114  1  0.48419819  0.37124857  0.26349261  1  0.516978  0  0.082659  0.289364  0  4.083237  0
C  C115  1  0.12874097  0.48419693  0.26349146  1  0.516808  0  0.082709  0.289426  0  4.083114  0
C  C116  1  0.51579569  0.87125819  0.23650948  1  0.51682  0  0.082637  0.289056  0  4.083181  0
C  C117  1  0.62872674  0.51578256  0.23650336  1  0.518123  0  0.08267  0.289429  0  4.08256  0
C  C118  1  0.98420509  0.62872787  0.23650811  1  0.51818  0  0.08266  0.288976  0  4.082753  0
C  C119  1  0.87127106  0.98420200  0.23651133  1  0.517755  0  0.082514  0.288888  0  4.083021  0
C  C120  1  0.98419963  0.87126818  0.73650941  1  0.517308  0  0.082631  0.28908  0  4.082845  0
C  C121  1  0.62873793  0.98420983  0.73651116  1  0.51734  0  0.082682  0.289213  0  4.082634  0
C  C122  1  0.51579950  0.62873172  0.73651154  1  0.517264  0  0.082536  0.288991  0  4.083028  0
C  C123  1  0.87127239  0.51580722  0.73650979  1  0.516634  0  0.082661  0.28921  0  4.082809  0
C  C124  1  0.48420946  0.12873925  0.76348960  1  0.517319  0  0.082622  0.289058  0  4.082842  0
C  C125  1  0.37126573  0.48419847  0.76348919  1  0.517059  0  0.082606  0.289084  0  4.083035  0
C  C126  1  0.01580751  0.37127330  0.76348733  1  0.517228  0  0.082701  0.289099  0  4.082963  0
C  C127  1  0.12873111  0.01580364  0.76349064  1  0.516749  0  0.082592  0.289015  0  4.082947  0
C  C128  1  0.98232050  0.09109282  0.35112929  1  1.446355  0  0.19825  0.579739  0  4.174543  0
C  C129  1  0.40892024  0.98229998  0.35113494  1  1.448556  0  0.198476  0.579998  0  4.17499  0
C  C130  1  0.51768412  0.40890810  0.35112992  1  1.445615  0  0.198328  0.579786  0  4.174735  0
C  C131  1  0.09109106  0.51768150  0.35112985  1  1.446093  0  0.198343  0.579948  0  4.174591  0
C  C132  1  0.48230885  0.90891271  0.14887107  1  1.447662  0  0.198374  0.579936  0  4.174712  0
C  C133  1  0.59107166  0.48228475  0.14886640  1  1.449223  0  0.198595  0.580252  0  4.174654  0
C  C134  1  0.01769624  0.59108158  0.14886922  1  1.447989  0  0.198524  0.580025  0  4.174989  0
C  C135  1  0.90891258  0.01768797  0.14886975  1  1.447657  0  0.198409  0.579861  0  4.174758  0
C  C136  1  0.01768391  0.90891506  0.64887087  1  1.44579  0  0.198316  0.579923  0  4.174547  0
C  C137  1  0.59109460  0.01769298  0.64887066  1  1.4473  0  0.198208  0.57975  0  4.175387  0
C  C138  1  0.48231656  0.59109158  0.64887133  1  1.446463  0  0.198382  0.580046  0  4.174411  0
C  C139  1  0.90890962  0.48232340  0.64887031  1  1.446334  0  0.198372  0.579955  0  4.174337  0
C  C140  1  0.51768735  0.09108995  0.85113054  1  1.445869  0  0.198357  0.579855  0  4.174807  0
C  C141  1  0.40890814  0.51767988  0.85112904  1  1.446862  0  0.198323  0.579911  0  4.174531  0
C  C142  1  0.98233202  0.40891585  0.85112696  1  1.447377  0  0.198382  0.579835  0  4.174526  0
C  C143  1  0.09108809  0.98231543  0.85112896  1  1.445944  0  0.198364  0.579959  0  4.174534  0
C  C144  1  0.94760682  0.27568865  0.50622124  1  1.008921  0  0.150874  0.142448  0  3.96752  0
C  C145  1  0.22431592  0.94761228  0.50622217  1  1.009132  0  0.150973  0.142406  0  3.967513  0
C  C146  1  0.55238679  0.22431813  0.50622083  1  1.009048  0  0.151008  0.142592  0  3.967316  0
C  C147  1  0.27568289  0.55239295  0.50622004  1  1.009173  0  0.150976  0.142536  0  3.967307  0
C  C148  1  0.44760610  0.72431595  0.99378029  1  1.009101  0  0.150946  0.142477  0  3.967183  0
C  C149  1  0.77568195  0.44761241  0.99377819  1  1.009126  0  0.15099  0.142416  0  3.96739  0
C  C150  1  0.05238732  0.77568673  0.99378060  1  1.008967  0  0.151017  0.142592  0  3.967418  0
C  C151  1  0.72430776  0.05238734  0.99377894  1  1.008694  0  0.151032  0.142615  0  3.96734  0
C  C152  1  0.05238938  0.72431624  0.49377928  1  1.008892  0  0.150955  0.142432  0  3.967545  0
C  C153  1  0.77568700  0.05238665  0.49377762  1  1.008941  0  0.150968  0.142552  0  3.96751  0
C  C154  1  0.44761911  0.77569124  0.49378006  1  1.008851  0  0.151098  0.142681  0  3.967106  0
C  C155  1  0.72431182  0.44761567  0.49377795  1  1.008982  0  0.150988  0.142468  0  3.967543  0
C  C156  1  0.55238265  0.27568597  0.00622059  1  1.009272  0  0.151023  0.142521  0  3.967439  0
C  C157  1  0.22431202  0.55238727  0.00622197  1  1.009199  0  0.150941  0.142486  0  3.967526  0
C  C158  1  0.94761335  0.22431668  0.00622101  1  1.00907  0  0.151034  0.142607  0  3.967358  0
C  C159  1  0.27568471  0.94761234  0.00622195  1  1.009185  0  0.150964  0.142548  0  3.967375  0
C  C160  1  0.02970937  0.30460263  0.44129898  1  0.952795  0  0.160697  0.166714  0  3.902721  0
C  C161  1  0.19540154  0.02971521  0.44129975  1  0.953399  0  0.160727  0.166703  0  3.902756  0
C  C162  1  0.47029082  0.19540118  0.44129724  1  0.953116  0  0.160722  0.166753  0  3.902645  0
C  C163  1  0.30459940  0.47029755  0.44129611  1  0.952633  0  0.160682  0.166615  0  3.902818  0
C  C164  1  0.52969712  0.69539594  0.05870524  1  0.952083  0  0.160642  0.166477  0  3.903006  0
C  C165  1  0.80459385  0.52971622  0.05869985  1  0.953759  0  0.160794  0.166766  0  3.902836  0
C  C166  1  0.97029077  0.80460366  0.05870457  1  0.952346  0  0.160695  0.166672  0  3.902888  0
C  C167  1  0.69539628  0.97029009  0.05870343  1  0.952434  0  0.160698  0.166692  0  3.902813  0
C  C168  1  0.97028758  0.69540375  0.55870190  1  0.95317  0  0.160737  0.16667  0  3.902835  0
C  C169  1  0.80460063  0.97028521  0.55870041  1  0.953191  0  0.160793  0.166828  0  3.902581  0
C  C170  1  0.52971582  0.80460521  0.55870473  1  0.952408  0  0.16077  0.166709  0  3.902635  0
C  C171  1  0.69539755  0.52972226  0.55869898  1  0.953723  0  0.160796  0.166829  0  3.902556  0
C  C172  1  0.47028268  0.30460075  0.94129710  1  0.953179  0  0.160711  0.16674  0  3.902781  0
C  C173  1  0.19539713  0.47028793  0.94129886  1  0.952938  0  0.160773  0.166752  0  3.902668  0
C  C174  1  0.02970468  0.19539900  0.94129559  1  0.952482  0  0.16069  0.166661  0  3.902749  0
C  C175  1  0.30459992  0.02970809  0.94129746  1  0.9527  0  0.160713  0.166691  0  3.902834  0
N  N176  1  0.96729730  0.37296027  0.50605441  1  -0.813176  0  -0.250381  -0.188573  0  3.503286  0
N  N177  1  0.12704584  0.96730247  0.50605460  1  -0.813167  0  -0.250462  -0.188543  0  3.503228  0
N  N178  1  0.53270004  0.12704651  0.50605400  1  -0.813118  0  -0.250505  -0.188706  0  3.503378  0
N  N179  1  0.37295595  0.53270351  0.50605213  1  -0.812941  0  -0.250444  -0.188591  0  3.503135  0
N  N180  1  0.46729551  0.62704349  0.99394677  1  -0.812986  0  -0.250411  -0.18859  0  3.503106  0
N  N181  1  0.87295268  0.46730515  0.99394467  1  -0.813136  0  -0.250541  -0.188661  0  3.503109  0
N  N182  1  0.03269717  0.87295769  0.99394778  1  -0.812878  0  -0.250557  -0.188721  0  3.503389  0
N  N183  1  0.62703703  0.03269683  0.99394720  1  -0.812955  0  -0.250516  -0.188692  0  3.503457  0
N  N184  1  0.03269518  0.62704536  0.49394575  1  -0.813135  0  -0.250507  -0.188594  0  3.503184  0
N  N185  1  0.87295931  0.03269646  0.49394556  1  -0.813232  0  -0.250541  -0.188791  0  3.503388  0
N  N186  1  0.46730884  0.87296286  0.49394797  1  -0.81315  0  -0.250555  -0.188654  0  3.503292  0
N  N187  1  0.62704025  0.46730586  0.49394549  1  -0.813273  0  -0.250507  -0.188602  0  3.503272  0
N  N188  1  0.53269249  0.37295842  0.00605266  1  -0.812979  0  -0.250493  -0.188554  0  3.503372  0
N  N189  1  0.12704053  0.53269677  0.00605441  1  -0.813337  0  -0.250508  -0.188675  0  3.503374  0
N  N190  1  0.96730276  0.12704497  0.00605347  1  -0.813093  0  -0.250546  -0.188757  0  3.503436  0
N  N191  1  0.37295470  0.96730284  0.00605477  1  -0.813177  0  -0.250517  -0.188719  0  3.503362  0
N  N192  1  0.98491675  0.23014476  0.46635897  1  -1.25315  0  -0.353014  -0.316427  0  3.566647  0
N  N193  1  0.26985957  0.98492284  0.46635954  1  -1.253068  0  -0.353052  -0.316399  0  3.566641  0
N  N194  1  0.51507756  0.26985832  0.46635818  1  -1.253095  0  -0.353126  -0.316615  0  3.566614  0
N  N195  1  0.23014218  0.51508764  0.46635776  1  -1.253433  0  -0.353162  -0.316558  0  3.566713  0
N  N196  1  0.48490931  0.76985554  0.03364465  1  -1.253098  0  -0.353081  -0.316452  0  3.566585  0
N  N197  1  0.73013828  0.48492348  0.03364144  1  -1.253189  0  -0.353118  -0.316511  0  3.566632  0
N  N198  1  0.01507999  0.73014480  0.03364386  1  -1.252999  0  -0.353047  -0.316533  0  3.566705  0
N  N199  1  0.76985328  0.01507989  0.03364294  1  -1.252653  0  -0.353012  -0.3165  0  3.566575  0
N  N200  1  0.01508094  0.76985789  0.53364227  1  -1.25316  0  -0.353073  -0.316458  0  3.566666  0
N  N201  1  0.73014484  0.01507757  0.53364026  1  -1.252859  0  -0.353069  -0.316524  0  3.566607  0
N  N202  1  0.48492536  0.73014807  0.53364307  1  -1.252265  0  -0.353068  -0.31663  0  3.566606  0
N  N203  1  0.76985477  0.48492919  0.53363986  1  -1.252717  0  -0.353075  -0.316479  0  3.566612  0
N  N204  1  0.51507421  0.23014339  0.96635878  1  -1.253016  0  -0.353053  -0.316523  0  3.566555  0
N  N205  1  0.26985419  0.51507843  0.96635944  1  -1.252725  0  -0.353034  -0.3165  0  3.566615  0
N  N206  1  0.98491696  0.26985711  0.96635666  1  -1.253102  0  -0.353091  -0.316579  0  3.56663  0
N  N207  1  0.23014293  0.98491829  0.96635722  1  -1.253057  0  -0.353102  -0.316614  0  3.566647  0
N  N208  1  0.02010769  0.39130861  0.46435978  1  -0.801708  0  -0.252513  -0.186866  0  3.520842  0
N  N209  1  0.10869573  0.02011313  0.46436055  1  -0.801948  0  -0.252544  -0.186864  0  3.520725  0
N  N210  1  0.47989328  0.10869593  0.46435806  1  -0.801917  0  -0.252461  -0.186805  0  3.520913  0
N  N211  1  0.39130598  0.47989887  0.46435693  1  -0.801713  0  -0.252412  -0.186756  0  3.520988  0
N  N212  1  0.52009654  0.60869150  0.03564335  1  -0.801791  0  -0.252398  -0.186678  0  3.520851  0
N  N213  1  0.89129896  0.52011601  0.03563905  1  -0.801857  0  -0.252466  -0.186739  0  3.520577  0
N  N214  1  0.97989207  0.89130887  0.03564266  1  -0.80196  0  -0.252447  -0.186781  0  3.52093  0
N  N215  1  0.60869040  0.97989107  0.03564224  1  -0.801994  0  -0.252435  -0.186755  0  3.520934  0
N  N216  1  0.97988702  0.60869926  0.53564002  1  -0.801886  0  -0.252474  -0.186765  0  3.520702  0
N  N217  1  0.89130719  0.97988729  0.53563961  1  -0.802122  0  -0.25244  -0.186705  0  3.520747  0
N  N218  1  0.52011560  0.89131120  0.53564428  1  -0.802149  0  -0.252547  -0.186936  0  3.52107  0
N  N219  1  0.60869096  0.52011870  0.53563852  1  -0.80226  0  -0.252474  -0.186847  0  3.520729  0
N  N220  1  0.47988475  0.39130594  0.96435790  1  -0.8022  0  -0.2525  -0.186943  0  3.521129  0
N  N221  1  0.10869053  0.47988963  0.96436002  1  -0.801937  0  -0.252441  -0.186744  0  3.520866  0
N  N222  1  0.02010488  0.10869379  0.96435750  1  -0.801833  0  -0.252399  -0.186677  0  3.520948  0
N  N223  1  0.39130357  0.02010786  0.96435937  1  -0.801903  0  -0.252439  -0.186734  0  3.520902  0
O  O224  1  0.05592366  0.14486067  0.36469777  1  -1.186219  0  -0.322173  -0.572177  0  2.150021  0
O  O225  1  0.35515730  0.05590206  0.36470253  1  -1.188357  0  -0.322337  -0.572384  0  2.150311  0
O  O226  1  0.44408241  0.35514393  0.36469890  1  -1.185967  0  -0.322191  -0.572214  0  2.150315  0
O  O227  1  0.14485622  0.44407645  0.36469776  1  -1.18612  0  -0.322207  -0.572265  0  2.150157  0
O  O228  1  0.55590931  0.85514674  0.13530138  1  -1.187662  0  -0.322304  -0.572376  0  2.150081  0
O  O229  1  0.64483349  0.55588284  0.13529598  1  -1.188962  0  -0.322374  -0.572478  0  2.150047  0
O  O230  1  0.94409732  0.64484909  0.13530073  1  -1.187987  0  -0.322315  -0.57237  0  2.150313  0
O  O231  1  0.85514703  0.94408464  0.13530395  1  -1.187553  0  -0.322272  -0.572289  0  2.150143  0
O  O232  1  0.94408000  0.85515093  0.63530166  1  -1.185922  0  -0.322189  -0.572258  0  2.149995  0
O  O233  1  0.64486351  0.94409314  0.63530307  1  -1.187714  0  -0.322132  -0.572283  0  2.15052  0
O  O234  1  0.55591976  0.64485723  0.63530380  1  -1.186052  0  -0.322233  -0.572294  0  2.150016  0
O  O235  1  0.85514520  0.55592770  0.63530349  1  -1.186301  0  -0.322185  -0.572231  0  2.149998  0
O  O236  1  0.44408391  0.14485741  0.86469806  1  -1.185897  0  -0.322179  -0.5722  0  2.15027  0
O  O237  1  0.35513959  0.44407806  0.86469512  1  -1.186201  0  -0.322185  -0.572225  0  2.15009  0
O  O238  1  0.05593990  0.35515506  0.86469291  1  -1.18688  0  -0.322245  -0.572257  0  2.150105  0
O  O239  1  0.14485439  0.05591951  0.86469766  1  -1.185909  0  -0.322207  -0.572272  0  2.150049  0
O  O240  1  0.92417096  0.04936705  0.38301352  1  -1.15823  0  -0.346341  -0.539819  0  2.270422  0
O  O241  1  0.45064473  0.92415313  0.38301411  1  -1.158148  0  -0.346345  -0.539834  0  2.270847  0
O  O242  1  0.57583593  0.45063907  0.38301054  1  -1.157819  0  -0.346354  -0.539824  0  2.270484  0
O  O243  1  0.04936363  0.57583280  0.38301227  1  -1.157929  0  -0.346333  -0.539878  0  2.270483  0
O  O244  1  0.42416208  0.95064022  0.11699008  1  -1.157991  0  -0.346372  -0.539906  0  2.270675  0
O  O245  1  0.54934892  0.42413959  0.11698616  1  -1.158348  0  -0.346507  -0.54008  0  2.270935  0
O  O246  1  0.07584224  0.54935707  0.11698644  1  -1.158094  0  -0.34645  -0.539953  0  2.270866  0
O  O247  1  0.95063603  0.07583539  0.11698733  1  -1.158107  0  -0.346325  -0.539821  0  2.270687  0
O  O248  1  0.07583195  0.95064008  0.61698845  1  -1.15795  0  -0.346373  -0.539924  0  2.270564  0
O  O249  1  0.54936788  0.07583759  0.61698787  1  -1.158075  0  -0.346367  -0.539874  0  2.270798  0
O  O250  1  0.42416848  0.54936881  0.61698781  1  -1.158464  0  -0.346358  -0.539947  0  2.270512  0
O  O251  1  0.95063332  0.42417359  0.61698753  1  -1.158204  0  -0.34639  -0.539902  0  2.270393  0
O  O252  1  0.57583413  0.04936318  0.88301298  1  -1.158045  0  -0.346336  -0.539852  0  2.27068  0
O  O253  1  0.45063311  0.57582876  0.88301183  1  -1.158744  0  -0.346356  -0.539896  0  2.270479  0
O  O254  1  0.92417708  0.45063440  0.88301082  1  -1.158592  0  -0.346393  -0.539879  0  2.270366  0
O  O255  1  0.04936092  0.92416578  0.88301211  1  -1.158003  0  -0.346392  -0.539952  0  2.270509  0
O  O256  1  0.08484806  0.19821036  0.27482785  1  -1.130839  0  -0.354653  -0.433508  0  2.301404  0
O  O257  1  0.30179263  0.08483800  0.27483515  1  -1.130595  0  -0.354823  -0.433865  0  2.300587  0
O  O258  1  0.41515194  0.30177716  0.27483406  1  -1.130775  0  -0.354789  -0.43373  0  2.30125  0
O  O259  1  0.19821333  0.41515325  0.27483075  1  -1.130863  0  -0.354751  -0.433686  0  2.301334  0
O  O260  1  0.58484747  0.80178723  0.22516840  1  -1.130644  0  -0.354796  -0.433628  0  2.301057  0
O  O261  1  0.69819431  0.58482744  0.22516191  1  -1.131337  0  -0.354762  -0.433798  0  2.301085  0
O  O262  1  0.91515926  0.69820033  0.22516882  1  -1.131573  0  -0.354687  -0.433569  0  2.300982  0
O  O263  1  0.80180273  0.91515416  0.22517205  1  -1.131298  0  -0.354601  -0.433447  0  2.301034  0
O  O264  1  0.91515411  0.80179454  0.72517086  1  -1.130938  0  -0.354685  -0.433514  0  2.30093  0
O  O265  1  0.69821028  0.91515645  0.72517190  1  -1.130681  0  -0.354682  -0.433844  0  2.300904  0
O  O266  1  0.58484799  0.69820387  0.72517336  1  -1.13091  0  -0.354624  -0.433417  0  2.301056  0
O  O267  1  0.80179555  0.58484867  0.72517303  1  -1.131237  0  -0.354651  -0.43355  0  2.301088  0
O  O268  1  0.41515470  0.19821319  0.77482922  1  -1.130885  0  -0.354775  -0.433701  0  2.300905  0
O  O269  1  0.30179220  0.41515434  0.77482629  1  -1.130962  0  -0.354627  -0.433518  0  2.301153  0
O  O270  1  0.08485483  0.30179860  0.77482336  1  -1.131345  0  -0.354692  -0.433624  0  2.30115  0
O  O271  1  0.19820391  0.08484850  0.77482847  1  -1.130686  0  -0.354656  -0.43348  0  2.301103  0
