# generated using pymatgen
data_NiH27C18N5O4
_symmetry_space_group_name_H-M   'P 1'
_cell_length_a   14.77277530
_cell_length_b   14.77029798
_cell_length_c   14.66649960
_cell_angle_alpha   116.21744025
_cell_angle_beta   99.97618985
_cell_angle_gamma   112.74883831
_symmetry_Int_Tables_number   1
_chemical_formula_structural   NiH27C18N5O4
_chemical_formula_sum   'Ni4 H108 C72 N20 O16'
_cell_volume   2407.82012890
_cell_formula_units_Z   4
loop_
 _symmetry_equiv_pos_site_id
 _symmetry_equiv_pos_as_xyz
  1  'x, y, z'
loop_
 _atom_site_type_symbol
 _atom_site_label
 _atom_site_symmetry_multiplicity
 _atom_site_fract_x
 _atom_site_fract_y
 _atom_site_fract_z
 _atom_site_occupancy
 _atom_site_pbe_bader_charge
 _atom_site_pbe_bader_spin_density
 _atom_site_pbe_cm5_charge
 _atom_site_pbe_ddec_charge
 _atom_site_pbe_ddec_spin_density
 _atom_site_pbe_ddec_sum_bond_order
 _atom_site_pbe_magmom
Ni  Ni0  1  0.29670367  0.54450431  0.22634175  1  1.044052  1.488395  0.642803  0.610898  1.722547  2.535145  1.475
Ni  Ni1  1  0.81773194  0.07024413  0.27342863  1  1.042425  1.488416  0.642798  0.610088  1.722544  2.534347  1.474
Ni  Ni2  1  0.70328735  0.45549266  0.77365233  1  1.044062  1.488395  0.642734  0.61091  1.722544  2.534864  1.475
Ni  Ni3  1  0.18227198  0.92974231  0.72656834  1  1.042148  1.488417  0.642838  0.610222  1.722576  2.534606  1.474
H  H4  1  0.28533098  0.44261547  0.92924874  1  0.022027  0.004143  0.094701  0.065469  0.001967  0.974702  0.002
H  H5  1  0.01206893  0.35549367  0.57007282  1  0.035344  0.004146  0.094396  0.064899  0.00197  0.975495  0.002
H  H6  1  0.71457350  0.55736621  0.07071052  1  0.027851  0.004137  0.094799  0.065649  0.001966  0.974564  0.002
H  H7  1  0.98794580  0.64450031  0.42992509  1  0.034831  0.004147  0.09442  0.064976  0.00197  0.975427  0.002
H  H8  1  0.28080089  0.36828771  0.99814755  1  0.052845  0.00049  0.114646  0.10004  7e-05  0.975323  0.0
H  H9  1  0.86901560  0.28192797  0.50137864  1  0.050676  0.000487  0.115338  0.100606  6.7e-05  0.976381  0.0
H  H10  1  0.71913008  0.63169091  0.00180891  1  0.053659  0.000491  0.114698  0.100157  7e-05  0.975385  0.0
H  H11  1  0.13100003  0.71806927  0.49863077  1  0.050465  0.000488  0.115343  0.100581  6.7e-05  0.976423  0.0
H  H12  1  0.99845537  0.54386677  0.11576041  1  0.025798  0.00075  0.10585  0.080484  0.000389  0.98512  0.0
H  H13  1  0.92836441  0.88311706  0.38424975  1  0.049336  0.00074  0.106296  0.081012  0.000387  0.985455  0.0
H  H14  1  0.00152406  0.45616652  0.88429219  1  0.026417  0.000749  0.105881  0.08048  0.000389  0.985381  0.0
H  H15  1  0.07164428  0.11687112  0.61575226  1  0.049358  0.00074  0.106226  0.08099  0.000387  0.985456  0.0
H  H16  1  0.11321850  0.60144684  0.09243852  1  0.045968  -4e-05  0.094794  0.067989  -0.000121  1.004319  0.0
H  H17  1  0.00913312  0.02115402  0.40756650  1  0.033621  -4e-05  0.095003  0.068344  -0.000121  1.003661  0.0
H  H18  1  0.88676131  0.39857916  0.90761187  1  0.045821  -4e-05  0.094802  0.067854  -0.000121  1.004253  0.0
H  H19  1  0.99087970  0.97882934  0.59242910  1  0.034006  -4e-05  0.095011  0.068359  -0.000121  1.003672  0.0
H  H20  1  0.47195666  0.52828577  0.05920306  1  0.025733  0.005016  0.089134  0.052937  0.00237  1.019799  0.002
H  H21  1  0.96749794  0.41198352  0.43993942  1  -0.009304  0.005116  0.089036  0.052191  0.002386  1.019253  0.002
H  H22  1  0.52796270  0.47169342  0.94071692  1  0.024894  0.00502  0.089194  0.052834  0.00237  1.019633  0.002
H  H23  1  0.03251441  0.58800192  0.56005276  1  -0.009078  0.00512  0.089037  0.052155  0.002386  1.019127  0.002
H  H24  1  0.43405421  0.63559456  0.10997541  1  0.046625  0.0003  0.10604  0.083258  -3.2e-05  0.979715  0.0
H  H25  1  0.02449237  0.32374486  0.38925024  1  0.044213  0.000294  0.106311  0.083944  -3.5e-05  0.980227  0.0
H  H26  1  0.56586960  0.36438669  0.88996840  1  0.04656  0.0003  0.10607  0.083148  -3.2e-05  0.979756  0.0
H  H27  1  0.97550815  0.67622766  0.61073722  1  0.044042  0.000293  0.106273  0.083915  -3.5e-05  0.980188  0.0
H  H28  1  0.54167644  0.74160437  0.30352680  1  0.039531  0.00095  0.102389  0.075076  0.000286  1.00462  0.001
H  H29  1  0.93724039  0.23768447  0.19551128  1  0.043561  0.000953  0.102561  0.074607  0.000287  1.005008  0.001
H  H30  1  0.45829953  0.25838620  0.69640472  1  0.040097  0.00095  0.102246  0.074684  0.000286  1.004732  0.001
H  H31  1  0.06275173  0.76229932  0.80448698  1  0.043595  0.000953  0.102575  0.074674  0.000287  1.004821  0.001
H  H32  1  0.60452241  0.65700579  0.27200713  1  -0.0051  0.008545  0.085967  0.044744  0.003961  1.00192  0.004
H  H33  1  0.88393053  0.33182576  0.22692998  1  0.001739  0.008541  0.085868  0.044609  0.003964  1.0017  0.004
H  H34  1  0.39544896  0.34297825  0.72790401  1  -0.005456  0.008549  0.085933  0.044641  0.003962  1.002053  0.004
H  H35  1  0.11606001  0.66815436  0.77307204  1  0.001643  0.008542  0.085811  0.044507  0.003964  1.001721  0.004
H  H36  1  0.53936266  0.58470244  0.38888859  1  0.041391  -4.9e-05  0.095424  0.096383  -9.1e-05  0.978368  0.0
H  H37  1  0.69523668  0.15004856  0.11031142  1  0.038944  -4.9e-05  0.095443  0.096123  -9e-05  0.978031  0.0
H  H38  1  0.46065600  0.41530643  0.61105103  1  0.041318  -4.9e-05  0.095368  0.09616  -9.1e-05  0.978429  0.0
H  H39  1  0.30475677  0.84993172  0.88969320  1  0.038872  -4.9e-05  0.095484  0.096209  -9e-05  0.977922  0.0
H  H40  1  0.63444908  0.73794032  0.46311733  1  0.028325  -2.7e-05  0.098504  0.101142  -7.7e-05  0.972145  0.0
H  H41  1  0.77430334  0.17083500  0.03579846  1  0.028907  -3.1e-05  0.098013  0.100527  -8e-05  0.973111  0.0
H  H42  1  0.36557227  0.26206152  0.53680682  1  0.028627  -2.8e-05  0.098535  0.101086  -7.7e-05  0.971844  0.0
H  H43  1  0.22568352  0.82915161  0.96420363  1  0.028543  -3.1e-05  0.097978  0.100461  -8e-05  0.973307  0.0
H  H44  1  0.47987397  0.77608392  0.45885871  1  0.065836  0.000969  0.110432  0.095752  0.000267  0.965513  0.001
H  H45  1  0.81695851  0.02089470  0.04053247  1  0.067125  0.000967  0.110577  0.096021  0.000266  0.965786  0.001
H  H46  1  0.52014922  0.22392856  0.54112412  1  0.065995  0.00097  0.110479  0.095771  0.000268  0.965429  0.001
H  H47  1  0.18303000  0.97908625  0.95944998  1  0.067519  0.000967  0.110585  0.096054  0.000266  0.965762  0.001
H  H48  1  0.50728876  0.72403116  0.54213515  1  0.03538  0.006261  0.095007  0.068756  0.002844  1.003796  0.004
H  H49  1  0.68179867  0.96502631  0.95745296  1  0.044434  0.006169  0.09505  0.068749  0.002835  1.004385  0.004
H  H50  1  0.49277210  0.27598527  0.45784321  1  0.034732  0.006263  0.095008  0.068661  0.002844  1.003883  0.004
H  H51  1  0.31818554  0.03495625  0.04254550  1  0.044465  0.006168  0.095035  0.06879  0.002834  1.004223  0.004
H  H52  1  0.30324931  0.71041809  0.45468888  1  0.066191  0.0004  0.113136  0.100123  2.9e-05  0.974145  0.0
H  H53  1  0.75593054  0.84890114  0.04534279  1  0.064866  0.000396  0.112791  0.099711  2.5e-05  0.974244  0.0
H  H54  1  0.69679829  0.28959578  0.54533839  1  0.066579  0.000401  0.113172  0.10013  2.9e-05  0.974285  0.0
H  H55  1  0.24406497  0.15107646  0.95464600  1  0.065249  0.000396  0.11277  0.099754  2.5e-05  0.974203  0.0
H  H56  1  0.30372273  0.63418041  0.51982056  1  0.053208  0.003335  0.099926  0.089468  0.001597  0.984189  0.002
H  H57  1  0.61468998  0.78423681  0.98048398  1  0.061224  0.003341  0.100168  0.089692  0.001597  0.983711  0.002
H  H58  1  0.69634126  0.36582863  0.48020134  1  0.053407  0.003335  0.099883  0.0895  0.001597  0.984263  0.002
H  H59  1  0.38530727  0.21574702  0.01951457  1  0.062264  0.003339  0.100205  0.089777  0.001597  0.983712  0.002
H  H60  1  0.15883885  0.44015894  0.33201706  1  0.046836  0.000345  0.105081  0.081422  -2e-06  0.991729  0.0
H  H61  1  0.60839884  0.82709500  0.16845903  1  0.051257  0.000343  0.104985  0.08118  -2e-06  0.991925  0.0
H  H62  1  0.84119168  0.55985209  0.66800598  1  0.046782  0.000345  0.105147  0.08143  -2e-06  0.991741  0.0
H  H63  1  0.39161050  0.17289668  0.83154108  1  0.051453  0.000343  0.104921  0.081119  -2e-06  0.991892  0.0
H  H64  1  0.11541340  0.54181102  0.38715725  1  0.010812  0.004619  0.093265  0.061395  0.002126  1.003809  0.002
H  H65  1  0.65518141  0.72877818  0.11334445  1  0.014404  0.004615  0.092621  0.060409  0.002127  1.003426  0.002
H  H66  1  0.88464042  0.45821958  0.61290241  1  0.011533  0.004615  0.09325  0.061339  0.002126  1.003813  0.002
H  H67  1  0.34481943  0.27121105  0.88665803  1  0.014696  0.004615  0.092607  0.060333  0.002128  1.003512  0.002
H  H68  1  0.05538200  0.34352104  0.13773930  1  0.071434  0.000785  0.119612  0.081896  0.000194  0.988059  0.001
H  H69  1  0.70598554  0.91787467  0.36296055  1  0.063827  0.00079  0.119207  0.081124  0.000196  0.988026  0.001
H  H70  1  0.94459229  0.65650429  0.86231127  1  0.072081  0.000786  0.119568  0.081772  0.000194  0.988124  0.001
H  H71  1  0.29402981  0.08212346  0.63704053  1  0.064526  0.00079  0.11928  0.081293  0.000196  0.988038  0.001
H  H72  1  0.98692249  0.42282663  0.17007128  1  -0.00345  0.007916  0.099036  0.041838  0.003774  1.008601  0.004
H  H73  1  0.75309811  0.81724290  0.33057471  1  -0.002584  0.007913  0.098983  0.041786  0.003776  1.007429  0.004
H  H74  1  0.01309709  0.57724865  0.83001866  1  -0.003244  0.007915  0.099086  0.041859  0.003774  1.008125  0.004
H  H75  1  0.24691006  0.18275360  0.66942641  1  -0.002463  0.007914  0.098902  0.04158  0.003777  1.007507  0.004
H  H76  1  0.08010889  0.36848716  0.91231963  1  0.03595  0.006  0.106507  0.06046  0.0028  0.976955  0.003
H  H77  1  0.95594049  0.16770367  0.58760917  1  0.049735  0.005898  0.106544  0.060391  0.0028  0.976546  0.003
H  H78  1  0.91981520  0.63149791  0.08769745  1  0.036343  0.005999  0.106557  0.060658  0.0028  0.976759  0.003
H  H79  1  0.04407558  0.83228613  0.41239002  1  0.049655  0.005898  0.106486  0.060297  0.002801  0.976479  0.003
H  H80  1  0.10590546  0.31256190  0.99253773  1  0.086199  0.000695  0.125388  0.0968  0.00016  0.971858  0.001
H  H81  1  0.81988476  0.11338052  0.50791394  1  0.085036  0.00069  0.125367  0.096967  0.000158  0.972329  0.001
H  H82  1  0.89403924  0.68743765  0.00749002  1  0.085163  0.000695  0.125414  0.096955  0.00016  0.97177  0.001
H  H83  1  0.18013587  0.88661779  0.49209267  1  0.08465  0.00069  0.125227  0.096766  0.000158  0.97225  0.001
H  H84  1  0.48676099  0.16235822  0.26927639  1  0.096066  0.000111  0.099226  0.101527  3.6e-05  1.042596  0.0
H  H85  1  0.39291418  0.21763386  0.23048563  1  0.095644  0.000109  0.099022  0.100928  3.5e-05  1.042708  0.0
H  H86  1  0.51324662  0.83764249  0.73071636  1  0.096387  0.000111  0.099266  0.101614  3.5e-05  1.042478  0.0
H  H87  1  0.60709685  0.78238312  0.76952089  1  0.095715  0.000109  0.098975  0.100883  3.5e-05  1.042717  0.0
H  H88  1  0.21721374  0.89029180  0.25803531  1  0.101739  2.2e-05  0.1025  0.107627  -1.9e-05  1.029277  0.0
H  H89  1  0.13162217  0.95889795  0.24095056  1  0.088422  2.1e-05  0.102095  0.107076  -2e-05  1.02978  0.0
H  H90  1  0.78279707  0.10972526  0.74197800  1  0.101883  2.2e-05  0.102447  0.107651  -1.9e-05  1.029298  0.0
H  H91  1  0.86840059  0.04112609  0.75907817  1  0.088337  2.1e-05  0.102117  0.107075  -1.9e-05  1.02974  0.0
H  H92  1  0.51707792  0.90333480  0.30700784  1  0.071505  0.000542  0.09839  0.101552  0.000356  1.037508  0.0
H  H93  1  0.09635769  0.21049852  0.19255134  1  0.096013  0.000535  0.09811  0.10158  0.000356  1.038127  0.0
H  H94  1  0.48292739  0.09667057  0.69299054  1  0.071385  0.000543  0.098431  0.101603  0.000356  1.037472  0.0
H  H95  1  0.90364506  0.78950066  0.80744837  1  0.095917  0.000535  0.098076  0.101508  0.000355  1.038199  0.0
H  H96  1  0.23870536  0.56151109  0.06589990  1  0.408777  -0.000518  0.302412  0.245513  -0.00057  0.938375  0.0
H  H97  1  0.99494491  0.17265092  0.43359004  1  0.403683  -0.00053  0.302371  0.245164  -0.000568  0.938792  0.0
H  H98  1  0.76123491  0.43847898  0.93409935  1  0.40892  -0.000519  0.302506  0.245639  -0.00057  0.938388  0.0
H  H99  1  0.00506945  0.82734477  0.56641262  1  0.403869  -0.00053  0.30232  0.245023  -0.000568  0.938772  0.0
H  H100  1  0.42519821  0.48090681  0.19064698  1  0.504971  -0.000392  0.281985  0.24495  -0.000327  1.028835  -0.001
H  H101  1  0.78935985  0.23395805  0.30872168  1  0.497936  -0.000393  0.281562  0.245191  -0.000333  1.029176  -0.001
H  H102  1  0.57477681  0.51908843  0.80930296  1  0.504727  -0.000393  0.282055  0.244976  -0.000327  1.028948  -0.001
H  H103  1  0.21064447  0.76603321  0.69128630  1  0.498184  -0.000393  0.281572  0.245203  -0.000333  1.029072  -0.001
H  H104  1  0.35880608  0.52703418  0.38545538  1  0.404144  -0.000289  0.305311  0.245284  -0.000328  0.929204  0.0
H  H105  1  0.64143194  0.97331565  0.11440398  1  0.403082  -0.000273  0.305352  0.245328  -0.000322  0.929144  0.0
H  H106  1  0.64124447  0.47297799  0.61453909  1  0.403666  -0.00029  0.305364  0.245478  -0.000329  0.929164  0.0
H  H107  1  0.35857366  0.02666741  0.88560180  1  0.403524  -0.000272  0.305385  0.245471  -0.000321  0.928962  0.0
H  H108  1  0.16778549  0.60706189  0.26884010  1  0.484267  -0.000416  0.284197  0.246319  -0.000389  1.019145  -0.001
H  H109  1  0.83825750  0.89927234  0.23126569  1  0.486362  -0.00042  0.284433  0.245996  -0.000391  1.019523  -0.001
H  H110  1  0.83224130  0.39296856  0.73120932  1  0.484485  -0.000415  0.284161  0.246197  -0.000389  1.019164  -0.001
H  H111  1  0.16174825  0.10071334  0.76872943  1  0.486473  -0.00042  0.284489  0.246183  -0.000392  1.019371  -0.001
C  C112  1  0.29939535  0.45386228  0.01110989  1  0.278516  0.000166  -0.069167  -0.055261  -0.000497  3.926444  -0.001
C  C113  1  0.94166112  0.28773082  0.48836425  1  0.275546  0.000182  -0.069842  -0.055945  -0.000488  3.929864  -0.001
C  C114  1  0.70053350  0.54612166  0.98885450  1  0.27105  0.000174  -0.069449  -0.055899  -0.000496  3.926169  -0.001
C  C115  1  0.05835119  0.71226327  0.51163874  1  0.275994  0.000182  -0.069952  -0.056168  -0.000488  3.929858  -0.001
C  C116  1  0.03549967  0.51915297  0.05721118  1  0.284723  8.1e-05  -0.068747  -0.079032  4.5e-05  3.953231  0.0
C  C117  1  0.96201822  0.97849225  0.44284167  1  0.275299  8.1e-05  -0.069382  -0.080055  4.4e-05  3.952998  0.0
C  C118  1  0.96447837  0.48087664  0.94284239  1  0.308995  8e-05  -0.06889  -0.07916  4.5e-05  3.953474  0.0
C  C119  1  0.03799216  0.02149681  0.55715647  1  0.296566  8e-05  -0.069313  -0.080153  4.4e-05  3.952859  0.0
C  C120  1  0.41672609  0.54914939  0.09422781  1  0.29369  0.000543  -0.067037  -0.041616  -8e-05  3.929655  -0.001
C  C121  1  0.95370512  0.32194901  0.40498386  1  0.33198  0.000508  -0.06661  -0.041046  -6.9e-05  3.930979  -0.001
C  C122  1  0.58320972  0.45083634  0.90571914  1  0.295276  0.000541  -0.067113  -0.041331  -7.9e-05  3.929328  -0.001
C  C123  1  0.04630282  0.67803723  0.59501402  1  0.331903  0.000509  -0.066616  -0.040927  -6.9e-05  3.930902  -0.001
C  C124  1  0.53693950  0.66104789  0.29276197  1  0.336151  -0.000403  -0.068798  -0.01061  -0.000815  3.919019  -0.002
C  C125  1  0.86740933  0.24362120  0.20628615  1  0.302285  -0.000371  -0.069282  -0.009619  -0.000827  3.918061  -0.002
C  C126  1  0.46304333  0.33894711  0.70717239  1  0.31683  -0.000399  -0.068583  -0.010021  -0.000816  3.91844  -0.002
C  C127  1  0.13258402  0.75636121  0.79371352  1  0.301412  -0.000371  -0.069183  -0.009412  -0.000827  3.91768  -0.002
C  C128  1  0.55042315  0.66855027  0.40216563  1  -0.021733  0.001714  -0.157332  -0.188498  0.000631  3.924226  0.001
C  C129  1  0.76584157  0.14787497  0.09702990  1  -0.003099  0.001688  -0.156257  -0.18672  0.000623  3.922525  0.001
C  C130  1  0.44959292  0.33145808  0.59777678  1  -0.003791  0.001706  -0.157153  -0.187909  0.000631  3.923398  0.001
C  C131  1  0.23415107  0.85210842  0.90297099  1  -0.002408  0.001687  -0.156377  -0.187001  0.000623  3.922939  0.001
C  C132  1  0.47729502  0.69913868  0.45537335  1  0.274335  -0.000514  -0.068549  -0.022686  -0.001094  3.890798  -0.002
C  C133  1  0.74353639  0.02180424  0.04412177  1  0.268832  -0.000455  -0.069622  -0.024499  -0.001101  3.891452  -0.002
C  C134  1  0.52273944  0.30087626  0.54460449  1  0.274143  -0.000517  -0.06875  -0.022803  -0.001095  3.891367  -0.002
C  C135  1  0.25645575  0.97817889  0.95587142  1  0.268671  -0.000456  -0.069458  -0.024279  -0.001101  3.89127  -0.002
C  C136  1  0.28892010  0.62500735  0.43911877  1  0.26998  0.000338  -0.071669  -0.0633  -0.000447  3.891919  -0.001
C  C137  1  0.68607655  0.85007501  0.06098989  1  0.279185  0.00035  -0.071354  -0.062952  -0.000441  3.890409  -0.001
C  C138  1  0.71112304  0.37500138  0.56089949  1  0.270211  0.000338  -0.071496  -0.063129  -0.000447  3.892122  -0.001
C  C139  1  0.31392418  0.14990784  0.93900482  1  0.277123  0.000353  -0.071314  -0.062981  -0.000442  3.89034  -0.001
C  C140  1  0.17328140  0.52738812  0.35303295  1  0.304521  2.1e-05  -0.070346  -0.044284  -0.000527  3.925887  -0.001
C  C141  1  0.67465108  0.82059679  0.14739347  1  0.293673  6.8e-05  -0.06953  -0.042763  -0.000512  3.924258  -0.001
C  C142  1  0.82675526  0.47262900  0.64699923  1  0.30252  2.5e-05  -0.070516  -0.044372  -0.000526  3.925515  -0.001
C  C143  1  0.32535452  0.17939118  0.85260469  1  0.293537  6.8e-05  -0.069501  -0.042614  -0.000512  3.924346  -0.001
C  C144  1  0.05730627  0.42420104  0.15284677  1  0.672332  -0.000115  0.025282  0.057483  -0.000589  3.957796  -0.002
C  C145  1  0.77156113  0.90475302  0.34769965  1  0.681389  -0.000106  0.025863  0.059182  -0.000602  3.955406  -0.002
C  C146  1  0.94269343  0.57583984  0.84721444  1  0.67166  -0.000113  0.025198  0.057551  -0.00059  3.957171  -0.002
C  C147  1  0.22845065  0.09524088  0.65229965  1  0.680699  -0.000102  0.025915  0.059308  -0.000602  3.955475  -0.002
C  C148  1  0.11184683  0.39156163  0.99834172  1  0.617903  -0.000246  0.027913  0.054782  -0.000808  3.920388  -0.002
C  C149  1  0.89295036  0.11341682  0.50175431  1  0.630731  -0.000166  0.028235  0.055362  -0.000812  3.920023  -0.002
C  C150  1  0.88809511  0.60843607  0.00168144  1  0.617622  -0.000246  0.028016  0.05444  -0.000808  3.920893  -0.002
C  C151  1  0.10706523  0.88657631  0.49824761  1  0.630975  -0.000166  0.028483  0.055811  -0.000812  3.919376  -0.002
C  C152  1  0.62747398  0.10067420  0.30454079  1  1.550278  0.001422  0.195028  0.549612  0.000715  4.235929  0.001
C  C153  1  0.29627139  0.32336688  0.19522155  1  1.55567  0.001422  0.195159  0.548818  0.000706  4.236626  0.001
C  C154  1  0.37252591  0.89931860  0.69545379  1  1.550586  0.001423  0.194891  0.549448  0.000715  4.236162  0.001
C  C155  1  0.70372437  0.67663624  0.80477289  1  1.556121  0.001423  0.195191  0.54895  0.000706  4.236781  0.001
C  C156  1  0.51211300  0.03954203  0.29009225  1  -0.032886  0.00661  -0.028326  -0.04043  0.003911  4.00813  0.005
C  C157  1  0.24939780  0.22230030  0.20953142  1  -0.058487  0.006628  -0.027492  -0.039784  0.00392  4.009203  0.005
C  C158  1  0.48788981  0.96045884  0.70990667  1  -0.033108  0.006612  -0.028284  -0.04029  0.003912  4.008047  0.005
C  C159  1  0.75061370  0.77771644  0.79048574  1  -0.057691  0.006626  -0.027516  -0.039868  0.003919  4.009532  0.005
C  C160  1  0.44823102  0.08449499  0.27176673  1  -0.043274  0.000178  -0.087428  -0.153788  -0.000346  3.964356  0.0
C  C161  1  0.31252426  0.17659778  0.22784635  1  -0.051898  0.000158  -0.087184  -0.153073  -0.000353  3.965123  0.0
C  C162  1  0.55177664  0.91550983  0.72823351  1  -0.043267  0.000178  -0.087444  -0.153923  -0.000346  3.964305  0.0
C  C163  1  0.68748888  0.82341696  0.77216559  1  -0.053316  0.000158  -0.087109  -0.152972  -0.000352  3.96507  0.0
C  C164  1  0.34072110  0.03298837  0.25901205  1  -0.081582  0.001866  -0.013107  0.059842  0.001114  4.010479  0.001
C  C165  1  0.27357301  0.08162541  0.24038676  1  -0.072254  0.001869  -0.013398  0.058756  0.001115  4.01193  0.001
C  C166  1  0.65928920  0.96702109  0.74099289  1  -0.081205  0.001866  -0.013168  0.059825  0.001114  4.010633  0.001
C  C167  1  0.72644199  0.91839152  0.75962869  1  -0.070938  0.001868  -0.013482  0.058649  0.001115  4.011957  0.001
C  C168  1  0.29942648  0.93428579  0.26599427  1  -0.046314  7.5e-05  -0.084043  -0.138202  -0.000367  3.927139  0.0
C  C169  1  0.16786804  0.03333481  0.23320821  1  -0.019124  8.1e-05  -0.083946  -0.137343  -0.000362  3.926839  0.0
C  C170  1  0.70058332  0.06572824  0.73401955  1  -0.047141  7.5e-05  -0.084017  -0.138213  -0.000367  3.927198  0.0
C  C171  1  0.83214989  0.96668462  0.76681413  1  -0.019895  8.3e-05  -0.083858  -0.137265  -0.000362  3.926617  0.0
C  C172  1  0.36155248  0.88715722  0.28262569  1  -0.016849  0.007598  -0.026693  -0.035112  0.004561  4.007203  0.006
C  C173  1  0.10425602  0.07902705  0.21670316  1  -0.015715  0.007636  -0.025961  -0.034758  0.004574  4.00721  0.006
C  C174  1  0.63845187  0.11284805  0.71737856  1  -0.016078  0.007597  -0.026673  -0.035188  0.004561  4.007308  0.006
C  C175  1  0.89576099  0.92099279  0.78332210  1  -0.015112  0.007635  -0.025987  -0.034573  0.004573  4.007067  0.006
C  C176  1  0.46810964  0.93944961  0.29400977  1  -0.017822  -0.000959  -0.087271  -0.116646  -0.001203  3.951841  -0.001
C  C177  1  0.14535810  0.17438909  0.20548379  1  -0.044776  -0.00095  -0.087792  -0.117263  -0.001206  3.954359  -0.001
C  C178  1  0.53189303  0.06055472  0.70599434  1  -0.017986  -0.000958  -0.087336  -0.116706  -0.001203  3.951796  -0.001
C  C179  1  0.85465084  0.82561787  0.79452427  1  -0.04577  -0.00095  -0.087742  -0.117228  -0.001205  3.954577  -0.001
C  C180  1  0.31052844  0.77897126  0.28609563  1  1.548514  -0.000454  0.196561  0.5546  -0.001116  4.232363  -0.001
C  C181  1  0.99263562  0.02455491  0.21334124  1  1.553574  -0.000465  0.195775  0.552859  -0.001116  4.232809  -0.001
C  C182  1  0.68947850  0.22103697  0.71391412  1  1.548575  -0.000455  0.196605  0.554762  -0.001118  4.232258  -0.001
C  C183  1  0.00737283  0.97544503  0.78665952  1  1.553856  -0.000466  0.195727  0.552614  -0.001115  4.233066  -0.001
N  N184  1  0.22854167  0.48590910  0.05935379  1  -1.039397  0.071831  -0.488571  -0.33005  0.041924  3.525829  0.063
N  N185  1  0.92591786  0.16895497  0.44030216  1  -1.042469  0.071877  -0.489359  -0.329697  0.041967  3.527924  0.063
N  N186  1  0.77140597  0.51408325  0.94064771  1  -1.039007  0.071826  -0.488749  -0.330141  0.041921  3.52571  0.063
N  N187  1  0.07409741  0.83104155  0.55970371  1  -1.04235  0.071879  -0.489262  -0.329578  0.041968  3.527756  0.063
N  N188  1  0.43358318  0.55875803  0.20018133  1  -1.122426  0.077015  -0.499858  -0.32125  0.044702  3.543262  0.067
N  N189  1  0.85771226  0.23290298  0.29917705  1  -1.112579  0.076929  -0.499601  -0.322081  0.044661  3.544912  0.067
N  N190  1  0.56638408  0.44123554  0.79977297  1  -1.121756  0.07702  -0.499927  -0.32131  0.044707  3.543658  0.067
N  N191  1  0.14229138  0.76708920  0.70082815  1  -1.112201  0.07692  -0.499626  -0.322183  0.044659  3.544831  0.067
N  N192  1  0.36370437  0.60079326  0.39167658  1  -1.042992  0.07822  -0.488428  -0.295928  0.045634  3.529633  0.069
N  N193  1  0.70897854  0.97203039  0.10818461  1  -1.060436  0.078199  -0.488227  -0.295124  0.045634  3.529086  0.069
N  N194  1  0.63632755  0.39921176  0.60831234  1  -1.042096  0.078218  -0.488491  -0.296364  0.045637  3.530446  0.069
N  N195  1  0.29102010  0.02794736  0.89180402  1  -1.060295  0.078187  -0.488281  -0.29543  0.045628  3.528966  0.069
N  N196  1  0.15864851  0.52643567  0.25099728  1  -1.103729  0.076411  -0.502083  -0.35254  0.044311  3.540614  0.066
N  N197  1  0.77545871  0.90788329  0.24921549  1  -1.102889  0.076267  -0.502724  -0.352883  0.044247  3.541988  0.066
N  N198  1  0.84137625  0.47358952  0.74903805  1  -1.102706  0.076421  -0.501978  -0.352375  0.044317  3.540204  0.066
N  N199  1  0.22454581  0.09209703  0.75077863  1  -1.103193  0.076271  -0.502827  -0.353283  0.044251  3.542176  0.066
N  N200  1  0.04646179  0.42323831  0.05282424  1  -1.0753  0.001132  -0.342615  -0.173867  0.000115  3.574032  0.001
N  N201  1  0.87046159  0.99377489  0.44744958  1  -1.102945  0.001125  -0.342548  -0.174614  0.000115  3.571972  0.001
N  N202  1  0.95351164  0.57679028  0.94723059  1  -1.075336  0.001133  -0.342709  -0.173621  0.000115  3.574304  0.001
N  N203  1  0.12955069  0.00621686  0.55254913  1  -1.10308  0.001124  -0.342646  -0.174593  0.000115  3.571682  0.001
O  O204  1  0.66243049  0.19349506  0.30406801  1  -1.189491  0.001108  -0.338159  -0.565899  -0.000264  2.160256  0.001
O  O205  1  0.38949269  0.35871668  0.19558727  1  -1.19142  0.001078  -0.338261  -0.565418  -0.00029  2.159635  0.001
O  O206  1  0.33757548  0.80650213  0.69593650  1  -1.189499  0.001108  -0.338179  -0.565964  -0.000264  2.16028  0.001
O  O207  1  0.61051263  0.64130021  0.80442328  1  -1.191646  0.001078  -0.338264  -0.565436  -0.00029  2.159838  0.001
O  O208  1  0.68146391  0.05262861  0.31487512  1  -1.171172  0.065931  -0.324426  -0.567424  0.037369  2.321293  0.06
O  O209  1  0.23803982  0.36722938  0.18510996  1  -1.176188  0.066038  -0.324892  -0.567206  0.037393  2.324181  0.061
O  O210  1  0.31853423  0.94735979  0.68511690  1  -1.171484  0.06594  -0.324325  -0.567327  0.037375  2.321464  0.06
O  O211  1  0.76195399  0.63276878  0.81488363  1  -1.176294  0.066039  -0.324851  -0.567257  0.037394  2.324166  0.061
O  O212  1  0.35558229  0.71736763  0.26444934  1  -1.14901  0.07209  -0.325641  -0.563577  0.040824  2.348173  0.067
O  O213  1  0.95265178  0.09123233  0.23510912  1  -1.14725  0.072174  -0.325005  -0.562462  0.040897  2.34601  0.067
O  O214  1  0.64441030  0.28262633  0.73554539  1  -1.149035  0.072086  -0.325641  -0.563581  0.040821  2.348111  0.067
O  O215  1  0.04735069  0.90876225  0.76488881  1  -1.147301  0.072172  -0.325035  -0.562416  0.040896  2.346032  0.067
O  O216  1  0.22787618  0.75543147  0.30688025  1  -1.191662  -0.000559  -0.337423  -0.564913  -0.001543  2.142403  -0.001
O  O217  1  0.94841527  0.92121220  0.19263156  1  -1.19183  -0.000551  -0.337693  -0.564306  -0.001531  2.14131  -0.001
O  O218  1  0.77214697  0.24459564  0.69315630  1  -1.191748  -0.000559  -0.337425  -0.564992  -0.001543  2.142304  -0.001
O  O219  1  0.05160562  0.07879138  0.80738191  1  -1.191818  -0.000551  -0.33763  -0.564227  -0.001531  2.141538  -0.001
