# generated using pymatgen
data_Zn2H12C21S(NO6)2
_symmetry_space_group_name_H-M   'P 1'
_cell_length_a   7.81735789
_cell_length_b   8.95249349
_cell_length_c   12.74558935
_cell_angle_alpha   101.50856181
_cell_angle_beta   103.45127521
_cell_angle_gamma   88.74122391
_symmetry_Int_Tables_number   1
_chemical_formula_structural   Zn2H12C21S(NO6)2
_chemical_formula_sum   'Zn2 H12 C21 S1 N2 O12'
_cell_volume   849.80749707
_cell_formula_units_Z   1
loop_
 _symmetry_equiv_pos_site_id
 _symmetry_equiv_pos_as_xyz
  1  'x, y, z'
loop_
 _atom_site_type_symbol
 _atom_site_label
 _atom_site_symmetry_multiplicity
 _atom_site_fract_x
 _atom_site_fract_y
 _atom_site_fract_z
 _atom_site_occupancy
 _atom_site_pbe_bader_charge
 _atom_site_pbe_bader_spin_density
 _atom_site_pbe_cm5_charge
 _atom_site_pbe_ddec_charge
 _atom_site_pbe_ddec_spin_density
 _atom_site_pbe_ddec_sum_bond_order
 _atom_site_pbe_magmom
Zn  Zn0  1  0.82847737  0.52122042  0.52169974  1  1.312255  0  0.693352  0.86628  0  2.343549  0
Zn  Zn1  1  0.17737408  0.46750503  0.48450511  1  1.305724  0  0.678135  0.835217  0  2.377013  0
H  H2  1  0.02986679  0.30808696  0.12249704  1  0.095837  0  0.107354  0.113503  0  0.988242  0
H  H3  1  0.16602717  0.97774791  0.45226134  1  0.14473  0  0.126365  0.153519  0  0.959574  0
H  H4  1  0.81670329  0.24251663  0.65575548  1  0.656719  0  0.310003  0.36891  0  0.953314  0
H  H5  1  0.37319513  0.76884055  0.75834105  1  0.079146  0  0.10895  0.050007  0  0.96114  0
H  H6  1  0.49946521  0.32977461  0.46202831  1  0.45348  0  0.341413  0.282188  0  0.868105  0
H  H7  1  0.50249837  0.64583867  0.52562948  1  0.523171  0  0.334311  0.288935  0  0.918747  0
H  H8  1  0.73638938  0.48996015  0.80386996  1  0.107628  0  0.109954  0.119367  0  1.023938  0
H  H9  1  0.91707449  0.33061781  0.92623788  1  0.078318  0  0.107669  0.118904  0  0.98908  0
H  H10  1  0.56514884  0.51387893  0.20363760  1  0.108689  0  0.103832  0.109747  0  1.018201  0
H  H11  1  0.92609897  0.68070896  0.87444813  1  0.094978  0  0.112669  0.120864  0  1.000304  0
H  H12  1  0.31464264  0.57669440  0.14698221  1  0.076568  0  0.106347  0.10695  0  1.001599  0
H  H13  1  0.02712879  0.68075379  0.07590435  1  0.051597  0  0.106396  0.107611  0  0.986826  0
C  C14  1  0.06831694  0.77247254  0.49272482  1  1.616447  0  0.220075  0.641753  0  4.157642  0
C  C15  1  0.17271676  0.60880258  0.83897872  1  -0.063253  0  -0.015062  -0.08943  0  3.939031  0
C  C16  1  0.07744794  0.93956409  0.49695259  1  -0.014656  0  -0.052932  -0.135466  0  3.804755  0
C  C17  1  0.09661653  0.57286301  0.71719882  1  1.527515  0  0.221723  0.590794  0  4.141767  0
C  C18  1  0.98598444  0.04711326  0.54871105  1  -0.134576  0  -0.012201  -0.200605  0  3.832729  0
C  C19  1  0.99189947  0.20766364  0.53005506  1  1.589725  0  0.225487  0.631197  0  4.150641  0
C  C20  1  0.87871260  0.42262812  0.29363441  1  1.525755  0  0.21541  0.603455  0  4.155764  0
C  C21  1  0.84018416  0.37046929  0.98717992  1  0.01944  0  -0.077923  -0.109661  0  3.961177  0
C  C22  1  0.80310092  0.41366469  0.17356666  1  0.058863  0  -0.016446  -0.027431  0  3.98289  0
C  C23  1  0.06004909  0.65085529  0.90935467  1  0.085343  0  -0.072548  -0.069947  0  3.948757  0
C  C24  1  0.11654853  0.64829968  0.02162941  1  0.00904  0  -0.088666  -0.08591  0  4.034363  0
C  C25  1  0.40044022  0.55322160  0.99420855  1  0.006346  0  -0.00308  0.028119  0  3.969863  0
C  C26  1  0.28025362  0.59200913  0.06197262  1  -0.140258  0  -0.075641  -0.105379  0  3.961864  0
C  C27  1  0.47175641  0.67906469  0.74801017  1  0.925722  0  0.095424  0.287552  0  3.983079  0
C  C28  1  0.35066145  0.57649874  0.88403126  1  -0.023257  0  0.006215  0.032941  0  3.950726  0
C  C29  1  0.57165116  0.48952502  0.03125583  1  0.001249  0  0.001515  0.035971  0  3.956718  0
C  C30  1  0.67993806  0.44390899  0.95441112  1  -0.005123  0  0.00017  0.074378  0  3.994365  0
C  C31  1  0.63777677  0.49535826  0.85264664  1  -0.041718  0  -0.065906  -0.123314  0  3.893382  0
C  C32  1  0.48484838  0.57102868  0.82279761  1  0.000366  0  -0.019694  -0.021442  0  4.013381  0
C  C33  1  0.63807953  0.47379255  0.14072781  1  -0.130346  0  -0.07994  -0.13639  0  3.940295  0
C  C34  1  0.90232087  0.35706481  0.09540092  1  -0.074883  0  -0.082611  -0.097705  0  3.990864  0
S  S35  1  0.84337389  0.00601355  0.63348110  1  3.112411  0  0.533056  1.182282  0  5.994186  0
N  N36  1  0.44338998  0.43511670  0.47934319  1  -0.439791  0  -0.242151  -0.134876  0  3.16718  0
N  N37  1  0.55683827  0.53960205  0.50625974  1  -0.388867  0  -0.230585  -0.09774  0  3.221507  0
O  O38  1  0.92055498  0.71682493  0.49324983  1  -1.161435  0  -0.306363  -0.546195  0  2.3588  0
O  O39  1  0.93252557  0.91196728  0.70684778  1  -1.287131  0  -0.305258  -0.508055  0  2.154168  0
O  O40  1  0.83877352  0.17065063  0.70906894  1  -1.239716  0  -0.37001  -0.541417  0  2.189169  0
O  O41  1  0.57234033  0.68845012  0.68805293  1  -1.088119  0  -0.255936  -0.366704  0  2.264401  0
O  O42  1  0.20748867  0.69854295  0.48506341  1  -1.151953  0  -0.310748  -0.540631  0  2.253576  0
O  O43  1  0.92985561  0.57119556  0.68505423  1  -1.109677  0  -0.300013  -0.511907  0  2.379913  0
O  O44  1  0.20060064  0.53557498  0.65244721  1  -1.152351  0  -0.299426  -0.552071  0  2.416372  0
O  O45  1  0.85944675  0.29019591  0.54463223  1  -1.170341  0  -0.310408  -0.573768  0  2.348225  0
O  O46  1  0.12262758  0.24762473  0.49892227  1  -1.15854  0  -0.301951  -0.517371  0  2.294288  0
O  O47  1  0.77168080  0.43228927  0.35626978  1  -1.15873  0  -0.325893  -0.571986  0  2.345338  0
O  O48  1  0.04642207  0.42590662  0.32518792  1  -1.146819  0  -0.319883  -0.545801  0  2.309987  0
O  O49  1  0.67085929  0.96524142  0.56379491  1  -1.285523  0  -0.324548  -0.539239  0  2.103209  0
