# generated using pymatgen
data_CoH8C8(SN3)2
_symmetry_space_group_name_H-M   'P 1'
_cell_length_a   5.47968777
_cell_length_b   7.56582155
_cell_length_c   13.41342133
_cell_angle_alpha   102.16488197
_cell_angle_beta   89.99879312
_cell_angle_gamma   90.00088683
_symmetry_Int_Tables_number   1
_chemical_formula_structural   CoH8C8(SN3)2
_chemical_formula_sum   'Co2 H16 C16 S4 N12'
_cell_volume   543.61112684
_cell_formula_units_Z   2
loop_
 _symmetry_equiv_pos_site_id
 _symmetry_equiv_pos_as_xyz
  1  'x, y, z'
loop_
 _atom_site_type_symbol
 _atom_site_label
 _atom_site_symmetry_multiplicity
 _atom_site_fract_x
 _atom_site_fract_y
 _atom_site_fract_z
 _atom_site_occupancy
 _atom_site_hle17_ddec_charge
 _atom_site_hle17_ddec_spin_density
 _atom_site_hle17_ddec_sum_bond_order
 _atom_site_hle17_magmom
 _atom_site_hse06_10hf_ddec_charge
 _atom_site_hse06_10hf_ddec_spin_density
 _atom_site_hse06_10hf_ddec_sum_bond_order
 _atom_site_hse06_10hf_magmom
 _atom_site_hse06_ddec_charge
 _atom_site_hse06_ddec_spin_density
 _atom_site_hse06_ddec_sum_bond_order
 _atom_site_hse06_magmom
 _atom_site_pbe_cm5_charge
 _atom_site_pbe_ddec_charge
 _atom_site_pbe_ddec_spin_density
 _atom_site_pbe_ddec_sum_bond_order
 _atom_site_pbe_magmom
Co  Co0  1  0.00001751  0.49998123  0.49999600  1  0.587363  1.102886  2.864855  0.893  0.605881  1.021029  3.28516  0.886  0.676266  1.048036  3.208019  0.927  0.648538  0.556298  0.980322  3.338939  0.833
Co  Co1  1  0.50000112  0.00001775  0.00000221  1  0.587583  -1.102884  2.86493  -0.893  0.606087  -1.021019  3.285236  -0.886  0.676476  -1.048031  3.208084  -0.927  0.648543  0.556512  -0.980308  3.339007  -0.833
H  H2  1  0.27605687  0.15868335  0.55156867  1  0.091582  0.000166  0.958391  0.0  0.09906  -2.2e-05  1.02453  0.0  0.100327  -1.5e-05  1.023119  0.0  0.133337  0.097978  -3.2e-05  1.025791  0.0
H  H3  1  0.77607592  0.34130255  0.94842728  1  0.09157  -0.000165  0.958462  0.0  0.099072  2.2e-05  1.024565  0.0  0.10034  1.5e-05  1.023149  0.0  0.133342  0.097989  3.2e-05  1.025832  0.0
H  H4  1  0.72396760  0.84129411  0.44843862  1  0.09157  0.000165  0.958494  0.0  0.099153  -2.2e-05  1.024533  0.0  0.100393  -1.5e-05  1.023194  0.0  0.133322  0.098061  -3.2e-05  1.025808  0.0
H  H5  1  0.22392666  0.65869682  0.05156631  1  0.091612  -0.000165  0.958313  0.0  0.099125  2.2e-05  1.024438  0.0  0.100374  1.5e-05  1.02307  0.0  0.133334  0.09804  3.2e-05  1.025706  0.0
H  H6  1  0.57054324  0.36614152  0.63120143  1  0.104845  -8.8e-05  0.995497  0.0  0.111207  -0.000137  1.060525  0.0  0.112405  -0.000119  1.060907  0.0  0.113435  0.110203  -0.000153  1.060479  0.0
H  H7  1  0.07056066  0.13387430  0.86879410  1  0.104916  8.9e-05  0.995415  0.0  0.111311  0.000137  1.060413  0.0  0.11251  0.00012  1.060792  0.0  0.113441  0.110294  0.000153  1.060395  0.0
H  H8  1  0.42944656  0.63382117  0.36879807  1  0.104942  -8.9e-05  0.995299  0.0  0.111295  -0.000137  1.060333  0.0  0.112501  -0.00012  1.060699  0.0  0.113471  0.110278  -0.000154  1.060313  0.0
H  H9  1  0.92945104  0.86616968  0.13120577  1  0.10497  8.9e-05  0.995273  0.0  0.111332  0.000137  1.060294  0.0  0.112522  0.000119  1.0607  0.0  0.113475  0.110326  0.000153  1.060242  0.0
H  H10  1  0.63734235  0.05553341  0.70720565  1  0.11209  0.000216  0.969194  0.0  0.117974  0.000357  1.036488  0.0  0.120484  0.000275  1.035862  0.0  0.113675  0.115855  0.000435  1.037443  0.0
H  H11  1  0.13738047  0.44448144  0.79279065  1  0.112074  -0.000217  0.969174  0.0  0.11794  -0.000356  1.036478  0.0  0.120447  -0.000275  1.03586  0.0  0.113694  0.115824  -0.000435  1.03744  0.0
H  H12  1  0.36264380  0.94443495  0.29277815  1  0.112146  0.000217  0.968981  0.0  0.118022  0.000356  1.036285  0.0  0.120521  0.000275  1.035667  0.0  0.113691  0.115899  0.000435  1.037253  0.0
H  H13  1  0.86263123  0.55556119  0.20720830  1  0.11209  -0.000217  0.969272  0.0  0.118037  -0.000356  1.036465  0.0  0.120546  -0.000275  1.035837  0.0  0.113681  0.115916  -0.000435  1.03743  0.0
H  H14  1  0.07063472  0.94870707  0.65010520  1  0.277851  -0.000456  0.94222  0.0  0.259255  -0.000316  1.010455  0.0  0.266529  -0.000267  1.00554  0.0  0.292048  0.253826  -0.000355  1.014301  0.0
H  H15  1  0.57067879  0.55129397  0.84989299  1  0.277785  0.000456  0.94227  0.0  0.259194  0.000316  1.010485  0.0  0.266462  0.000267  1.005597  0.0  0.292039  0.253775  0.000355  1.014314  0.0
H  H16  1  0.92936238  0.05125840  0.34989016  1  0.277632  -0.000457  0.942657  0.0  0.259133  -0.000316  1.010697  0.0  0.266418  -0.000267  1.005784  0.0  0.292018  0.253709  -0.000355  1.014545  0.0
H  H17  1  0.42935298  0.44872835  0.15010494  1  0.27765  0.000456  0.942548  0.0  0.259182  0.000316  1.01059  0.0  0.266467  0.000267  1.00568  0.0  0.292018  0.253756  0.000355  1.014448  0.0
C  C18  1  0.09435069  0.17675582  0.58345510  1  0.204936  -0.005647  3.638186  -0.007  0.148374  -0.00189  3.912277  -0.002  0.165143  -0.00141  3.924616  -0.002  0.138265  0.136861  -0.002332  3.904234  -0.003
C  C19  1  0.59438000  0.32324514  0.91654658  1  0.205238  0.005638  3.638026  0.007  0.14859  0.001889  3.912125  0.002  0.16537  0.00141  3.924466  0.002  0.138447  0.137077  0.002332  3.904077  0.003
C  C20  1  0.90564458  0.82319202  0.41654107  1  0.205096  -0.005641  3.638089  -0.007  0.148336  -0.001889  3.912134  -0.002  0.165119  -0.001409  3.924482  -0.002  0.138293  0.136825  -0.002331  3.904082  -0.003
C  C21  1  0.40562075  0.67678524  0.08345608  1  0.205186  0.005637  3.637855  0.007  0.148467  0.001889  3.911934  0.002  0.165254  0.001409  3.924276  0.002  0.138351  0.136958  0.002331  3.9039  0.003
C  C22  1  0.72685593  0.27761056  0.62502478  1  -0.020857  -0.002784  3.712075  -0.004  -0.050004  -0.001162  3.977889  -0.001  -0.047081  -0.000959  3.99943  -0.001  -0.010411  -0.052435  -0.001305  3.964077  -0.002
C  C23  1  0.22688439  0.22240056  0.87498517  1  -0.021015  0.002775  3.711957  0.004  -0.050238  0.001162  3.977799  0.001  -0.047307  0.00096  3.999357  0.001  -0.010452  -0.052671  0.001305  3.963961  0.002
C  C24  1  0.27312839  0.72236420  0.37498218  1  -0.020948  -0.002782  3.711715  -0.004  -0.050114  -0.001161  3.97755  -0.001  -0.047175  -0.000959  3.999087  -0.001  -0.010368  -0.052558  -0.001304  3.963726  -0.002
C  C25  1  0.77312184  0.77763245  0.12502228  1  -0.020968  0.002779  3.711719  0.004  -0.050138  0.001161  3.97752  0.001  -0.047212  0.000959  3.999056  0.001  -0.010434  -0.052571  0.001304  3.963706  0.002
C  C26  1  0.75679089  0.12407659  0.66322932  1  -0.013928  0.001187  3.688123  0.001  -0.050846  9.7e-05  3.949439  0.0  -0.049381  7.4e-05  3.967727  0.0  -0.003041  -0.05182  0.000117  3.93777  0.0
C  C27  1  0.25682328  0.37593228  0.83676368  1  -0.013857  -0.001177  3.6877  -0.001  -0.050742  -9.7e-05  3.949036  0.0  -0.049275  -7.5e-05  3.967322  0.0  -0.002985  -0.051722  -0.000117  3.937381  0.0
C  C28  1  0.24317700  0.87591854  0.33677493  1  -0.014103  0.001186  3.688047  0.001  -0.051049  9.7e-05  3.949372  0.0  -0.04955  7.4e-05  3.967668  0.0  -0.003041  -0.052034  0.000117  3.937724  0.0
C  C29  1  0.74319755  0.62408878  0.16322888  1  -0.014025  -0.001183  3.688014  -0.001  -0.051043  -9.7e-05  3.949363  0.0  -0.049555  -7.4e-05  3.967654  0.0  -0.00311  -0.052025  -0.000117  3.937711  0.0
C  C30  1  0.46325793  0.34073315  0.39901362  1  0.269085  -0.020492  3.960691  -0.029  0.264709  -0.004745  4.269904  -0.01  0.292808  -0.004357  4.280144  -0.009  0.148522  0.243757  -0.005707  4.26242  -0.011
C  C31  1  0.96324596  0.15926600  0.10098197  1  0.269004  0.0205  3.960371  0.029  0.264635  0.004745  4.269619  0.01  0.29273  0.004357  4.279858  0.009  0.14838  0.24368  0.005707  4.262125  0.011
C  C32  1  0.53672639  0.65924844  0.60099045  1  0.269344  -0.020448  3.961786  -0.029  0.264971  -0.00473  4.27098  -0.01  0.293053  -0.004343  4.281223  -0.009  0.148539  0.244029  -0.005688  4.263482  -0.011
C  C33  1  0.03669091  0.84076311  0.89901531  1  0.269167  0.020476  3.961335  0.029  0.264792  0.004738  4.270559  0.01  0.292882  0.004352  4.280813  0.009  0.148497  0.24385  0.005698  4.263054  0.011
S  S34  1  0.72893649  0.31133725  0.34359958  1  -0.280963  0.041218  2.222209  0.052  -0.292825  0.029177  2.56441  0.034  -0.313398  0.020653  2.55448  0.023  -0.10582  -0.274343  0.040278  2.570767  0.047
S  S35  1  0.22892209  0.18863204  0.15639440  1  -0.280934  -0.041227  2.222357  -0.052  -0.292715  -0.029184  2.564437  -0.034  -0.313313  -0.020657  2.554539  -0.023  -0.105728  -0.274236  -0.040285  2.570802  -0.047
S  S36  1  0.27109163  0.68863645  0.65638935  1  -0.281029  0.041201  2.222942  0.052  -0.292777  0.029174  2.565027  0.034  -0.313364  0.020653  2.55513  0.023  -0.105787  -0.274299  0.040264  2.571391  0.047
S  S37  1  0.77109691  0.81139558  0.84361165  1  -0.280885  -0.041179  2.223413  -0.052  -0.292654  -0.029161  2.565545  -0.034  -0.313237  -0.020643  2.55566  -0.023  -0.105743  -0.274184  -0.040252  2.571899  -0.047
N  N38  1  0.93882221  0.30927392  0.57486023  1  -0.301364  -0.007215  3.38372  -0.009  -0.259797  -0.00477  3.677592  -0.007  -0.291599  -0.005106  3.698713  -0.008  -0.353381  -0.238661  -0.004003  3.663707  -0.005
N  N39  1  0.43884919  0.19073591  0.92514170  1  -0.301653  0.007219  3.384095  0.009  -0.259998  0.004768  3.677887  0.007  -0.291836  0.005105  3.699038  0.008  -0.353505  -0.238839  0.004001  3.663972  0.005
N  N40  1  0.06118036  0.69070106  0.42513333  1  -0.301491  -0.007219  3.384201  -0.009  -0.259793  -0.00477  3.678021  -0.007  -0.291619  -0.005106  3.699167  -0.008  -0.353522  -0.238635  -0.004003  3.664097  -0.005
N  N41  1  0.56115338  0.80927956  0.07486134  1  -0.301624  0.007218  3.384019  0.009  -0.259887  0.004769  3.677776  0.007  -0.291701  0.005106  3.698906  0.008  -0.353416  -0.23875  0.004001  3.663881  0.005
N  N42  1  0.98913799  0.06382736  0.63637035  1  -0.27712  -0.000942  3.525687  -0.001  -0.209062  -0.000642  3.752895  -0.001  -0.225341  -0.000491  3.768704  -0.001  -0.381014  -0.198235  -0.000767  3.742616  -0.001
N  N43  1  0.48915959  0.43618140  0.86363324  1  -0.277127  0.000942  3.525389  0.001  -0.209046  0.000642  3.752628  0.001  -0.225335  0.000491  3.768444  0.001  -0.381119  -0.198222  0.000767  3.742361  0.001
N  N44  1  0.01085728  0.93613810  0.36362576  1  -0.276833  -0.000942  3.526041  -0.001  -0.208815  -0.000642  3.753315  -0.001  -0.225183  -0.000491  3.769264  -0.001  -0.380953  -0.197958  -0.000767  3.742933  -0.001
N  N45  1  0.51085211  0.56385298  0.13637289  1  -0.27693  0.000943  3.525442  0.001  -0.208945  0.000642  3.752698  0.001  -0.225305  0.000491  3.768611  0.001  -0.380952  -0.198082  0.000767  3.742311  0.001
N  N46  1  0.27262243  0.37752953  0.43944411  1  -0.459769  0.021207  3.239634  0.032  -0.440999  0.010639  3.550837  0.015  -0.468977  0.007873  3.551519  0.011  -0.409956  -0.421164  0.014355  3.549837  0.02
N  N47  1  0.77260609  0.12245753  0.06055690  1  -0.459781  -0.021218  3.239281  -0.032  -0.441023  -0.010643  3.550495  -0.015  -0.468991  -0.007877  3.55117  -0.011  -0.409893  -0.421206  -0.01436  3.549543  -0.02
N  N48  1  0.72735642  0.62244779  0.56057211  1  -0.460054  0.021196  3.239716  0.032  -0.441292  0.01064  3.550859  0.015  -0.469292  0.007872  3.551601  0.011  -0.409862  -0.421443  0.014357  3.549831  0.02
N  N49  1  0.22735816  0.87756353  0.93943566  1  -0.460071  -0.02123  3.239114  -0.032  -0.441333  -0.010657  3.550343  -0.015  -0.469321  -0.007887  3.551045  -0.011  -0.4099  -0.421484  -0.014375  3.549317  -0.02
