# generated using pymatgen
data_Mn3H32C22(NO7)2
_symmetry_space_group_name_H-M   'P 1'
_cell_length_a   8.08255081
_cell_length_b   8.96966493
_cell_length_c   9.81766712
_cell_angle_alpha   83.88640087
_cell_angle_beta   82.39158580
_cell_angle_gamma   77.39708603
_symmetry_Int_Tables_number   1
_chemical_formula_structural   Mn3H32C22(NO7)2
_chemical_formula_sum   'Mn3 H32 C22 N2 O14'
_cell_volume   686.27473415
_cell_formula_units_Z   1
loop_
 _symmetry_equiv_pos_site_id
 _symmetry_equiv_pos_as_xyz
  1  'x, y, z'
loop_
 _atom_site_type_symbol
 _atom_site_label
 _atom_site_symmetry_multiplicity
 _atom_site_fract_x
 _atom_site_fract_y
 _atom_site_fract_z
 _atom_site_occupancy
 _atom_site_hle17_ddec_charge
 _atom_site_hle17_ddec_spin_density
 _atom_site_hle17_ddec_sum_bond_order
 _atom_site_hle17_magmom
 _atom_site_hse06_10hf_ddec_charge
 _atom_site_hse06_10hf_ddec_spin_density
 _atom_site_hse06_10hf_ddec_sum_bond_order
 _atom_site_hse06_10hf_magmom
 _atom_site_hse06_ddec_charge
 _atom_site_hse06_ddec_spin_density
 _atom_site_hse06_ddec_sum_bond_order
 _atom_site_hse06_magmom
 _atom_site_pbe_cm5_charge
 _atom_site_pbe_ddec_charge
 _atom_site_pbe_ddec_spin_density
 _atom_site_pbe_ddec_sum_bond_order
 _atom_site_pbe_magmom
Mn  Mn0  1  0.49999995  0.99999919  0.50000253  1  1.253382  4.791788  1.683755  4.693  1.092001  4.711788  2.166699  4.56  1.154977  4.758776  2.093229  4.617  0.591558  1.041507  4.66202  2.220699  4.502
Mn  Mn1  1  0.67707417  0.62606013  0.56879180  1  1.214397  -4.78833  1.759457  -4.686  1.04641  -4.706853  2.262135  -4.544  1.104819  -4.752992  2.18929  -4.605  0.604176  1.000691  -4.658306  2.315608  -4.482
Mn  Mn2  1  0.32292909  0.37394129  0.43120634  1  1.214348  -4.788333  1.759532  -4.686  1.046324  -4.706859  2.262211  -4.544  1.104733  -4.753001  2.189367  -4.605  0.604127  1.000605  -4.658313  2.315684  -4.482
H  H3  1  0.90909338  0.61956767  0.73146294  1  0.416918  -0.000168  0.889842  0.0  0.385385  -0.000944  0.955397  -0.001  0.397055  -0.000688  0.938489  -0.001  0.290407  0.37707  -0.001186  0.967399  -0.001
H  H4  1  0.09090719  0.38042918  0.26853699  1  0.416893  -0.000167  0.889885  0.0  0.385356  -0.000944  0.955445  -0.001  0.397026  -0.000688  0.938536  -0.001  0.290385  0.377042  -0.001186  0.967447  -0.001
H  H5  1  0.00453324  0.46136278  0.65826098  1  0.433436  -8e-06  0.86219  -0.002  0.402125  -0.000723  0.92565  -0.003  0.41351  -0.000352  0.909198  -0.002  0.297006  0.39387  -0.001084  0.93756  -0.003
H  H6  1  0.99546805  0.53863635  0.34173762  1  0.433445  -9e-06  0.862166  -0.002  0.402104  -0.000723  0.925689  -0.003  0.413488  -0.000351  0.909237  -0.002  0.296978  0.393851  -0.001083  0.937596  -0.003
H  H7  1  0.04414679  0.74031558  0.17977131  1  0.134263  0.000513  0.962256  0.0  0.152292  0.000552  1.023834  0.0  0.154765  0.000507  1.023128  0.0  0.095607  0.150481  0.00058  1.024403  0.0
H  H8  1  0.95585069  0.25968929  0.82022610  1  0.134234  0.00053  0.962305  0.0  0.152254  0.000551  1.023901  0.0  0.154725  0.000507  1.023197  0.0  0.095587  0.150446  0.00058  1.024469  0.0
H  H9  1  0.96888520  0.94519849  0.16530205  1  0.136285  -0.00031  0.943087  0.0  0.156359  -0.000422  1.000461  0.0  0.158612  -0.000347  0.999843  0.0  0.096402  0.15467  -0.000492  1.001131  0.0
H  H10  1  0.03110978  0.05480636  0.83469361  1  0.136201  -0.000302  0.943055  0.0  0.156262  -0.000422  1.00046  0.0  0.158513  -0.000347  0.999848  0.0  0.096395  0.154576  -0.000492  1.001127  0.0
H  H11  1  0.86873994  0.82506019  0.08605576  1  0.139332  -6.4e-05  0.95052  0.0  0.155953  -6.4e-05  1.016801  0.0  0.158923  -5.6e-05  1.015257  0.0  0.098509  0.153674  -5.1e-05  1.018235  0.0
H  H12  1  0.13125457  0.17494123  0.91394131  1  0.139271  -4.5e-05  0.950505  0.0  0.155898  -6.4e-05  1.016805  0.0  0.158868  -5.6e-05  1.015259  0.0  0.098494  0.153617  -5.1e-05  1.018241  0.0
H  H13  1  0.03310816  0.78406045  0.48330357  1  0.148535  0.000337  0.963653  0.0  0.165138  0.000293  1.022145  0.0  0.168052  0.000336  1.02118  0.0  0.10173  0.162905  0.000222  1.023046  0.0
H  H14  1  0.96688729  0.21594790  0.51670288  1  0.148574  0.000349  0.963571  0.0  0.165133  0.000293  1.022149  0.0  0.168047  0.000335  1.021187  0.0  0.101739  0.162902  0.000222  1.023053  0.0
H  H15  1  0.14526377  0.93970859  0.44147078  1  0.134115  -0.000223  0.972034  0.0  0.153779  -0.000434  1.03119  -0.001  0.155371  -0.000267  1.031855  -0.001  0.099004  0.152712  -0.000548  1.030642  -0.001
H  H16  1  0.85473622  0.06029634  0.55853756  1  0.134107  -0.00025  0.972173  0.0  0.153807  -0.000434  1.031276  -0.001  0.155397  -0.000267  1.031948  -0.001  0.099047  0.152742  -0.000548  1.030725  -0.001
H  H17  1  0.10352666  0.86903966  0.61411310  1  0.147943  -0.000421  0.941157  0.0  0.166124  -0.000805  1.002783  -0.001  0.168658  -0.000607  1.002398  -0.001  0.105345  0.164236  -0.001045  1.003137  -0.001
H  H18  1  0.89647563  0.13096066  0.38589239  1  0.147978  -0.000426  0.941184  0.0  0.166182  -0.000805  1.002777  -0.001  0.168717  -0.000607  1.002391  -0.001  0.105379  0.164296  -0.001045  1.003132  -0.001
H  H19  1  0.70741071  0.04130514  0.90759338  1  0.128138  -0.000202  0.949397  0.0  0.147127  -0.000329  1.00938  0.0  0.149284  -0.000264  1.008771  0.0  0.092848  0.145499  -0.000394  1.010111  0.0
H  H20  1  0.29258631  0.95869633  0.09241258  1  0.128149  -0.000189  0.949399  0.0  0.147124  -0.000329  1.009384  0.0  0.14928  -0.000265  1.008777  0.0  0.092858  0.1455  -0.000394  1.010115  0.0
H  H21  1  0.50966567  0.00003185  0.87438305  1  0.136894  -0.000177  0.949478  0.0  0.156349  -0.000283  1.011347  0.0  0.158838  -0.000248  1.010479  0.0  0.100912  0.154216  -0.000398  1.012704  0.0
H  H22  1  0.49033354  0.99996698  0.12562281  1  0.136953  -0.000171  0.949418  0.0  0.15639  -0.000282  1.01129  0.0  0.15888  -0.000248  1.010422  0.0  0.10094  0.154259  -0.000398  1.012647  0.0
H  H23  1  0.61133715  0.11706630  0.75211772  1  0.136338  0.000263  0.975145  0.0  0.153075  0.000301  1.039879  0.0  0.15542  0.000308  1.039482  0.0  0.100279  0.151261  0.000298  1.040245  0.0
H  H24  1  0.38865560  0.88293746  0.24788848  1  0.136364  0.000284  0.975128  0.0  0.153061  0.000301  1.039879  0.0  0.155405  0.000308  1.039484  0.0  0.100291  0.151252  0.000299  1.040249  0.0
H  H25  1  0.62689602  0.35486365  0.78102343  1  0.065839  -0.000275  0.952445  0.0  0.077989  -0.000807  1.014772  0.0  0.079492  -0.000605  1.013537  0.0  0.115905  0.07667  -0.001022  1.015992  -0.001
H  H26  1  0.37311007  0.64513090  0.21897511  1  0.065815  -0.000278  0.952427  0.0  0.077945  -0.000807  1.014783  0.0  0.079445  -0.000605  1.013549  0.0  0.115897  0.076621  -0.001022  1.016011  -0.001
H  H27  1  0.40258965  0.27334989  0.95739048  1  0.097766  -0.000198  0.95576  0.0  0.111521  -0.000195  1.012194  0.0  0.113154  -0.000152  1.013648  0.0  0.105911  0.109975  -0.000309  1.011941  0.0
H  H28  1  0.59740992  0.72664578  0.04260357  1  0.097781  -0.000203  0.955744  0.0  0.111514  -0.000195  1.012196  0.0  0.113149  -0.000152  1.013649  0.0  0.105933  0.109969  -0.000309  1.011958  0.0
H  H29  1  0.14525480  0.46889873  0.03264736  1  0.098053  0.000167  0.953049  0.0  0.10926  -1.7e-05  1.013806  0.0  0.111986  4.8e-05  1.011656  0.0  0.110141  0.10723  -7.9e-05  1.015475  0.0
H  H30  1  0.85474129  0.53109575  0.96734006  1  0.097951  0.000165  0.953044  0.0  0.109199  -1.7e-05  1.01375  0.0  0.111917  4.8e-05  1.01162  0.0  0.110094  0.107165  -7.9e-05  1.015417  0.0
H  H31  1  0.12144492  0.74116214  0.92652803  1  0.104951  -0.000192  0.96694  0.0  0.115191  -0.000176  1.027846  0.0  0.117996  -0.000144  1.027236  0.0  0.105753  0.112946  -0.000206  1.028781  0.0
H  H32  1  0.87855715  0.25883353  0.07346574  1  0.104929  -0.000192  0.967004  0.0  0.115183  -0.000176  1.027893  0.0  0.117974  -0.000144  1.027302  0.0  0.105742  0.112937  -0.000206  1.028824  0.0
H  H33  1  0.35872287  0.80433796  0.75726164  1  0.079059  -0.00034  0.979084  0.0  0.084272  -0.000631  1.04913  0.0  0.086914  -0.000552  1.047182  0.0  0.116902  0.08219  -0.00072  1.05089  0.0
H  H34  1  0.64128966  0.19566120  0.24274182  1  0.079092  -0.000342  0.979079  0.0  0.084278  -0.000631  1.049145  0.0  0.08692  -0.000552  1.047193  0.0  0.116885  0.082193  -0.00072  1.050906  0.0
C  C35  1  0.80735521  0.82235445  0.30545336  1  0.775183  0.000897  3.796927  0.001  0.729352  0.001154  4.091949  0.001  0.764336  0.000945  4.085162  0.001  0.2309  0.705324  0.001246  4.095152  0.001
C  C36  1  0.19264529  0.17764813  0.69454701  1  0.775072  0.000939  3.797265  0.001  0.72929  0.001152  4.092192  0.001  0.764268  0.000946  4.08542  0.001  0.230846  0.705261  0.001247  4.095396  0.001
C  C37  1  0.93151945  0.83362668  0.17698783  1  -0.468118  -0.000198  3.651326  0.0  -0.543385  -0.000461  3.880983  0.0  -0.550831  -0.00036  3.883212  0.0  -0.248548  -0.53805  -0.00051  3.879504  0.0
C  C38  1  0.06847678  0.16637817  0.82300871  1  -0.467883  -0.000273  3.651297  0.0  -0.543155  -0.00046  3.880976  0.0  -0.550601  -0.00036  3.883218  0.0  -0.248493  -0.537827  -0.00051  3.879498  0.0
C  C39  1  0.30157508  0.72184570  0.50138143  1  0.784218  -0.011538  3.796003  -0.011  0.734404  -0.016646  4.093582  -0.015  0.770869  -0.012857  4.084487  -0.012  0.233726  0.708468  -0.020821  4.099049  -0.018
C  C40  1  0.69842096  0.27815461  0.49862170  1  0.784209  -0.011537  3.796061  -0.011  0.734443  -0.016646  4.093591  -0.015  0.77091  -0.012856  4.084494  -0.012  0.233706  0.708497  -0.02082  4.099083  -0.018
C  C41  1  0.13510927  0.83546524  0.50780608  1  -0.477372  -0.000703  3.647714  -0.001  -0.551789  -0.001426  3.877299  -0.001  -0.559696  -0.000878  3.879584  -0.001  -0.248816  -0.546061  -0.002036  3.875719  -0.001
C  C42  1  0.86488999  0.16453738  0.49220054  1  -0.477408  -0.000673  3.647852  -0.001  -0.551866  -0.001426  3.877459  -0.001  -0.559776  -0.000878  3.879744  -0.001  -0.248887  -0.546146  -0.002036  3.875892  -0.001
C  C43  1  0.72738707  0.87660641  0.75753183  1  0.758445  -0.0011  3.815064  -0.001  0.715812  -0.001813  4.109964  -0.001  0.750008  -0.00133  4.102555  -0.001  0.221468  0.692038  -0.002692  4.113694  -0.002
C  C44  1  0.27261048  0.12339276  0.24247329  1  0.758426  -0.0011  3.815048  -0.001  0.715881  -0.001814  4.109799  -0.001  0.750078  -0.001333  4.102396  -0.001  0.221558  0.692099  -0.002694  4.113541  -0.002
C  C45  1  0.63570705  0.01828105  0.82786139  1  -0.473013  -0.000717  3.67283  -0.001  -0.552858  -0.000931  3.910558  -0.001  -0.559874  -0.000711  3.912712  -0.001  -0.249659  -0.547579  -0.000931  3.909306  -0.001
C  C46  1  0.36429122  0.98172041  0.17214341  1  -0.4731  -0.000773  3.672762  -0.001  -0.552891  -0.000932  3.910506  -0.001  -0.559906  -0.00071  3.912662  -0.001  -0.249728  -0.547619  -0.000931  3.909258  -0.001
C  C47  1  0.51231535  0.43653168  0.81640794  1  0.130587  -0.003583  3.716477  -0.003  0.100145  -0.005376  3.969568  -0.005  0.106966  -0.004653  3.989014  -0.004  0.053576  0.095533  -0.006412  3.95628  -0.005
C  C48  1  0.48768824  0.56346285  0.18358782  1  0.13073  -0.003586  3.716299  -0.003  0.100304  -0.005377  3.969394  -0.005  0.107126  -0.00465  3.988835  -0.004  0.053595  0.095698  -0.006412  3.95611  -0.005
C  C49  1  0.38744032  0.39167409  0.91389284  1  -0.11399  0.002004  3.731603  0.001  -0.125917  0.001158  3.979759  0.001  -0.133252  0.0017  4.003472  0.001  -0.081682  -0.121122  0.000766  3.964199  0.0
C  C50  1  0.61256202  0.60832045  0.08610306  1  -0.114138  0.002026  3.731672  0.001  -0.126069  0.001158  3.979874  0.001  -0.133403  0.001698  4.003584  0.001  -0.081779  -0.121283  0.000766  3.964319  0.0
C  C51  1  0.24387836  0.50117710  0.95563147  1  0.00154  -0.003165  3.705263  -0.003  -0.018727  -0.004407  3.95289  -0.004  -0.014728  -0.003802  3.970852  -0.003  -0.063858  -0.021443  -0.005547  3.940928  -0.004
C  C52  1  0.75611898  0.49881741  0.04436090  1  0.001651  -0.003166  3.705325  -0.003  -0.018622  -0.004407  3.95294  -0.004  -0.014625  -0.003799  3.970897  -0.003  -0.063767  -0.021331  -0.005545  3.940967  -0.004
C  C53  1  0.23225888  0.65202123  0.89912752  1  -0.126052  0.001657  3.730665  0.001  -0.134963  0.000708  3.974488  0.0  -0.142366  0.001249  3.996662  0.001  -0.085281  -0.130184  0.000391  3.960231  0.0
C  C54  1  0.76774668  0.34797559  0.10086779  1  -0.125938  0.001651  3.730649  0.001  -0.134871  0.000708  3.97447  0.0  -0.142263  0.001246  3.996651  0.001  -0.085236  -0.130084  0.00039  3.96019  0.0
C  C55  1  0.36377147  0.68740572  0.80321742  1  0.115209  -0.003436  3.709258  -0.003  0.088588  -0.005085  3.955741  -0.004  0.09438  -0.004339  3.975556  -0.004  0.044874  0.084359  -0.006167  3.94294  -0.005
C  C56  1  0.63623462  0.31258883  0.19678213  1  0.115072  -0.003416  3.708978  -0.003  0.088477  -0.005085  3.955483  -0.004  0.094271  -0.004338  3.97529  -0.004  0.044851  0.084246  -0.006166  3.942688  -0.005
N  N57  1  0.50124687  0.58129487  0.76056391  1  -0.345492  -0.025177  3.252265  -0.012  -0.276052  -0.029023  3.524424  -0.012  -0.295858  -0.025924  3.541764  -0.009  -0.319026  -0.261822  -0.032267  3.512523  -0.014
N  N58  1  0.49876271  0.41870084  0.23943718  1  -0.34549  -0.025191  3.252084  -0.012  -0.276018  -0.029022  3.524165  -0.012  -0.295822  -0.025925  3.541504  -0.009  -0.31899  -0.261789  -0.032266  3.51227  -0.014
O  O59  1  0.69547683  0.94187982  0.33334791  1  -0.674486  0.030622  2.02689  0.018  -0.60355  0.034598  2.289087  0.018  -0.635704  0.031746  2.276619  0.015  -0.31012  -0.579589  0.037376  2.296678  0.021
O  O60  1  0.30452315  0.05812507  0.66665432  1  -0.674517  0.030618  2.027143  0.018  -0.603515  0.034597  2.289234  0.018  -0.635647  0.031745  2.27675  0.015  -0.310135  -0.579555  0.037376  2.296823  0.021
O  O61  1  0.82191589  0.69370981  0.37782765  1  -0.674796  -0.028798  2.047656  -0.017  -0.597488  -0.03332  2.296636  -0.018  -0.62878  -0.030585  2.282775  -0.016  -0.299139  -0.574325  -0.036121  2.305136  -0.021
O  O62  1  0.17808113  0.30629160  0.62216813  1  -0.674709  -0.028817  2.047667  -0.017  -0.597474  -0.033317  2.296684  -0.018  -0.628748  -0.030585  2.282771  -0.016  -0.299066  -0.57431  -0.036118  2.305182  -0.021
O  O63  1  0.44116864  0.77301063  0.48998981  1  -0.721108  -0.001742  2.101019  -0.003  -0.64051  -0.004617  2.390593  -0.006  -0.675142  -0.003124  2.372788  -0.005  -0.305074  -0.614078  -0.005718  2.402199  -0.007
O  O64  1  0.55883141  0.22698851  0.51000994  1  -0.721124  -0.001745  2.101106  -0.003  -0.640515  -0.00462  2.390657  -0.006  -0.675152  -0.003124  2.372851  -0.005  -0.305072  -0.614059  -0.005719  2.402217  -0.007
O  O65  1  0.30130626  0.58081339  0.51316348  1  -0.650617  -0.031968  2.072522  -0.015  -0.583304  -0.040644  2.350783  -0.019  -0.61276  -0.036072  2.334124  -0.015  -0.305378  -0.560985  -0.044734  2.361462  -0.023
O  O66  1  0.69868701  0.41918805  0.48683576  1  -0.650616  -0.031967  2.072475  -0.015  -0.583374  -0.040645  2.350767  -0.019  -0.612832  -0.036076  2.334112  -0.015  -0.305367  -0.561027  -0.044736  2.361393  -0.023
O  O67  1  0.67148769  0.85396054  0.64491566  1  -0.725191  0.001409  2.088407  0.002  -0.642608  0.001874  2.372649  0.002  -0.67748  0.001653  2.35617  0.002  -0.311819  -0.616029  0.002243  2.382769  0.002
O  O68  1  0.32851478  0.14604434  0.35508528  1  -0.725159  0.001395  2.088329  0.002  -0.642594  0.001872  2.372528  0.002  -0.677436  0.001649  2.355981  0.002  -0.311858  -0.616018  0.002243  2.382649  0.002
O  O69  1  0.84881816  0.78667646  0.81026984  1  -0.631367  0.001522  1.919313  0.002  -0.578964  0.001692  2.138593  0.002  -0.603493  0.001434  2.129884  0.002  -0.31104  -0.561564  0.001752  2.1442  0.002
O  O70  1  0.15118012  0.21332500  0.18973497  1  -0.631371  0.001529  1.919372  0.002  -0.578995  0.001691  2.138622  0.002  -0.603525  0.001435  2.129905  0.002  -0.311068  -0.561592  0.001751  2.144233  0.002
O  O71  1  0.89345349  0.53062749  0.68465695  1  -0.862518  -0.032241  1.90251  -0.02  -0.802519  -0.041784  2.115984  -0.026  -0.826929  -0.037392  2.078312  -0.022  -0.577719  -0.783936  -0.046087  2.142496  -0.03
O  O72  1  0.10654905  0.46937163  0.31534050  1  -0.862499  -0.03224  1.902507  -0.02  -0.802471  -0.041784  2.115961  -0.026  -0.826894  -0.037392  2.078315  -0.022  -0.577663  -0.783892  -0.046087  2.142471  -0.03
