# generated using pymatgen
data_GdH19C30N5O7
_symmetry_space_group_name_H-M   'P 1'
_cell_length_a   10.50048262
_cell_length_b   11.18154297
_cell_length_c   13.47600000
_cell_angle_alpha   110.01630024
_cell_angle_beta   101.34168517
_cell_angle_gamma   107.87503003
_symmetry_Int_Tables_number   1
_chemical_formula_structural   GdH19C30N5O7
_chemical_formula_sum   'Gd2 H38 C60 N10 O14'
_cell_volume   1331.92922092
_cell_formula_units_Z   2
loop_
 _symmetry_equiv_pos_site_id
 _symmetry_equiv_pos_as_xyz
  1  'x, y, z'
loop_
 _atom_site_type_symbol
 _atom_site_label
 _atom_site_symmetry_multiplicity
 _atom_site_fract_x
 _atom_site_fract_y
 _atom_site_fract_z
 _atom_site_occupancy
 _atom_site_hle17_bader_spin_density
 _atom_site_hle17_ddec_charge
 _atom_site_hle17_ddec_spin_density
 _atom_site_hle17_ddec_sum_bond_order
 _atom_site_hle17_magmom
 _atom_site_hse06_10hf_bader_spin_density
 _atom_site_hse06_10hf_ddec_charge
 _atom_site_hse06_10hf_ddec_spin_density
 _atom_site_hse06_10hf_ddec_sum_bond_order
 _atom_site_hse06_10hf_magmom
 _atom_site_hse06_bader_spin_density
 _atom_site_hse06_ddec_charge
 _atom_site_hse06_ddec_spin_density
 _atom_site_hse06_ddec_sum_bond_order
 _atom_site_hse06_magmom
 _atom_site_pbe_bader_charge
 _atom_site_pbe_bader_spin_density
 _atom_site_pbe_cm5_charge
 _atom_site_pbe_ddec_charge
 _atom_site_pbe_ddec_spin_density
 _atom_site_pbe_ddec_sum_bond_order
 _atom_site_pbe_magmom
Gd  Gd0  1  0.49960177  0.91699044  0.62294724  1  0  2.135034  0  1.867814  0  0  2.016101  0  2.263707  0  0  2.077026  0  2.199842  0  2.172418  0  1.473461  1.969789  0  2.313578  0
Gd  Gd1  1  0.50039823  0.08300955  0.37705291  1  0  2.135044  0  1.867814  0  0  2.01612  0  2.263682  0  0  2.07703  0  2.199847  0  2.172416  0  1.473465  1.969813  0  2.31355  0
H  H2  1  0.41770009  0.56884720  0.99466897  1  0  0.095468  0  0.973091  0  0  0.103633  0  1.037056  0  0  0.106082  0  1.038262  0  0.076212  0  0.100463  0.101839  0  1.036524  0
H  H3  1  0.58229753  0.43115176  0.00533052  1  0  0.095475  0  0.973066  0  0  0.103642  0  1.037034  0  0  0.106091  0  1.038239  0  0.076206  0  0.100466  0.101847  0  1.036502  0
H  H4  1  0.26763906  0.32598723  0.95928922  1  0  0.057355  0  0.953611  0  0  0.065243  0  1.020369  0  0  0.06736  0  1.019214  0  0.086247  0  0.103998  0.063763  0  1.021176  0
H  H5  1  0.73236191  0.67401277  0.04071107  1  0  0.057351  0  0.953604  0  0  0.06524  0  1.020363  0  0  0.067356  0  1.019208  0  0.086247  0  0.103991  0.063757  0  1.021176  0
H  H6  1  0.96233878  0.44976823  0.38645204  1  0  0.067651  0  0.952217  0  0  0.075489  0  1.019943  0  0  0.078241  0  1.017569  0  0.059326  0  0.106542  0.0735  0  1.02178  0
H  H7  1  0.03766219  0.55023177  0.61354826  1  0  0.067665  0  0.952177  0  0  0.07551  0  1.019895  0  0  0.078262  0  1.01752  0  0.059325  0  0.106561  0.07352  0  1.021733  0
H  H8  1  0.03113048  0.30509578  0.47512457  1  0  0.100703  0  0.963511  0  0  0.110382  0  1.025337  0  0  0.11267  0  1.026426  0  0.072595  0  0.103248  0.108456  0  1.02539  0
H  H9  1  0.96887049  0.69490422  0.52487646  1  0  0.100705  0  0.963549  0  0  0.1104  0  1.025363  0  0  0.112688  0  1.026451  0  0.072604  0  0.103251  0.108473  0  1.025415  0
H  H10  1  0.23715558  0.24367663  0.44447574  1  0  0.120214  0  0.939294  0  0  0.127099  0  1.00246  0  0  0.130529  0  1.000028  0  0.125674  0  0.117799  0.124521  0  1.004343  0
H  H11  1  0.76284442  0.75632337  0.55552441  1  0  0.120216  0  0.9393  0  0  0.127098  0  1.002465  0  0  0.130528  0  1.000034  0  0.125677  0  0.117798  0.12452  0  1.004349  0
H  H12  1  0.06580648  0.68375642  0.29274072  1  0  0.107981  0  0.939014  0  0  0.113208  0  1.005651  0  0  0.11746  0  1.002233  0  0.127761  0  0.106763  0.109752  0  1.008796  0
H  H13  1  0.93419351  0.31624358  0.70725868  1  0  0.107974  0  0.93902  0  0  0.113202  0  1.005656  0  0  0.117455  0  1.002237  0  0.12776  0  0.106761  0.109747  0  1.0088  0
H  H14  1  0.80000426  0.55800043  0.21532732  1  0  0.097868  0  0.957771  0  0  0.110272  0  1.013677  0  0  0.113541  0  1.012893  0  0.100024  0  0.103716  0.107962  0  1.014256  0
H  H15  1  0.19999574  0.44199956  0.78467134  1  0  0.097859  0  0.957776  0  0  0.110261  0  1.013689  0  0  0.113529  0  1.012907  0  0.100025  0  0.10371  0.107952  0  1.014267  0
H  H16  1  0.65588912  0.67796064  0.30006784  1  0  0.074744  0  0.960289  0  0  0.083351  0  1.022843  0  0  0.086031  0  1.02081  0  0.073867  0  0.109349  0.081317  0  1.024628  0
H  H17  1  0.34411228  0.32204039  0.69993207  1  0  0.07479  0  0.960275  0  0  0.083385  0  1.022833  0  0  0.086066  0  1.020797  0  0.073848  0  0.109359  0.08135  0  1.024617  0
H  H18  1  0.84863299  0.07118363  0.77406392  1  0  0.084585  0  0.951302  0  0  0.090056  0  1.0178  0  0  0.093286  0  1.014728  0  0.103205  0  0.120547  0.087745  0  1.019935  0
H  H19  1  0.15136798  0.92881636  0.22593638  1  0  0.084556  0  0.951263  0  0  0.090029  0  1.01777  0  0  0.093258  0  1.014699  0  0.103166  0  0.12054  0.087718  0  1.019904  0
H  H20  1  0.03000785  0.22618306  0.96916798  1  0  0.101621  0  0.987118  0  0  0.107328  0  1.05443  0  0  0.110503  0  1.053563  0  0.098405  0  0.102542  0.105331  0  1.05455  0
H  H21  1  0.96999312  0.77381694  0.03083232  1  0  0.101614  0  0.987117  0  0  0.107334  0  1.054415  0  0  0.110508  0  1.053548  0  0.098412  0  0.102543  0.105336  0  1.054535  0
H  H22  1  0.94619518  0.31627691  0.12821751  1  0  0.105689  0  0.960493  0  0  0.111877  0  1.027352  0  0  0.114849  0  1.025495  0  0.142359  0  0.106594  0.109657  0  1.028729  0
H  H23  1  0.05380482  0.68372308  0.87178263  1  0  0.105633  0  0.960544  0  0  0.11183  0  1.02739  0  0  0.114797  0  1.025539  0  0.142361  0  0.106583  0.109609  0  1.028765  0
H  H24  1  0.73858481  0.31566129  0.19708693  1  0  0.107153  0  0.94367  0  0  0.119583  0  1.002731  0  0  0.122329  0  1.001715  0  0.119167  0  0.10935  0.117597  0  1.003471  0
H  H25  1  0.26141519  0.68433870  0.80291321  1  0  0.107174  0  0.943653  0  0  0.119602  0  1.002713  0  0  0.122349  0  1.001697  0  0.11917  0  0.10935  0.117617  0  1.003453  0
H  H26  1  0.48054237  0.24528182  0.15513485  1  0  0.117509  0  0.96385  0  0  0.125364  0  1.027007  0  0  0.128645  0  1.025823  0  0.129676  0  0.11089  0.123021  0  1.027882  0
H  H27  1  0.51945762  0.75471818  0.84486456  1  0  0.117504  0  0.963845  0  0  0.125359  0  1.027003  0  0  0.12864  0  1.025819  0  0.129678  0  0.110889  0.123016  0  1.027877  0
H  H28  1  0.23358808  0.11474151  0.01468496  1  0  0.109236  0  0.930895  0  0  0.118187  0  0.992697  0  0  0.121915  0  0.989548  0  0.109856  0  0.113313  0.115423  0  0.995081  0
H  H29  1  0.76641192  0.88525848  0.98531519  1  0  0.109259  0  0.930895  0  0  0.118213  0  0.992693  0  0  0.121942  0  0.989545  0  0.109758  0  0.113326  0.115461  0  0.995064  0
H  H30  1  0.07491347  0.96087228  0.81266965  1  0  0.108145  0  0.936294  0  0  0.122595  0  0.985499  0  0  0.125208  0  0.986209  0  0.071861  0  0.111165  0.120864  0  0.984854  0
H  H31  1  0.92508653  0.03912772  0.18732901  1  0  0.108125  0  0.936305  0  0  0.122575  0  0.985512  0  0  0.125189  0  0.986221  0  0.071854  0  0.111157  0.120845  0  0.984867  0
H  H32  1  0.18812091  0.89410943  0.66685368  1  0  0.08639  0  0.953873  0  0  0.091223  0  1.023018  0  0  0.094061  0  1.02038  0  0.136714  0  0.121653  0.089021  0  1.02519  0
H  H33  1  0.81188049  0.10589160  0.33314697  1  0  0.086369  0  0.953876  0  0  0.091204  0  1.023027  0  0  0.094042  0  1.020387  0  0.136709  0  0.121645  0.089001  0  1.025201  0
H  H34  1  0.49522577  0.75987333  0.19005609  1  0  0.094932  0  0.991568  0  0  0.10314  0  1.056474  0  0  0.105638  0  1.055442  0  0.120131  0  0.110836  0.101371  0  1.05713  0
H  H35  1  0.50477325  0.24012666  0.80994317  1  0  0.094968  0  0.991518  0  0  0.103165  0  1.056423  0  0  0.105662  0  1.055398  0  0.120138  0  0.110826  0.101375  0  1.057111  0
H  H36  1  0.36656896  0.64751513  0.63249244  1  0  0.416693  0  0.893183  0  0  0.38517  0  0.958931  0  0  0.397207  0  0.941593  0  0.642535  0  0.288365  0.376713  0  0.971017  0
H  H37  1  0.63343103  0.35248487  0.36750770  1  0  0.416693  0  0.893182  0  0  0.385171  0  0.958928  0  0  0.397209  0  0.941589  0  0.642534  0  0.288367  0.376714  0  0.971013  0
H  H38  1  0.25756982  0.65034010  0.53508124  1  0  0.41939  0  0.847077  0  0  0.396726  0  0.913476  0  0  0.404378  0  0.905581  0  0.657052  0  0.309674  0.391242  0  0.919286  0
H  H39  1  0.74243017  0.34965990  0.46491891  1  0  0.419386  0  0.847082  0  0  0.39672  0  0.913484  0  0  0.404374  0  0.905586  0  0.65705  0  0.309671  0.391238  0  0.919292  0
C  C40  1  0.42723058  0.74187248  0.36372660  1  0  0.725686  0  3.850653  0  0  0.677376  0  4.143608  0  0  0.713331  0  4.133516  0  1.588812  0  0.232287  0.652843  0  4.149995  0
C  C41  1  0.57276941  0.25812752  0.63627354  1  0  0.725635  0  3.850602  0  0  0.677341  0  4.143528  0  0  0.713296  0  4.133435  0  1.588827  0  0.232278  0.652809  0  4.149913  0
C  C42  1  0.37990942  0.62374246  0.25011586  1  0  -0.128246  0  3.668482  0  0  -0.109006  0  3.898975  0  0  -0.120109  0  3.918025  0  0.031623  0  -0.002868  -0.102714  0  3.887629  0
C  C43  1  0.62008961  0.37625754  0.74988488  1  0  -0.128176  0  3.668484  0  0  -0.108952  0  3.898966  0  0  -0.120054  0  3.918018  0  0.031625  0  -0.002863  -0.102658  0  3.887614  0
C  C44  1  0.38483753  0.54763075  0.06080183  1  0  -0.13643  0  3.775918  0  0  -0.145893  0  4.023506  0  0  -0.153342  0  4.044992  0  -0.024924  0  -0.093433  -0.1413  0  4.009102  0
C  C45  1  0.61516149  0.45236924  0.93919817  1  0  -0.136432  0  3.775946  0  0  -0.145907  0  4.023538  0  0  -0.153355  0  4.045023  0  -0.024956  0  -0.093433  -0.141312  0  4.009129  0
C  C46  1  0.30135805  0.41293007  0.04156267  1  0  0.119702  0  3.769428  0  0  0.096127  0  4.026139  0  0  0.103163  0  4.042394  0  0.482804  0  0.039401  0.091806  0  4.014939  0
C  C47  1  0.69864098  0.58706992  0.95843733  1  0  0.119711  0  3.769408  0  0  0.096141  0  4.026123  0  0  0.103175  0  4.04238  0  0.482806  0  0.039403  0.091819  0  4.014924  0
C  C48  1  0.29496340  0.48451787  0.22228788  1  0  0.202831  0  3.711413  0  0  0.1922  0  3.961694  0  0  0.201135  0  3.977783  0  0.529288  0  0.13913  0.186521  0  3.950756  0
C  C49  1  0.70503713  0.51548109  0.77771205  1  0  0.202764  0  3.71153  0  0  0.192156  0  3.961785  0  0  0.201089  0  3.977876  0  0.529272  0  0.139151  0.186477  0  3.950846  0
C  C50  1  0.23227471  0.44060687  0.30117598  1  0  0.182147  0  3.742339  0  0  0.171178  0  3.996638  0  0  0.179584  0  4.012087  0  0.566467  0  0.129709  0.16577  0  3.985862  0
C  C51  1  0.76772302  0.55939000  0.69882293  1  0  0.182155  0  3.742396  0  0  0.171179  0  3.996699  0  0  0.179587  0  4.012146  0  0.566482  0  0.129703  0.165769  0  3.985924  0
C  C52  1  0.05272959  0.42355392  0.37721701  1  0  0.098525  0  3.774132  0  0  0.074839  0  4.034918  0  0  0.081133  0  4.051217  0  0.487352  0  0.031785  0.07082  0  4.023879  0
C  C53  1  0.94726997  0.57644503  0.62278352  1  0  0.098503  0  3.774165  0  0  0.074809  0  4.034963  0  0  0.081103  0  4.051261  0  0.487354  0  0.03176  0.07079  0  4.023924  0
C  C54  1  0.09042913  0.34204539  0.42601358  1  0  -0.13726  0  3.763391  0  0  -0.148853  0  4.014946  0  0  -0.156191  0  4.037247  0  -0.05092  0  -0.091199  -0.144378  0  4.00045  0
C  C55  1  0.90957184  0.65795460  0.57398746  1  0  -0.137276  0  3.76344  0  0  -0.148887  0  4.014986  0  0  -0.156225  0  4.037286  0  -0.050895  0  -0.091209  -0.144412  0  4.000491  0
C  C56  1  0.20452835  0.30886449  0.40988667  1  0  -0.002287  0  3.666256  0  0  -0.029627  0  3.911224  0  0  -0.024366  0  3.927002  0  -0.023791  0  -0.057892  -0.032831  0  3.90092  0
C  C57  1  0.79547121  0.69113446  0.59011311  1  0  -0.00228  0  3.666258  0  0  -0.029606  0  3.911209  0  0  -0.024346  0  3.926988  0  -0.023791  0  -0.057879  -0.03281  0  3.900904  0
C  C58  1  0.27861156  0.36014208  0.34741622  1  0  -0.111816  0  3.667332  0  0  -0.095205  0  3.900792  0  0  -0.104546  0  3.918842  0  -0.015939  0  -0.000299  -0.089623  0  3.88939  0
C  C59  1  0.72138941  0.63985791  0.65258482  1  0  -0.111836  0  3.66731  0  0  -0.095215  0  3.9008  0  0  -0.104556  0  3.918849  0  -0.015983  0  -0.000304  -0.089634  0  3.889399  0
C  C60  1  0.40316765  0.32621327  0.33172128  1  0  0.699319  0  3.877252  0  0  0.64833  0  4.176627  0  0  0.68352  0  4.1664  0  1.599773  0  0.223667  0.624068  0  4.183408  0
C  C61  1  0.59683235  0.67378673  0.66827813  1  0  0.699426  0  3.877108  0  0  0.648373  0  4.176583  0  0  0.683564  0  4.166354  0  1.599831  0  0.223691  0.624113  0  4.183361  0
C  C62  1  0.22214448  0.93508713  0.45517836  1  0  0.74471  0  3.875126  0  0  0.688291  0  4.186685  0  0  0.726214  0  4.171648  0  1.615348  0  0.239482  0.662317  0  4.196212  0
C  C63  1  0.77785649  0.06491287  0.54482119  1  0  0.744725  0  3.875068  0  0  0.688283  0  4.186669  0  0  0.726205  0  4.171632  0  1.615346  0  0.239492  0.662308  0  4.196195  0
C  C64  1  0.06193213  0.86970344  0.41117533  1  0  -0.113593  0  3.674234  0  0  -0.094319  0  3.908009  0  0  -0.102013  0  3.926319  0  -0.030507  0  -0.000292  -0.089619  0  3.895856  0
C  C65  1  0.93806841  0.13029552  0.58882460  1  0  -0.113626  0  3.674235  0  0  -0.094343  0  3.908013  0  0  -0.102037  0  3.926323  0  -0.030494  0  -0.000299  -0.089641  0  3.895858  0
C  C66  1  0.99891489  0.73463609  0.32401183  1  0  -0.045844  0  3.728252  0  0  -0.070836  0  3.976736  0  0  -0.068841  0  3.994444  0  -0.040166  0  -0.072911  -0.071757  0  3.964904  0
C  C67  1  0.00108554  0.26536494  0.67598868  1  0  -0.04582  0  3.728201  0  0  -0.070813  0  3.976684  0  0  -0.068819  0  3.994394  0  -0.040167  0  -0.072896  -0.071735  0  3.964853  0
C  C68  1  0.85166194  0.66398370  0.28166779  1  0  -0.12417  0  3.766443  0  0  -0.13457  0  4.014328  0  0  -0.139803  0  4.034073  0  -0.105984  0  -0.089277  -0.131123  0  4.0007  0
C  C69  1  0.14833848  0.33601733  0.71833124  1  0  -0.124145  0  3.766447  0  0  -0.134554  0  4.014337  0  0  -0.139787  0  4.034086  0  -0.106035  0  -0.089279  -0.131107  0  4.000712  0
C  C70  1  0.77126300  0.73132467  0.32831284  1  0  0.118146  0  3.742131  0  0  0.090664  0  4.0033  0  0  0.09733  0  4.01841  0  0.560122  0  0.04213  0.086257  0  3.993061  0
C  C71  1  0.22873689  0.26867741  0.67168565  1  0  0.118066  0  3.742131  0  0  0.090615  0  4.003272  0  0  0.09728  0  4.018382  0  0.56016  0  0.04213  0.086208  0  3.993034  0
C  C72  1  0.97195427  0.92958406  0.45291510  1  0  0.147056  0  3.754994  0  0  0.138329  0  4.002606  0  0  0.144075  0  4.022134  0  0.536291  0  0.118494  0.134515  0  3.989301  0
C  C73  1  0.02804573  0.07041593  0.54708504  1  0  0.147021  0  3.755038  0  0  0.13829  0  4.002657  0  0  0.144037  0  4.022184  0  0.561023  0  0.118483  0.134477  0  3.989351  0
C  C74  1  0.81688213  0.11195612  0.84660121  1  0  0.160238  0  3.688112  0  0  0.132451  0  3.942853  0  0  0.140228  0  3.958418  0  0.470801  0  0.06313  0.127159  0  3.932226  0
C  C75  1  0.18311786  0.88804387  0.15339820  1  0  0.160271  0  3.688057  0  0  0.132482  0  3.942805  0  0  0.140258  0  3.958372  0  0.470857  0  0.063139  0.127189  0  3.932179  0
C  C76  1  0.91703094  0.19815939  0.95489708  1  0  -0.123922  0  3.73802  0  0  -0.133351  0  3.98205  0  0  -0.140428  0  4.003544  0  0.019456  0  -0.086531  -0.128773  0  3.967038  0
C  C77  1  0.08296959  0.80183956  0.04510211  1  0  -0.12395  0  3.738118  0  0  -0.133392  0  3.982147  0  0  -0.140469  0  4.00364  0  0.019454  0  -0.086549  -0.128815  0  3.967135  0
C  C78  1  0.87062415  0.24748388  0.04350859  1  0  -0.042054  0  3.677611  0  0  -0.064051  0  3.919116  0  0  -0.062208  0  3.937849  0  -0.096715  0  -0.063419  -0.064549  0  3.906128  0
C  C79  1  0.12937585  0.75251612  0.95649155  1  0  -0.041932  0  3.677794  0  0  -0.063933  0  3.919281  0  0  -0.062085  0  3.938016  0  -0.096745  0  -0.063377  -0.064426  0  3.906287  0
C  C80  1  0.72339375  0.20779888  0.02372007  1  0  0.01576  0  3.807724  0  0  0.033678  0  4.036307  0  0  0.030965  0  4.062097  0  -0.012551  0  -0.004741  0.03519  0  4.019055  0
C  C81  1  0.27660527  0.79220112  0.97627993  1  0  0.015692  0  3.807831  0  0  0.033618  0  4.036398  0  0  0.030908  0  4.062185  0  -0.012545  0  -0.004768  0.03513  0  4.019145  0
C  C82  1  0.63000195  0.11976021  0.91150825  1  0  0.133899  0  3.760064  0  0  0.128881  0  4.002284  0  0  0.132378  0  4.023905  0  0.489367  0  0.121272  0.126169  0  3.988011  0
C  C83  1  0.36999847  0.88024083  0.08849152  1  0  0.133949  0  3.760095  0  0  0.128927  0  4.002335  0  0  0.132423  0  4.023958  0  0.489395  0  0.121304  0.126215  0  3.988065  0
C  C84  1  0.66602188  0.25146509  0.11094400  1  0  -0.09681  0  3.730405  0  0  -0.120543  0  3.986355  0  0  -0.123913  0  4.008794  0  -0.126151  0  -0.081625  -0.117904  0  3.970929  0
C  C85  1  0.33397908  0.74853491  0.88905630  1  0  -0.096844  0  3.730407  0  0  -0.120576  0  3.986345  0  0  -0.123947  0  4.008784  0  -0.12614  0  -0.081611  -0.117937  0  3.970921  0
C  C86  1  0.52275003  0.21131967  0.08791730  1  0  -0.091696  0  3.708331  0  0  -0.117302  0  3.96767  0  0  -0.119562  0  3.989122  0  0.022355  0  -0.081004  -0.115772  0  3.953091  0
C  C87  1  0.47724996  0.78868032  0.91208285  1  0  -0.091648  0  3.708359  0  0  -0.117259  0  3.967698  0  0  -0.119518  0  3.989151  0  0.022352  0  -0.081005  -0.115729  0  3.953119  0
C  C88  1  0.42573566  0.12375288  0.97571106  1  0  0.01996  0  3.781978  0  0  0.036954  0  4.012943  0  0  0.033858  0  4.037624  0  -0.03264  0  -0.002374  0.039044  0  3.996188  0
C  C89  1  0.57426531  0.87624712  0.02428923  1  0  0.019928  0  3.781988  0  0  0.036938  0  4.012951  0  0  0.033842  0  4.037632  0  -0.032641  0  -0.002365  0.039028  0  3.996199  0
C  C90  1  0.47870827  0.07693253  0.88708416  1  0  0.127825  0  3.776504  0  0  0.124349  0  4.016465  0  0  0.12889  0  4.037706  0  0.502132  0  0.12063  0.121528  0  4.001884  0
C  C91  1  0.52129215  0.92306850  0.11291560  1  0  0.127821  0  3.776505  0  0  0.124302  0  4.016533  0  0  0.128843  0  4.037774  0  0.502141  0  0.120593  0.12148  0  4.001954  0
C  C92  1  0.27691940  0.08056583  0.94801008  1  0  -0.044269  0  3.689425  0  0  -0.069373  0  3.940086  0  0  -0.066623  0  3.957869  0  -0.067513  0  -0.061901  -0.070804  0  3.927753  0
C  C93  1  0.72308200  0.91943521  0.05198983  1  0  -0.044331  0  3.689439  0  0  -0.069437  0  3.940098  0  0  -0.066689  0  3.957881  0  -0.06741  0  -0.061937  -0.070876  0  3.927762  0
C  C94  1  0.19020348  0.99744585  0.83744587  1  0  -0.126112  0  3.729723  0  0  -0.137518  0  3.979758  0  0  -0.145307  0  4.001786  0  -0.018598  0  -0.082335  -0.132726  0  3.964676  0
C  C95  1  0.80979738  0.00255622  0.16255426  1  0  -0.126074  0  3.729685  0  0  -0.13748  0  3.979726  0  0  -0.145269  0  4.001753  0  -0.018614  0  -0.082329  -0.132688  0  3.964646  0
C  C96  1  0.25232538  0.95797439  0.75508417  1  0  0.172606  0  3.680276  0  0  0.140431  0  3.944235  0  0  0.14927  0  3.959952  0  0.491921  0  0.06639  0.13477  0  3.93354  0
C  C97  1  0.74767461  0.04202560  0.24491524  1  0  0.172638  0  3.680193  0  0  0.140455  0  3.944167  0  0  0.149293  0  3.959884  0  0.491934  0  0.066412  0.134791  0  3.933474  0
C  C98  1  0.42581966  0.65322757  0.16744919  1  0  -0.013038  0  3.725034  0  0  -0.042901  0  3.972663  0  0  -0.037759  0  3.990035  0  -0.096303  0  -0.067084  -0.045797  0  3.961085  0
C  C99  1  0.57417839  0.34677243  0.83255066  1  0  -0.013079  0  3.725056  0  0  -0.042918  0  3.972673  0  0  -0.03778  0  3.99004  0  -0.096318  0  -0.067065  -0.045803  0  3.961103  0
N  N100  1  0.25781982  0.38093353  0.11995776  1  0  -0.350293  0  3.064142  0  0  -0.319423  0  3.335076  0  0  -0.331914  0  3.348795  0  -1.20208  0  -0.316017  -0.311226  0  3.325573  0
N  N101  1  0.74218018  0.61906646  0.88004239  1  0  -0.350258  0  3.064132  0  0  -0.319403  0  3.335067  0  0  -0.331893  0  3.348788  0  -1.202058  0  -0.316016  -0.311206  0  3.325566  0
N  N102  1  0.12097730  0.47165238  0.31516968  1  0  -0.358417  0  3.074986  0  0  -0.326783  0  3.345806  0  0  -0.338454  0  3.358291  0  -1.205308  0  -0.320454  -0.318868  0  3.337173  0
N  N103  1  0.87902269  0.52834762  0.68483046  1  0  -0.358403  0  3.075058  0  0  -0.326772  0  3.345886  0  0  -0.338443  0  3.35837  0  -1.205315  0  -0.320456  -0.318856  0  3.337251  0
N  N104  1  0.82954434  0.86042437  0.41048231  1  0  -0.305584  0  3.09604  0  0  -0.268813  0  3.361647  0  0  -0.280752  0  3.377691  0  -1.216532  0  -0.299143  -0.260511  0  3.350604  0
N  N105  1  0.17045565  0.13957563  0.58951710  1  0  -0.305557  0  3.096017  0  0  -0.268793  0  3.361612  0  0  -0.28073  0  3.377654  0  -1.216527  0  -0.299156  -0.260492  0  3.350569  0
N  N106  1  0.67753814  0.07505547  0.82495101  1  0  -0.402468  0  3.232954  0  0  -0.359183  0  3.500455  0  0  -0.374027  0  3.517874  0  -1.214091  0  -0.367068  -0.348643  0  3.488955  0
N  N107  1  0.32246186  0.92494453  0.17504914  1  0  -0.402478  0  3.232954  0  0  -0.359191  0  3.500455  0  0  -0.374033  0  3.517877  0  -1.214111  0  -0.367072  -0.348652  0  3.488957  0
N  N108  1  0.39211061  0.99606358  0.77856355  1  0  -0.417961  0  3.225092  0  0  -0.373854  0  3.495107  0  0  -0.389963  0  3.512111  0  -1.226324  0  -0.368803  -0.362871  0  3.483451  0
N  N109  1  0.60788938  0.00393642  0.22143586  1  0  -0.417942  0  3.225005  0  0  -0.373823  0  3.495045  0  0  -0.389929  0  3.512046  0  -1.226318  0  -0.368787  -0.362841  0  3.483391  0
O  O110  1  0.46067758  0.86365975  0.36838195  1  0  -0.766618  0  2.139623  0  0  -0.721144  0  2.405385  0  0  -0.74956  0  2.394445  0  -1.203453  0  -0.397909  -0.70033  0  2.412288  0
O  O111  1  0.53932241  0.13634025  0.63161894  1  0  -0.766582  0  2.139654  0  0  -0.721118  0  2.405422  0  0  -0.749535  0  2.394483  0  -1.203441  0  -0.397899  -0.700303  0  2.412324  0
O  O112  1  0.43393017  0.71694461  0.44907822  1  0  -0.680874  0  2.011655  0  0  -0.634954  0  2.250479  0  0  -0.661731  0  2.2422  0  -1.167748  0  -0.367378  -0.615653  0  2.25587  0
O  O113  1  0.56606939  0.28305434  0.55092083  1  0  -0.680897  0  2.01161  0  0  -0.634984  0  2.250425  0  0  -0.661759  0  2.242146  0  -1.167747  0  -0.367406  -0.615682  0  2.255815  0
O  O114  1  0.51404733  0.41720294  0.33667481  1  0  -0.60338  0  1.893701  0  0  -0.553701  0  2.1022  0  0  -0.578456  0  2.094201  0  -1.174203  0  -0.308777  -0.53622  0  2.107366  0
O  O115  1  0.48595364  0.58279705  0.66332549  1  0  -0.603437  0  1.893669  0  0  -0.553729  0  2.102194  0  0  -0.578483  0  2.094191  0  -1.174224  0  -0.308788  -0.536249  0  2.107359  0
O  O116  1  0.38568124  0.20124686  0.31422544  1  0  -0.755798  0  2.085285  0  0  -0.70654  0  2.342705  0  0  -0.735224  0  2.332545  0  -1.194102  0  -0.42775  -0.685566  0  2.349509  0
O  O117  1  0.61431973  0.79875313  0.68577486  1  0  -0.755823  0  2.085246  0  0  -0.70655  0  2.342715  0  0  -0.735236  0  2.332553  0  -1.194129  0  -0.427759  -0.685575  0  2.349518  0
O  O118  1  0.27811606  0.89466672  0.52280981  1  0  -0.718726  0  2.073556  0  0  -0.672975  0  2.33502  0  0  -0.701033  0  2.323756  0  -1.192383  0  -0.390671  -0.652677  0  2.342468  0
O  O119  1  0.72188297  0.10533328  0.47719019  1  0  -0.718721  0  2.073609  0  0  -0.672952  0  2.33506  0  0  -0.701005  0  2.323795  0  -1.192373  0  -0.390653  -0.652654  0  2.342509  0
O  O120  1  0.28514038  0.00868116  0.41184001  1  0  -0.710368  0  2.077755  0  0  -0.671552  0  2.344244  0  0  -0.698553  0  2.331584  0  -1.191986  0  -0.381804  -0.652098  0  2.352522  0
O  O121  1  0.71485961  0.99131883  0.58816088  1  0  -0.710364  0  2.077667  0  0  -0.671544  0  2.344175  0  0  -0.698548  0  2.331516  0  -1.191988  0  -0.381823  -0.65209  0  2.352454  0
O  O122  1  0.31144403  0.70221976  0.61517774  1  0  -0.868748  0  1.867629  0  0  -0.827839  0  2.056475  0  0  -0.847355  0  2.030366  0  -1.300459  0  -0.612817  -0.813328  0  2.074986  0
O  O123  1  0.68855596  0.29778023  0.38482240  1  0  -0.868743  0  1.867632  0  0  -0.827834  0  2.056478  0  0  -0.847348  0  2.030367  0  -1.300459  0  -0.612816  -0.813324  0  2.074986  0
