# generated using pymatgen
data_Al2H18C30(SO7)3
_symmetry_space_group_name_H-M   'P 1'
_cell_length_a   4.18014327
_cell_length_b   16.92391564
_cell_length_c   16.92401769
_cell_angle_alpha   119.99656475
_cell_angle_beta   90.00192438
_cell_angle_gamma   89.99866988
_symmetry_Int_Tables_number   1
_chemical_formula_structural   Al2H18C30(SO7)3
_chemical_formula_sum   'Al2 H18 C30 S3 O21'
_cell_volume   1036.91021694
_cell_formula_units_Z   1
loop_
 _symmetry_equiv_pos_site_id
 _symmetry_equiv_pos_as_xyz
  1  'x, y, z'
loop_
 _atom_site_type_symbol
 _atom_site_label
 _atom_site_symmetry_multiplicity
 _atom_site_fract_x
 _atom_site_fract_y
 _atom_site_fract_z
 _atom_site_occupancy
 _atom_site_pbe_bader_charge
 _atom_site_pbe_bader_spin_density
 _atom_site_pbe_cm5_charge
 _atom_site_pbe_ddec_charge
 _atom_site_pbe_ddec_spin_density
 _atom_site_pbe_ddec_sum_bond_order
 _atom_site_pbe_magmom
Al  Al0  1  0.13767611  0.50000529  0.49999511  1  2.514936  0  0.452903  1.625138  0  2.5034  0
Al  Al1  1  0.86823758  0.16666112  0.83333305  1  2.51323  0  0.448867  1.623059  0  2.536344  0
H  H2  1  0.60337461  0.42313004  0.85325404  1  0.125769  0  0.120127  0.134743  0  0.984127  0
H  H3  1  0.01712996  0.16452195  0.55108511  1  0.040571  0  0.101616  0.114916  0  0.99372  0
H  H4  1  0.41661403  0.12230524  0.53254827  1  0.076795  0  0.105678  0.118196  0  0.972588  0
H  H5  1  0.54187506  0.20929930  0.45195793  1  0.100711  0  0.099444  0.12077  0  0.997893  0
H  H6  1  0.14571381  0.25406179  0.47317834  1  0.067446  0  0.099516  0.121066  0  1.000933  0
H  H7  1  0.60325219  0.93014494  0.57687770  1  0.117975  0  0.120107  0.134696  0  0.983937  0
H  H8  1  0.01711490  0.88657193  0.83549659  1  0.044548  0  0.101622  0.114926  0  0.993919  0
H  H9  1  0.41659032  0.91024606  0.87769433  1  0.064493  0  0.105655  0.118093  0  0.972837  0
H  H10  1  0.54190370  0.74266986  0.79070272  1  0.093232  0  0.099472  0.1208  0  0.997902  0
H  H11  1  0.14569829  0.71913201  0.74595288  1  0.071442  0  0.099555  0.121118  0  1.000887  0
H  H12  1  0.60333453  0.14673199  0.06989498  1  0.125717  0  0.120052  0.134626  0  0.9842  0
H  H13  1  0.01715951  0.44890981  0.11340973  1  0.041404  0  0.101676  0.115057  0  0.993791  0
H  H14  1  0.41663503  0.46744107  0.08974030  1  0.068157  0  0.105731  0.118212  0  0.972677  0
H  H15  1  0.54188506  0.54803327  0.25732431  1  0.075864  0  0.099441  0.120746  0  0.99803  0
H  H16  1  0.14568719  0.52681616  0.28085784  1  0.063685  0  0.099575  0.12119  0  1.000855  0
H  H17  1  0.20510827  0.59022813  0.77976840  1  0.680625  0  0.314522  0.384571  0  0.970465  0
H  H18  1  0.20504348  0.68954939  0.40978325  1  0.67939  0  0.314569  0.385182  0  0.969727  0
H  H19  1  0.20506823  0.22022030  0.31046864  1  0.678499  0  0.314589  0.383513  0  0.972334  0
C  C20  1  0.63075760  0.40974545  0.36430048  1  1.618349  0  0.283617  0.683403  0  4.056917  0
C  C21  1  0.63076870  0.45456179  0.59024231  1  1.620033  0  0.283677  0.683834  0  4.056594  0
C  C22  1  0.63072647  0.63570637  0.54546008  1  1.629888  0  0.283751  0.683439  0  4.056538  0
C  C23  1  0.37651510  0.25165114  0.78234950  1  1.576716  0  0.282118  0.679686  0  4.05261  0
C  C24  1  0.37654535  0.03067582  0.74834500  1  1.594232  0  0.282072  0.679459  0  4.052764  0
C  C25  1  0.37652822  0.21766637  0.96930780  1  1.577607  0  0.282087  0.679588  0  4.052498  0
C  C26  1  0.42645921  0.30309764  0.73348783  1  -0.01961  0  -0.003361  -0.072826  0  3.961945  0
C  C27  1  0.56986567  0.40482009  0.64170733  1  0.070564  0  0.006564  -0.063951  0  3.907164  0
C  C28  1  0.37394275  0.26747275  0.64064949  1  0.049571  0  0.006873  0.073919  0  3.870687  0
C  C29  1  0.61129405  0.44179680  0.73685456  1  -0.251441  0  -0.018489  -0.143806  0  3.990124  0
C  C30  1  0.45087938  0.31611134  0.59627584  1  -0.007337  0  -0.002172  0.054837  0  3.868427  0
C  C31  1  0.55111290  0.39195676  0.78071796  1  0.016667  0  -0.069682  -0.095281  0  3.956928  0
C  C32  1  0.26949768  0.18341753  0.55329118  1  -0.039686  0  -0.144539  -0.198749  0  3.851302  0
C  C33  1  0.35172254  0.23862286  0.50330516  1  -0.025111  0  -0.151887  -0.198308  0  3.821514  0
C  C34  1  0.42648057  0.93037672  0.69689511  1  0.106093  0  -0.003472  -0.073053  0  3.9629  0
C  C35  1  0.56981616  0.73690414  0.59518678  1  -0.006912  0  0.006451  -0.063744  0  3.907633  0
C  C36  1  0.37391165  0.87317935  0.73252726  1  -0.017245  0  0.006918  0.073979  0  3.871127  0
C  C37  1  0.61120824  0.79505700  0.55819060  1  -0.243131  0  -0.018411  -0.143831  0  3.990213  0
C  C38  1  0.45085181  0.78017058  0.68389247  1  -0.005897  0  -0.002088  0.054859  0  3.868329  0
C  C39  1  0.55108331  0.88876239  0.60803500  1  0.020983  0  -0.069626  -0.095166  0  3.956637  0
C  C40  1  0.26947238  0.86987745  0.81658549  1  -0.006539  0  -0.144502  -0.19861  0  3.851904  0
C  C41  1  0.35171205  0.76469033  0.76138412  1  -0.03991  0  -0.15197  -0.198424  0  3.821789  0
C  C42  1  0.42645600  0.26650719  0.06961104  1  0.059768  0  -0.003305  -0.07294  0  3.962224  0
C  C43  1  0.56984513  0.35828855  0.26310001  1  0.007187  0  0.006478  -0.063828  0  3.907769  0
C  C44  1  0.37394392  0.35934451  0.12681282  1  -0.017621  0  0.006832  0.073934  0  3.870763  0
C  C45  1  0.61121181  0.26314003  0.20494873  1  -0.177837  0  -0.018427  -0.143833  0  3.989923  0
C  C46  1  0.45088457  0.40372220  0.21982248  1  -0.002891  0  -0.002081  0.054973  0  3.868367  0
C  C47  1  0.55107910  0.21927094  0.11124222  1  -0.002015  0  -0.069627  -0.095118  0  3.956619  0
C  C48  1  0.26950885  0.44670200  0.13010913  1  -0.02231  0  -0.144621  -0.198846  0  3.851523  0
C  C49  1  0.35171290  0.49669192  0.23529839  1  -0.001486  0  -0.15193  -0.198429  0  3.821795  0
S  S50  1  0.74727010  0.55480875  0.81054589  1  3.134257  0  0.555906  1.188816  0  5.969322  0
S  S51  1  0.74718168  0.75574070  0.44517948  1  3.121989  0  0.556406  1.189681  0  5.969042  0
S  S52  1  0.74718374  0.18946131  0.24429114  1  3.123457  0  0.556224  1.18938  0  5.968748  0
O  O53  1  0.88240630  0.60821800  0.56632666  1  -1.242218  0  -0.220314  -0.579176  0  2.359683  0
O  O54  1  0.88245228  0.45809694  0.39178636  1  -1.244701  0  -0.220253  -0.579276  0  2.359988  0
O  O55  1  0.88247117  0.43370334  0.54190239  1  -1.244154  0  -0.220207  -0.579428  0  2.360132  0
O  O56  1  0.41476774  0.58562743  0.48976596  1  -1.252835  0  -0.23832  -0.598424  0  2.36  0
O  O57  1  0.41482628  0.51025370  0.59584185  1  -1.251243  0  -0.238181  -0.598531  0  2.360485  0
O  O58  1  0.41482927  0.40412757  0.41438116  1  -1.250055  0  -0.238166  -0.598408  0  2.360023  0
O  O59  1  0.59215408  0.16002019  0.92096405  1  -1.264073  0  -0.24437  -0.614031  0  2.333649  0
O  O60  1  0.59212619  0.26096014  0.84000618  1  -1.264258  0  -0.244477  -0.614053  0  2.333633  0
O  O61  1  0.59219054  0.07902682  0.73906306  1  -1.267934  0  -0.24436  -0.613838  0  2.333779  0
O  O62  1  0.12562355  0.23729510  0.93982979  1  -1.247919  0  -0.228298  -0.590538  0  2.334309  0
O  O63  1  0.12558611  0.06013729  0.79742113  1  -1.251562  0  -0.228334  -0.590481  0  2.334147  0
O  O64  1  0.12561533  0.20254608  0.76272186  1  -1.24661  0  -0.228273  -0.590747  0  2.334357  0
O  O65  1  0.48084896  0.61887146  0.83135111  1  -1.299085  0  -0.311288  -0.544276  0  2.289532  0
O  O66  1  0.90447615  0.55879031  0.88779967  1  -1.285415  0  -0.303432  -0.511933  0  2.114834  0
O  O67  1  0.97540177  0.57128957  0.74836158  1  -1.300605  0  -0.340631  -0.546411  0  2.338327  0
O  O68  1  0.48077840  0.71246842  0.38110857  1  -1.304372  0  -0.311556  -0.544933  0  2.288807  0
O  O69  1  0.90431018  0.82901912  0.44121132  1  -1.283493  0  -0.303448  -0.512053  0  2.115172  0
O  O70  1  0.97530922  0.67706392  0.42869185  1  -1.298334  0  -0.340859  -0.547118  0  2.337579  0
O  O71  1  0.48079154  0.16864940  0.28754786  1  -1.299746  0  -0.311519  -0.543855  0  2.290256  0
O  O72  1  0.90438806  0.11221450  0.17101224  1  -1.287123  0  -0.303474  -0.512162  0  2.114697  0
O  O73  1  0.97534605  0.25162946  0.32295326  1  -1.299136  0  -0.340741  -0.545992  0  2.339194  0
