# generated using pymatgen
data_ZnH21C25IN3O7
_symmetry_space_group_name_H-M   'P 1'
_cell_length_a   7.41830992
_cell_length_b   12.89642442
_cell_length_c   13.52800000
_cell_angle_alpha   82.90148686
_cell_angle_beta   88.97790995
_cell_angle_gamma   82.73241821
_symmetry_Int_Tables_number   1
_chemical_formula_structural   ZnH21C25IN3O7
_chemical_formula_sum   'Zn2 H42 C50 I2 N6 O14'
_cell_volume   1273.97830576
_cell_formula_units_Z   2
loop_
 _symmetry_equiv_pos_site_id
 _symmetry_equiv_pos_as_xyz
  1  'x, y, z'
loop_
 _atom_site_type_symbol
 _atom_site_label
 _atom_site_symmetry_multiplicity
 _atom_site_fract_x
 _atom_site_fract_y
 _atom_site_fract_z
 _atom_site_occupancy
 _atom_site_hle17_bader_spin_density
 _atom_site_hle17_ddec_charge
 _atom_site_hle17_ddec_spin_density
 _atom_site_hle17_ddec_sum_bond_order
 _atom_site_hle17_magmom
 _atom_site_hse06_10hf_bader_spin_density
 _atom_site_hse06_10hf_ddec_charge
 _atom_site_hse06_10hf_ddec_spin_density
 _atom_site_hse06_10hf_ddec_sum_bond_order
 _atom_site_hse06_10hf_magmom
 _atom_site_hse06_bader_spin_density
 _atom_site_hse06_ddec_charge
 _atom_site_hse06_ddec_spin_density
 _atom_site_hse06_ddec_sum_bond_order
 _atom_site_hse06_magmom
 _atom_site_pbe_bader_charge
 _atom_site_pbe_bader_spin_density
 _atom_site_pbe_cm5_charge
 _atom_site_pbe_ddec_charge
 _atom_site_pbe_ddec_spin_density
 _atom_site_pbe_ddec_sum_bond_order
 _atom_site_pbe_magmom
Zn  Zn0  1  0.98748461  0.77559611  0.84290015  1  0  0.993291  0  1.833773  0  0  0.810676  0  2.279561  0  0  0.859184  0  2.228723  0  1.286524  0  0.676041  0.776868  0  2.314239  0
Zn  Zn1  1  0.01251382  0.22440624  0.15710240  1  0  0.9933  0  1.833787  0  0  0.810695  0  2.279573  0  0  0.859201  0  2.228737  0  1.286517  0  0.676074  0.776887  0  2.31425  0
H  H2  1  0.68071805  0.75479945  0.76835748  1  0  0.412839  0  0.902184  0  0  0.378264  0  0.971927  0  0  0.390606  0  0.954319  0  0.653753  0  0.283243  0.369639  0  0.984198  0
H  H3  1  0.31928376  0.24519975  0.23164170  1  0  0.412759  0  0.902294  0  0  0.378207  0  0.972009  0  0  0.390553  0  0.954394  0  0.65374  0  0.28321  0.369581  0  0.98428  0
H  H4  1  0.69267512  0.67560675  0.87021482  1  0  0.420198  0  0.821298  0  0  0.403938  0  0.872232  0  0  0.411876  0  0.863787  0  0.616931  0  0.320549  0.398281  0  0.878315  0
H  H5  1  0.30731826  0.32439404  0.12978501  1  0  0.420238  0  0.821257  0  0  0.403964  0  0.872206  0  0  0.411903  0  0.86376  0  0.617008  0  0.320552  0.398307  0  0.878287  0
H  H6  1  0.77511374  0.69745092  0.35264743  1  0  0.107185  0  0.998338  0  0  0.116667  0  1.06836  0  0  0.1202  0  1.066285  0  0.099833  0  0.096545  0.114208  0  1.069884  0
H  H7  1  0.22489970  0.30254435  0.64735063  1  0  0.107224  0  0.998317  0  0  0.116659  0  1.06838  0  0  0.120189  0  1.06631  0  0.099804  0  0.096523  0.1142  0  1.069902  0
H  H8  1  0.20897342  0.74350444  0.14044835  1  0  0.131815  0  0.949991  0  0  0.142387  0  1.01077  0  0  0.145705  0  1.009556  0  0.114289  0  0.110841  0.140042  0  1.011705  0
H  H9  1  0.79103293  0.25649871  0.85954737  1  0  0.131738  0  0.950173  0  0  0.142327  0  1.010922  0  0  0.145643  0  1.009703  0  0.114074  0  0.110841  0.139982  0  1.011856  0
H  H10  1  0.12060914  0.93883001  0.37830654  1  0  0.103822  0  0.995939  0  0  0.110863  0  1.068696  0  0  0.114631  0  1.06659  0  0.061278  0  0.089396  0.108176  0  1.070302  0
H  H11  1  0.87939925  0.06116368  0.62169619  1  0  0.103816  0  0.995913  0  0  0.110842  0  1.068685  0  0  0.114621  0  1.066569  0  0.06126  0  0.089393  0.108155  0  1.070292  0
H  H12  1  0.97188248  0.51820505  0.10606580  1  0  0.115723  0  0.935763  0  0  0.126626  0  0.995867  0  0  0.129262  0  0.993594  0  0.150359  0  0.117049  0.124731  0  0.997577  0
H  H13  1  0.02810365  0.48179810  0.89393012  1  0  0.115671  0  0.935806  0  0  0.12656  0  0.995896  0  0  0.129201  0  0.993635  0  0.15041  0  0.117033  0.124664  0  0.997613  0
H  H14  1  0.16900429  0.57649319  0.13150559  1  0  0.093843  0  0.937072  0  0  0.099758  0  1.00771  0  0  0.102462  0  1.004751  0  0.116931  0  0.108042  0.097864  0  1.009879  0
H  H15  1  0.83098826  0.42349893  0.86849157  1  0  0.093868  0  0.937214  0  0  0.099765  0  1.007828  0  0  0.102478  0  1.004874  0  0.116846  0  0.108065  0.097873  0  1.009995  0
H  H16  1  0.55548412  0.95264300  0.24774258  1  0  0.098232  0  0.923773  0  0  0.110273  0  0.984676  0  0  0.111436  0  0.984771  0  0.089788  0  0.113286  0.109462  0  0.984711  0
H  H17  1  0.44452526  0.04735858  0.75225700  1  0  0.098221  0  0.923918  0  0  0.110256  0  0.984794  0  0  0.11138  0  0.984925  0  0.089947  0  0.113298  0.10944  0  0.98482  0
H  H18  1  0.41621170  0.93110047  0.35409987  1  0  0.066491  0  0.962676  0  0  0.072588  0  1.04224  0  0  0.074557  0  1.039626  0  0.072681  0  0.095975  0.071168  0  1.044207  0
H  H19  1  0.58379381  0.06890031  0.64590353  1  0  0.066404  0  0.962808  0  0  0.072458  0  1.042375  0  0  0.074411  0  1.039765  0  0.072748  0  0.095929  0.071037  0  1.044333  0
H  H20  1  0.36256261  0.72799181  0.92390328  1  0  0.083631  0  0.934979  0  0  0.09444  0  0.992897  0  0  0.097436  0  0.990105  0  0.090875  0  0.118706  0.092161  0  0.995093  0
H  H21  1  0.63745116  0.27200819  0.07609274  1  0  0.083705  0  0.934868  0  0  0.09449  0  0.992811  0  0  0.097492  0  0.990014  0  0.090838  0  0.118667  0.092212  0  0.995009  0
H  H22  1  0.59556963  0.81689566  0.99852127  1  0  0.12454  0  0.986439  0  0  0.133182  0  1.048138  0  0  0.137251  0  1.045633  0  0.16995  0  0.11008  0.130184  0  1.050208  0
H  H23  1  0.40444211  0.18310749  0.00147071  1  0  0.124638  0  0.986295  0  0  0.133202  0  1.048088  0  0  0.137307  0  1.04554  0  0.170225  0  0.110096  0.130207  0  1.050152  0
H  H24  1  0.22594398  0.10745191  0.94308228  1  0  0.130738  0  0.981058  0  0  0.138068  0  1.043311  0  0  0.14196  0  1.041504  0  0.175121  0  0.11145  0.135278  0  1.044708  0
H  H25  1  0.77406676  0.89254966  0.05692246  1  0  0.130851  0  0.980999  0  0  0.13817  0  1.043236  0  0  0.142069  0  1.041425  0  0.175074  0  0.111458  0.135381  0  1.044635  0
H  H26  1  0.01219897  0.00447752  0.87211857  1  0  0.089984  0  0.97099  0  0  0.09501  0  1.038568  0  0  0.097688  0  1.03686  0  0.145133  0  0.114959  0.092998  0  1.039859  0
H  H27  1  0.98781059  0.99552326  0.12789071  1  0  0.089899  0  0.970947  0  0  0.094936  0  1.038548  0  0  0.097614  0  1.036837  0  0.145123  0  0.114939  0.092973  0  1.039784  0
H  H28  1  0.03137398  0.57915766  0.75754979  1  0  0.085997  0  0.9614  0  0  0.092851  0  1.028312  0  0  0.095179  0  1.025882  0  0.130164  0  0.120509  0.09112  0  1.03008  0
H  H29  1  0.96861047  0.42084076  0.24244819  1  0  0.086092  0  0.961408  0  0  0.092909  0  1.028345  0  0  0.095236  0  1.025915  0  0.130268  0  0.120557  0.091174  0  1.030123  0
H  H30  1  0.15315119  0.50227263  0.60938347  1  0  0.104647  0  0.963431  0  0  0.114036  0  1.027212  0  0  0.117086  0  1.0264  0  0.099618  0  0.106824  0.111846  0  1.027982  0
H  H31  1  0.84683662  0.49772894  0.39061336  1  0  0.104734  0  0.963388  0  0  0.114085  0  1.027197  0  0  0.117141  0  1.026366  0  0.099289  0  0.10685  0.111896  0  1.027967  0
H  H32  1  0.36573621  0.79698899  0.51558721  1  0  0.094413  0  0.978914  0  0  0.102637  0  1.047258  0  0  0.106059  0  1.045479  0  0.083455  0  0.098328  0.100115  0  1.048806  0
H  H33  1  0.63424350  0.20301888  0.48441339  1  0  0.094438  0  0.978882  0  0  0.10263  0  1.047276  0  0  0.10605  0  1.045495  0  0.083385  0  0.098354  0.100109  0  1.048825  0
H  H34  1  0.24007901  0.85955224  0.67034488  1  0  0.084355  0  0.930222  0  0  0.090953  0  0.996336  0  0  0.094132  0  0.993009  0  0.098919  0  0.115615  0.088586  0  0.998797  0
H  H35  1  0.75990509  0.14044775  0.32966104  1  0  0.084347  0  0.930211  0  0  0.090928  0  0.996368  0  0  0.094107  0  0.993042  0  0.099127  0  0.11561  0.088574  0  0.998817  0
H  H36  1  0.17738094  0.46787091  0.46855107  1  0  0.092183  0  0.97103  0  0  0.103008  0  1.034453  0  0  0.106237  0  1.033366  0  0.055742  0  0.100015  0.100699  0  1.035386  0
H  H37  1  0.82259101  0.53214169  0.53144536  1  0  0.092024  0  0.971061  0  0  0.102911  0  1.034446  0  0  0.106141  0  1.033356  0  0.05586  0  0.099939  0.100601  0  1.035377  0
H  H38  1  0.27657730  0.41031209  0.30676620  1  0  0.074199  0  0.979659  0  0  0.081259  0  1.045808  0  0  0.084249  0  1.043183  0  0.147251  0  0.10375  0.079055  0  1.047722  0
H  H39  1  0.72341187  0.58968949  0.69323727  1  0  0.074125  0  0.979659  0  0  0.081205  0  1.045802  0  0  0.084191  0  1.043175  0  0.147366  0  0.10374  0.079003  0  1.047713  0
H  H40  1  0.57632736  0.65877016  0.24037657  1  0  0.082423  0  0.928019  0  0  0.089084  0  0.990173  0  0  0.092638  0  0.986669  0  0.1138  0  0.112805  0.086438  0  0.992842  0
H  H41  1  0.42366822  0.34122669  0.75962666  1  0  0.082359  0  0.927993  0  0  0.089021  0  0.990158  0  0  0.092575  0  0.986656  0  0.113724  0  0.112771  0.086376  0  0.992826  0
H  H42  1  0.49597567  0.72671195  0.40135268  1  0  0.088318  0  0.98654  0  0  0.09677  0  1.055822  0  0  0.099977  0  1.054104  0  0.070767  0  0.096046  0.094447  0  1.057215  0
H  H43  1  0.50402107  0.27329198  0.59864674  1  0  0.088255  0  0.986674  0  0  0.096725  0  1.05593  0  0  0.099933  0  1.054211  0  0.071072  0  0.096026  0.094402  0  1.057325  0
C  C44  1  0.93707127  0.82187804  0.37210715  1  0  0.069615  0  3.750632  0  0  0.098203  0  4.006765  0  0  0.103199  0  4.031336  0  -0.376092  0  -0.055635  0.094926  0  3.990066  0
C  C45  1  0.06293931  0.17811802  0.62789381  1  0  0.069604  0  3.750697  0  0  0.098234  0  4.006768  0  0  0.103229  0  4.031344  0  -0.376327  0  -0.055694  0.094957  0  3.990069  0
C  C46  1  0.88579779  0.74062654  0.32489131  1  0  -0.264842  0  3.774418  0  0  -0.299333  0  4.031977  0  0  -0.306296  0  4.050639  0  0.043516  0  -0.135355  -0.294723  0  4.019472  0
C  C47  1  0.11421262  0.25937031  0.67510733  1  0  -0.264845  0  3.77429  0  0  -0.299306  0  4.031854  0  0  -0.306269  0  4.050515  0  0.043441  0  -0.13528  -0.294693  0  4.019347  0
C  C48  1  0.98228726  0.71234371  0.23973207  1  0  0.319197  0  3.809425  0  0  0.312098  0  4.071192  0  0  0.326297  0  4.084857  0  0.457775  0  0.086916  0.302387  0  4.061885  0
C  C49  1  0.01771943  0.28765786  0.76026606  1  0  0.319102  0  3.809415  0  0  0.312042  0  4.071165  0  0  0.326245  0  4.084824  0  0.45763  0  0.086889  0.30233  0  4.061858  0
C  C50  1  0.12876824  0.76427589  0.20478677  1  0  -0.309128  0  3.706338  0  0  -0.341925  0  3.963134  0  0  -0.350217  0  3.979881  0  0.018391  0  -0.12121  -0.336513  0  3.95213  0
C  C51  1  0.87124132  0.23572489  0.79521142  1  0  -0.308999  0  3.706453  0  0  -0.341821  0  3.963271  0  0  -0.350108  0  3.980013  0  0.018815  0  -0.121197  -0.336409  0  3.952267  0
C  C52  1  0.18224308  0.84288420  0.25690290  1  0  0.311127  0  3.811541  0  0  0.306479  0  4.070078  0  0  0.320637  0  4.083538  0  0.449103  0  0.084823  0.296828  0  4.060889  0
C  C53  1  0.81776462  0.15711895  0.74309577  1  0  0.310974  0  3.811722  0  0  0.306304  0  4.070304  0  0  0.320466  0  4.083767  0  0.449094  0  0.084722  0.296653  0  4.061113  0
C  C54  1  0.08481152  0.87503258  0.34000302  1  0  -0.278082  0  3.783202  0  0  -0.307247  0  4.034864  0  0  -0.315806  0  4.056013  0  0.077009  0  -0.138374  -0.301521  0  4.020687  0
C  C55  1  0.91519754  0.12496426  0.65999638  1  0  -0.277951  0  3.783114  0  0  -0.307102  0  4.034742  0  0  -0.315671  0  4.055888  0  0.077077  0  -0.138277  -0.301376  0  4.020564  0
C  C56  1  0.02224761  0.59300529  0.11571425  1  0  -0.075937  0  3.618525  0  0  -0.129256  0  3.87583  0  0  -0.126529  0  3.876451  0  0.323557  0  -0.068914  -0.131325  0  3.875587  0
C  C57  1  0.97774307  0.40699549  0.88428264  1  0  -0.075947  0  3.618599  0  0  -0.129186  0  3.87581  0  0  -0.126509  0  3.876494  0  0.323532  0  -0.068932  -0.131268  0  3.875582  0
C  C58  1  0.99035961  0.66435820  0.01786302  1  0  0.63826  0  3.913952  0  0  0.591475  0  4.214253  0  0  0.623281  0  4.209372  0  1.561111  0  0.189926  0.569937  0  4.216724  0
C  C59  1  0.00964708  0.33564337  0.98213584  1  0  0.638292  0  3.913838  0  0  0.591519  0  4.214063  0  0  0.623338  0  4.209184  0  1.561675  0  0.189934  0.569983  0  4.216533  0
C  C60  1  0.41373227  0.95484592  0.27290793  1  0  -0.070103  0  3.655782  0  0  -0.12959  0  3.921619  0  0  -0.12589  0  3.922066  0  0.396837  0  -0.072489  -0.132277  0  3.92138  0
C  C61  1  0.58627156  0.04515644  0.72709457  1  0  -0.06998  0  3.65585  0  0  -0.129393  0  3.92157  0  0  -0.125637  0  3.922004  0  0.396716  0  -0.072455  -0.13205  0  3.921284  0
C  C62  1  0.32242906  0.06835529  0.25198604  1  0  0.656237  0  3.885983  0  0  0.604447  0  4.190921  0  0  0.636926  0  4.185117  0  1.609255  0  0.200177  0.582446  0  4.194134  0
C  C63  1  0.67757628  0.93164628  0.74802023  1  0  0.656205  0  3.88592  0  0  0.604447  0  4.190775  0  0  0.636926  0  4.18496  0  1.609074  0  0.200153  0.582438  0  4.193988  0
C  C64  1  0.34034265  0.81235591  0.92954273  1  0  0.119747  0  3.71589  0  0  0.088725  0  3.968718  0  0  0.094782  0  3.988154  0  0.457372  0  0.043214  0.084848  0  3.955475  0
C  C65  1  0.65967314  0.18764723  0.07045512  1  0  0.119825  0  3.715929  0  0  0.088852  0  3.968659  0  0  0.094905  0  3.988108  0  0.458234  0  0.043487  0.084972  0  3.955416  0
C  C66  1  0.46877943  0.86283891  0.97163250  1  0  -0.149598  0  3.673444  0  0  -0.170434  0  3.923491  0  0  -0.177412  0  3.943118  0  -0.084313  0  -0.078436  -0.165957  0  3.910458  0
C  C67  1  0.53122810  0.13716502  0.02836682  1  0  -0.149687  0  3.673182  0  0  -0.170428  0  3.923281  0  0  -0.177435  0  3.942883  0  -0.085503  0  -0.078526  -0.165951  0  3.910248  0
C  C68  1  0.43318404  0.97153287  0.97800567  1  0  0.111532  0  3.706071  0  0  0.120645  0  3.940515  0  0  0.125229  0  3.960494  0  0.041323  0  0.020349  0.117687  0  3.926934  0
C  C69  1  0.56683123  0.02847264  0.02199191  1  0  0.111592  0  3.705756  0  0  0.120489  0  3.940385  0  0  0.125077  0  3.960366  0  0.079698  0  0.020217  0.117532  0  3.926803  0
C  C70  1  0.26591724  0.02356272  0.94069415  1  0  -0.150804  0  3.654115  0  0  -0.168714  0  3.899024  0  0  -0.176169  0  3.918732  0  -0.061749  0  -0.077421  -0.163917  0  3.885856  0
C  C71  1  0.73410226  0.97643570  0.05930718  1  0  -0.151098  0  3.653879  0  0  -0.168958  0  3.898854  0  0  -0.17642  0  3.91856  0  -0.062207  0  -0.077496  -0.16416  0  3.885697  0
C  C72  1  0.14383925  0.96691594  0.90065026  1  0  0.130344  0  3.685064  0  0  0.10121  0  3.932566  0  0  0.107754  0  3.951082  0  0.424546  0  0.047323  0.097063  0  3.920011  0
C  C73  1  0.85617688  0.03308563  0.09935368  1  0  0.130622  0  3.684892  0  0  0.101466  0  3.932381  0  0  0.108013  0  3.950897  0  0.424778  0  0.047482  0.097284  0  3.919806  0
C  C74  1  0.10607265  0.62462126  0.70177737  1  0  0.151883  0  3.684682  0  0  0.118501  0  3.936489  0  0  0.126737  0  3.953364  0  0.552334  0  0.051628  0.113094  0  3.925155  0
C  C75  1  0.89391855  0.37537716  0.29822202  1  0  0.15176  0  3.684867  0  0  0.118434  0  3.936627  0  0  0.12667  0  3.953501  0  0.552708  0  0.051605  0.113025  0  3.925294  0
C  C76  1  0.17357036  0.58285703  0.61721182  1  0  -0.153193  0  3.701766  0  0  -0.172763  0  3.952316  0  0  -0.180826  0  3.973602  0  -0.103263  0  -0.08048  -0.167608  0  3.938132  0
C  C77  1  0.82641998  0.41714533  0.38278563  1  0  -0.153275  0  3.701641  0  0  -0.172761  0  3.952149  0  0  -0.180823  0  3.973434  0  -0.103394  0  -0.080447  -0.167605  0  3.937966  0
C  C78  1  0.26600801  0.64401205  0.54495621  1  0  0.103679  0  3.739862  0  0  0.114918  0  3.966494  0  0  0.119755  0  3.988318  0  -0.02821  0  0.015757  0.111867  0  3.951552  0
C  C79  1  0.73397760  0.35599346  0.45503944  1  0  0.103733  0  3.739871  0  0  0.114947  0  3.966663  0  0  0.119789  0  3.988478  0  -0.028463  0  0.015644  0.111894  0  3.951723  0
C  C80  1  0.29240646  0.74489928  0.56632702  1  0  -0.148999  0  3.697646  0  0  -0.166587  0  3.94362  0  0  -0.174895  0  3.964787  0  -0.044915  0  -0.081607  -0.161244  0  3.929502  0
C  C81  1  0.70757966  0.25510386  0.43367482  1  0  -0.149093  0  3.697802  0  0  -0.166646  0  3.943808  0  0  -0.17495  0  3.964966  0  -0.044953  0  -0.081639  -0.161303  0  3.929698  0
C  C82  1  0.22086539  0.78133695  0.65308830  1  0  0.137311  0  3.71149  0  0  0.103552  0  3.968857  0  0  0.112059  0  3.985023  0  0.506441  0  0.046755  0.098034  0  3.957911  0
C  C83  1  0.77911450  0.21866383  0.34691683  1  0  0.137345  0  3.711321  0  0  0.103606  0  3.96866  0  0  0.112107  0  3.98483  0  0.506228  0  0.04677  0.09808  0  3.957711  0
C  C84  1  0.32718339  0.60417114  0.45054822  1  0  0.083415  0  3.768658  0  0  0.098283  0  3.992981  0  0  0.100246  0  4.017029  0  -0.024612  0  0.00487  0.097178  0  3.976435  0
C  C85  1  0.67280273  0.39583830  0.54944548  1  0  0.083411  0  3.768406  0  0  0.098053  0  3.993146  0  0  0.100008  0  4.017206  0  -0.024067  0  0.004902  0.096949  0  3.9766  0
C  C86  1  0.26780506  0.51324236  0.42172424  1  0  -0.161115  0  3.721816  0  0  -0.179982  0  3.96696  0  0  -0.187273  0  3.989681  0  -0.052492  0  -0.089138  -0.175155  0  3.951542  0
C  C87  1  0.73216892  0.48676708  0.57827180  1  0  -0.160889  0  3.721617  0  0  -0.179749  0  3.966873  0  0  -0.187026  0  3.989567  0  -0.052682  0  -0.089097  -0.174932  0  3.951478  0
C  C88  1  0.32246999  0.48043633  0.33046306  1  0  0.110283  0  3.749462  0  0  0.086913  0  4.009603  0  0  0.091863  0  4.027306  0  0.439127  0  0.031948  0.083785  0  3.997493  0
C  C89  1  0.67751817  0.51956367  0.66953690  1  0  0.110295  0  3.749389  0  0  0.086912  0  4.009552  0  0  0.091869  0  4.027253  0  0.439016  0  0.031945  0.083785  0  3.997436  0
C  C90  1  0.48884995  0.61781085  0.29354273  1  0  0.11599  0  3.743615  0  0  0.091694  0  4.010408  0  0  0.097144  0  4.026441  0  0.483174  0  0.038141  0.088214  0  3.999455  0
C  C91  1  0.51114528  0.38218757  0.70645735  1  0  0.116  0  3.743588  0  0  0.091711  0  4.010377  0  0  0.097159  0  4.026411  0  0.483159  0  0.038123  0.088233  0  3.999422  0
C  C92  1  0.44291393  0.65604741  0.38396050  1  0  -0.161689  0  3.714134  0  0  -0.179163  0  3.958364  0  0  -0.186541  0  3.981347  0  0.004334  0  -0.089511  -0.17429  0  3.942828  0
C  C93  1  0.55707590  0.34395731  0.61603594  1  0  -0.161565  0  3.71406  0  0  -0.178978  0  3.958352  0  0  -0.186353  0  3.981336  0  0.003846  0  -0.089449  -0.174104  0  3.942814  0
I  I94  1  0.78786650  0.85965778  0.50054408  1  0  0.005486  0  1.335946  0  0  -0.002519  0  1.62409  0  0  -0.004259  0  1.61568  0  0.103762  0  0.101978  -0.001205  0  1.630007  0
I  I95  1  0.21215235  0.14033119  0.49945911  1  0  0.005482  0  1.335978  0  0  -0.002522  0  1.624067  0  0  -0.004265  0  1.615663  0  0.103821  0  0.101981  -0.001209  0  1.629983  0
N  N96  1  0.17939630  0.86281528  0.89485329  1  0  -0.32524  0  3.291812  0  0  -0.243612  0  3.558042  0  0  -0.262778  0  3.575744  0  -1.254076  0  -0.326489  -0.23065  0  3.545788  0
N  N97  1  0.82061931  0.13718865  0.10514743  1  0  -0.325363  0  3.292082  0  0  -0.243755  0  3.55833  0  0  -0.262922  0  3.576032  0  -1.254006  0  -0.326641  -0.230794  0  3.546092  0
N  N98  1  0.42989355  0.53170378  0.26561540  1  0  -0.311812  0  3.040244  0  0  -0.283033  0  3.312502  0  0  -0.292053  0  3.324534  0  -1.191918  0  -0.331847  -0.276912  0  3.30429  0
N  N99  1  0.57009696  0.46829779  0.73438879  1  0  -0.311796  0  3.040166  0  0  -0.283015  0  3.312432  0  0  -0.292037  0  3.324466  0  -1.191963  0  -0.331793  -0.276895  0  3.30422  0
N  N100  1  0.12550781  0.72311812  0.71929401  1  0  -0.334062  0  3.296833  0  0  -0.252828  0  3.567939  0  0  -0.272499  0  3.583583  0  -1.238935  0  -0.328141  -0.239615  0  3.557209  0
N  N101  1  0.87448084  0.27688582  0.28070918  1  0  -0.334016  0  3.296644  0  0  -0.252828  0  3.567765  0  0  -0.272496  0  3.583407  0  -1.238836  0  -0.328134  -0.239614  0  3.557041  0
O  O102  1  0.08968533  0.63764270  0.94456169  1  0  -0.641329  0  1.970093  0  0  -0.581409  0  2.212113  0  0  -0.609391  0  2.202076  0  -1.183274  0  -0.331986  -0.561764  0  2.218255  0
O  O103  1  0.91032524  0.36235966  0.05543704  1  0  -0.641361  0  1.97005  0  0  -0.581435  0  2.212039  0  0  -0.609421  0  2.202  0  -1.183309  0  -0.331996  -0.56179  0  2.218177  0
O  O104  1  0.87076834  0.74389194  0.01038176  1  0  -0.632259  0  1.990749  0  0  -0.579202  0  2.227487  0  0  -0.604249  0  2.218453  0  -1.18218  0  -0.320994  -0.561525  0  2.233027  0
O  O105  1  0.12923447  0.25610885  0.98961945  1  0  -0.632252  0  1.990767  0  0  -0.579195  0  2.227487  0  0  -0.604242  0  2.218442  0  -1.182682  0  -0.321008  -0.56152  0  2.233027  0
O  O106  1  0.17933523  0.08515565  0.19919780  1  0  -0.625102  0  2.092897  0  0  -0.555856  0  2.36098  0  0  -0.583805  0  2.349586  0  -1.189435  0  -0.31397  -0.536357  0  2.368171  0
O  O107  1  0.82066236  0.91484435  0.80081169  1  0  -0.62511  0  2.092813  0  0  -0.555886  0  2.360888  0  0  -0.583835  0  2.349496  0  -1.189362  0  -0.31398  -0.536384  0  2.368076  0
O  O108  1  0.40027643  0.13634513  0.28958467  1  0  -0.624435  0  1.971104  0  0  -0.567414  0  2.195894  0  0  -0.593076  0  2.187738  0  -1.191326  0  -0.325682  -0.549433  0  2.200906  0
O  O109  1  0.59973700  0.86365644  0.71041486  1  0  -0.624369  0  1.971119  0  0  -0.567375  0  2.195918  0  0  -0.59303  0  2.187749  0  -1.191191  0  -0.325645  -0.549392  0  2.200932  0
O  O110  1  0.92401496  0.63069998  0.19887868  1  0  -0.262694  0  2.32881  0  0  -0.194935  0  2.561307  0  0  -0.21237  0  2.562952  0  -1.071077  0  -0.178409  -0.182481  0  2.559722  0
O  O111  1  0.07598836  0.36929844  0.80112207  1  0  -0.262653  0  2.328884  0  0  -0.194958  0  2.561373  0  0  -0.212379  0  2.563032  0  -1.070927  0  -0.178406  -0.182499  0  2.559791  0
O  O112  1  0.33768881  0.88122393  0.22114587  1  0  -0.256732  0  2.342743  0  0  -0.188196  0  2.573636  0  0  -0.20562  0  2.576492  0  -1.080594  0  -0.177024  -0.175735  0  2.571197  0
O  O113  1  0.66232260  0.11878079  0.77885184  1  0  -0.256776  0  2.342757  0  0  -0.188233  0  2.573595  0  0  -0.205661  0  2.576428  0  -1.08067  0  -0.177002  -0.175781  0  2.571145  0
O  O114  1  0.75841946  0.69350503  0.80893791  1  0  -0.805883  0  1.925294  0  0  -0.746473  0  2.126213  0  0  -0.767771  0  2.097237  0  -1.252658  0  -0.560734  -0.73145  0  2.146128  0
O  O115  1  0.24157713  0.30649339  0.19106216  1  0  -0.805858  0  1.925345  0  0  -0.746445  0  2.126252  0  0  -0.767742  0  2.097267  0  -1.252716  0  -0.560701  -0.731421  0  2.146167  0
