# generated using pymatgen
data_ZnH17C22N5O6
_symmetry_space_group_name_H-M   'P 1'
_cell_length_a   9.36630135
_cell_length_b   10.13854425
_cell_length_c   12.15360000
_cell_angle_alpha   103.11086031
_cell_angle_beta   108.92543753
_cell_angle_gamma   98.65177716
_symmetry_Int_Tables_number   1
_chemical_formula_structural   ZnH17C22N5O6
_chemical_formula_sum   'Zn2 H34 C44 N10 O12'
_cell_volume   1031.35905402
_cell_formula_units_Z   2
loop_
 _symmetry_equiv_pos_site_id
 _symmetry_equiv_pos_as_xyz
  1  'x, y, z'
loop_
 _atom_site_type_symbol
 _atom_site_label
 _atom_site_symmetry_multiplicity
 _atom_site_fract_x
 _atom_site_fract_y
 _atom_site_fract_z
 _atom_site_occupancy
 _atom_site_hle17_bader_spin_density
 _atom_site_hle17_ddec_charge
 _atom_site_hle17_ddec_spin_density
 _atom_site_hle17_ddec_sum_bond_order
 _atom_site_hle17_magmom
 _atom_site_hse06_10hf_bader_spin_density
 _atom_site_hse06_10hf_ddec_charge
 _atom_site_hse06_10hf_ddec_spin_density
 _atom_site_hse06_10hf_ddec_sum_bond_order
 _atom_site_hse06_10hf_magmom
 _atom_site_hse06_bader_spin_density
 _atom_site_hse06_ddec_charge
 _atom_site_hse06_ddec_spin_density
 _atom_site_hse06_ddec_sum_bond_order
 _atom_site_hse06_magmom
 _atom_site_pbe_bader_charge
 _atom_site_pbe_bader_spin_density
 _atom_site_pbe_cm5_charge
 _atom_site_pbe_ddec_charge
 _atom_site_pbe_ddec_spin_density
 _atom_site_pbe_ddec_sum_bond_order
 _atom_site_pbe_magmom
Zn  Zn0  1  0.21457917  0.92183715  0.83004919  1  0  1.019377  0  1.876387  0  0  0.827539  0  2.359351  0  0  0.873104  0  2.304219  0  1.259671  0  0.703839  0.796432  0  2.396833  0
Zn  Zn1  1  0.78542059  0.07816286  0.16995059  1  0  1.019366  0  1.8764  0  0  0.827536  0  2.359373  0  0  0.873115  0  2.30424  0  1.259663  0  0.703834  0.796424  0  2.396849  0
H  H2  1  0.18513329  0.36094572  0.04683662  1  0  0.108891  0  0.9587  0  0  0.11642  0  1.022568  0  0  0.120016  0  1.01979  0  0.101318  0  0.112106  0.113828  0  1.024686  0
H  H3  1  0.81486619  0.63905325  0.95316371  1  0  0.108881  0  0.958737  0  0  0.116411  0  1.022603  0  0  0.120006  0  1.019827  0  0.101325  0  0.112106  0.113819  0  1.024721  0
H  H4  1  0.41718412  0.42237222  0.24269889  1  0  0.099678  0  0.955343  0  0  0.108986  0  1.01545  0  0  0.111669  0  1.015376  0  0.072673  0  0.105284  0.107085  0  1.015769  0
H  H5  1  0.58281564  0.57762779  0.75730089  1  0  0.099692  0  0.955333  0  0  0.108997  0  1.015441  0  0  0.11168  0  1.015366  0  0.072675  0  0.105286  0.107096  0  1.01576  0
H  H6  1  0.63659639  0.62555140  0.28743777  1  0  0.101691  0  0.943297  0  0  0.109545  0  1.00872  0  0  0.113184  0  1.00635  0  0.094252  0  0.105471  0.107117  0  1.010048  0
H  H7  1  0.36340308  0.37444756  0.71256174  1  0  0.101693  0  0.943268  0  0  0.109537  0  1.008703  0  0  0.113177  0  1.006333  0  0.094255  0  0.105474  0.10711  0  1.010031  0
H  H8  1  0.31005336  0.66741109  0.67511320  1  0  0.11387  0  0.957495  0  0  0.122543  0  1.020104  0  0  0.12538  0  1.016969  0  0.190553  0  0.138775  0.120491  0  1.02213  0
H  H9  1  0.68994640  0.33258892  0.32488658  1  0  0.113857  0  0.957494  0  0  0.122544  0  1.020086  0  0  0.125384  0  1.016942  0  0.19055  0  0.138767  0.120489  0  1.022119  0
H  H10  1  0.97969562  0.89711265  0.56140959  1  0  0.101889  0  0.955415  0  0  0.113367  0  1.013931  0  0  0.115616  0  1.013275  0  0.081135  0  0.117057  0.111693  0  1.014503  0
H  H11  1  0.02030385  0.10288632  0.43858992  1  0  0.101855  0  0.955397  0  0  0.113335  0  1.013914  0  0  0.115582  0  1.013259  0  0.081056  0  0.117044  0.111661  0  1.014485  0
H  H12  1  0.96918824  0.69971550  0.35712272  1  0  0.133833  0  0.980452  0  0  0.136672  0  1.051006  0  0  0.140588  0  1.047573  0  0.162315  0  0.121756  0.133803  0  1.05351  0
H  H13  1  0.03081152  0.30028451  0.64287788  1  0  0.133826  0  0.98044  0  0  0.136666  0  1.050993  0  0  0.140585  0  1.047559  0  0.162316  0  0.121748  0.133795  0  1.053502  0
H  H14  1  0.14980279  0.54532964  0.32595105  1  0  0.097163  0  0.926944  0  0  0.10799  0  0.99338  0  0  0.109778  0  0.990989  0  0.105593  0  0.115661  0.106738  0  0.99501  0
H  H15  1  0.85019669  0.45466932  0.67404846  1  0  0.097186  0  0.926979  0  0  0.108007  0  0.99342  0  0  0.109795  0  0.99103  0  0.105593  0  0.115662  0.106752  0  0.99505  0
H  H16  1  0.10115994  0.43489891  0.40837055  1  0  0.086286  0  0.932362  0  0  0.097982  0  0.999112  0  0  0.098255  0  0.999952  0  0.06269  0  0.109886  0.097634  0  0.998348  0
H  H17  1  0.89883954  0.56510005  0.59162896  1  0  0.0863  0  0.932357  0  0  0.097991  0  0.999112  0  0  0.098265  0  0.999951  0  0.062699  0  0.109892  0.097643  0  0.998346  0
H  H18  1  0.27769871  0.29850751  0.44516425  1  0  0.088791  0  0.96367  0  0  0.096731  0  1.030413  0  0  0.099146  0  1.030641  0  0.073116  0  0.097527  0.095011  0  1.030226  0
H  H19  1  0.72230077  0.70149145  0.55483608  1  0  0.088799  0  0.963628  0  0  0.096736  0  1.030374  0  0  0.099151  0  1.030601  0  0.073129  0  0.097525  0.095015  0  1.030188  0
H  H20  1  0.45436715  0.73352858  0.49109600  1  0  0.094077  0  0.974669  0  0  0.102049  0  1.040773  0  0  0.103775  0  1.042505  0  0.078109  0  0.098064  0.100519  0  1.040284  0
H  H21  1  0.54563374  0.26647143  0.50890406  1  0  0.094096  0  0.974661  0  0  0.102071  0  1.040764  0  0  0.103798  0  1.042494  0  0.078104  0  0.098065  0.100541  0  1.040273  0
H  H22  1  0.98486856  0.13517820  0.78759265  1  0  0.110085  0  0.971387  0  0  0.115067  0  1.04172  0  0  0.118258  0  1.037712  0  0.188427  0  0.133363  0.112819  0  1.044371  0
H  H23  1  0.01513035  0.86482286  0.21240712  1  0  0.110078  0  0.971366  0  0  0.11506  0  1.041699  0  0  0.11825  0  1.037696  0  0.188435  0  0.133362  0.112813  0  1.04435  0
H  H24  1  0.94069022  0.76143121  0.88262713  1  0  0.104185  0  0.957944  0  0  0.11653  0  1.013075  0  0  0.118796  0  1.01208  0  0.111958  0  0.117965  0.114734  0  1.014114  0
H  H25  1  0.05930841  0.23856880  0.11737236  1  0  0.104179  0  0.957963  0  0  0.116522  0  1.013095  0  0  0.118788  0  1.012099  0  0.111956  0  0.117978  0.114726  0  1.014134  0
H  H26  1  0.65856412  0.84360746  0.84323331  1  0  0.142571  0  0.964476  0  0  0.152393  0  1.023015  0  0  0.156057  0  1.020425  0  0.178855  0  0.128201  0.149644  0  1.025004  0
H  H27  1  0.34143564  0.15639255  0.15676647  1  0  0.14259  0  0.964454  0  0  0.152411  0  1.022996  0  0  0.156076  0  1.020407  0  0.178855  0  0.128212  0.149662  0  1.024984  0
H  H28  1  0.72668105  0.19726351  0.79633574  1  0  0.096504  0  0.905699  0  0  0.113485  0  0.962707  0  0  0.113647  0  0.963238  0  0.097379  0  0.117199  0.113377  0  0.962399  0
H  H29  1  0.27331758  0.80273650  0.20366458  1  0  0.09648  0  0.905671  0  0  0.113446  0  0.962687  0  0  0.113607  0  0.963218  0  0.097385  0  0.117178  0.113335  0  0.962378  0
H  H30  1  0.58784432  0.07099849  0.81145006  1  0  0.110942  0  0.943764  0  0  0.121246  0  1.009326  0  0  0.123263  0  1.007911  0  0.15917  0  0.119091  0.120236  0  1.009729  0
H  H31  1  0.41215544  0.92900152  0.18854971  1  0  0.11092  0  0.943746  0  0  0.121215  0  1.009313  0  0  0.12323  0  1.007901  0  0.159193  0  0.119083  0.120204  0  1.009715  0
H  H32  1  0.78552543  0.02745890  0.58133407  1  0  0.0783  0  0.985325  0  0  0.088729  0  1.052251  0  0  0.090738  0  1.052075  0  0.031199  0  0.094623  0.087143  0  1.05289  0
H  H33  1  0.21447405  0.97254006  0.41866544  1  0  0.078309  0  0.985296  0  0  0.088732  0  1.052226  0  0  0.090741  0  1.05205  0  0.031204  0  0.094614  0.087138  0  1.052872  0
H  H34  1  0.35712014  0.03903445  0.63959283  1  0  0.097589  0  0.9778  0  0  0.107492  0  1.040563  0  0  0.109557  0  1.04083  0  0.097534  0  0.100727  0.106052  0  1.040289  0
H  H35  1  0.64287934  0.96096452  0.36040668  1  0  0.097584  0  0.977817  0  0  0.107487  0  1.040579  0  0  0.109558  0  1.040841  0  0.097565  0  0.100718  0.106045  0  1.040314  0
C  C36  1  0.52448582  0.68173775  0.12730927  1  0  -0.080758  0  3.720896  0  0  -0.064788  0  3.959369  0  0  -0.073904  0  3.982816  0  -0.023669  0  -0.010984  -0.058658  0  3.943691  0
C  C37  1  0.47551395  0.31826226  0.87269133  1  0  -0.080712  0  3.720886  0  0  -0.064726  0  3.959344  0  0  -0.073843  0  3.98279  0  -0.023675  0  -0.010955  -0.058592  0  3.94366  0
C  C38  1  0.39314160  0.65154548  0.01958738  1  0  -0.058488  0  3.638197  0  0  -0.053963  0  3.877071  0  0  -0.05351  0  3.894375  0  0.039544  0  0.012257  -0.054747  0  3.865874  0
C  C39  1  0.60685929  0.34845453  0.98041268  1  0  -0.058517  0  3.638175  0  0  -0.053975  0  3.877053  0  0  -0.05352  0  3.894354  0  0.039557  0  0.012251  -0.05476  0  3.865856  0
C  C40  1  0.27483634  0.53290632  0.99444114  1  0  0.043392  0  3.681793  0  0  0.029746  0  3.940345  0  0  0.025474  0  3.962638  0  0.167622  0  0.07908  0.032486  0  3.925868  0
C  C41  1  0.72516342  0.46709369  0.00555864  1  0  0.043405  0  3.681798  0  0  0.029761  0  3.940343  0  0  0.025494  0  3.962635  0  0.167603  0  0.079095  0.032502  0  3.925866  0
C  C42  1  0.28070030  0.45151103  0.07347057  1  0  -0.072863  0  3.713153  0  0  -0.104554  0  3.976212  0  0  -0.102344  0  3.992722  0  0.020507  0  -0.073917  -0.105293  0  3.965235  0
C  C43  1  0.71929947  0.54848898  0.92653003  1  0  -0.072867  0  3.713192  0  0  -0.104568  0  3.976253  0  0  -0.102362  0  3.992766  0  0.020497  0  -0.073936  -0.105308  0  3.965278  0
C  C44  1  0.40990211  0.48539302  0.18057760  1  0  -0.044143  0  3.744698  0  0  -0.058149  0  4.004109  0  0  -0.060516  0  4.022677  0  0.057325  0  -0.083196  -0.057448  0  3.991847  0
C  C45  1  0.59009765  0.51460699  0.81942300  1  0  -0.044207  0  3.744713  0  0  -0.058203  0  4.004119  0  0  -0.060568  0  4.022687  0  0.057333  0  -0.08321  -0.057502  0  3.991858  0
C  C46  1  0.53208244  0.59858947  0.20566582  1  0  -0.034241  0  3.693065  0  0  -0.069328  0  3.95538  0  0  -0.06696  0  3.972975  0  -0.068937  0  -0.07065  -0.070507  0  3.943436  0
C  C47  1  0.46791816  0.40140949  0.79433397  1  0  -0.034229  0  3.693048  0  0  -0.069312  0  3.955357  0  0  -0.066944  0  3.972951  0  -0.068924  0  -0.070661  -0.070494  0  3.943413  0
C  C48  1  0.65820856  0.80685743  0.16604159  1  0  0.636177  0  3.938964  0  0  0.584643  0  4.237783  0  0  0.618527  0  4.230531  0  1.598596  0  0.201798  0.561585  0  4.241845  0
C  C49  1  0.34179233  0.19314258  0.83395930  1  0  0.636151  0  3.938889  0  0  0.58459  0  4.237748  0  0  0.618471  0  4.2305  0  1.598587  0  0.201807  0.561531  0  4.241809  0
C  C50  1  0.37317292  0.74756186  0.93912937  1  0  0.672081  0  3.951404  0  0  0.612207  0  4.264619  0  0  0.647724  0  4.253472  0  1.689343  0  0.204362  0.587979  0  4.271349  0
C  C51  1  0.62682797  0.25243815  0.06087069  1  0  0.672093  0  3.951403  0  0  0.612159  0  4.264713  0  0  0.647676  0  4.253567  0  1.689341  0  0.204314  0.587931  0  4.271441  0
C  C52  1  0.21895608  0.70263679  0.61654557  1  0  0.174033  0  3.624059  0  0  0.111035  0  3.887933  0  0  0.125525  0  3.899158  0  0.988122  0  0.146996  0.101308  0  3.88046  0
C  C53  1  0.78104368  0.29736322  0.38345421  1  0  0.174098  0  3.624025  0  0  0.111083  0  3.887904  0  0  0.125575  0  3.899129  0  0.988118  0  0.147007  0.101354  0  3.88043  0
C  C54  1  0.04580123  0.81873575  0.55429041  1  0  -0.00998  0  3.766493  0  0  -0.041219  0  4.031723  0  0  -0.040065  0  4.052124  0  0.420574  0  -0.00588  -0.042081  0  4.017728  0
C  C55  1  0.95419712  0.18126322  0.44570964  1  0  -0.009907  0  3.766473  0  0  -0.04114  0  4.031704  0  0  -0.039986  0  4.052106  0  0.420628  0  -0.005851  -0.042003  0  4.017706  0
C  C56  1  0.04065310  0.72245105  0.45248243  1  0  -0.067086  0  3.658364  0  0  -0.108198  0  3.918061  0  0  -0.106649  0  3.936036  0  0.319024  0  0.00121  -0.108594  0  3.905392  0
C  C57  1  0.95934666  0.27754896  0.54751734  1  0  -0.067079  0  3.658381  0  0  -0.108199  0  3.918083  0  0  -0.106652  0  3.936056  0  0.31904  0  0.001216  -0.108599  0  3.905419  0
C  C58  1  0.18118727  0.53122433  0.41712008  1  0  -0.040266  0  3.635386  0  0  -0.105711  0  3.88357  0  0  -0.100791  0  3.893174  0  0.281501  0  -0.046299  -0.108802  0  3.876803  0
C  C59  1  0.81881333  0.46877464  0.58287971  1  0  -0.040277  0  3.635455  0  0  -0.105724  0  3.883632  0  0  -0.100807  0  3.893239  0  0.281492  0  -0.046305  -0.108808  0  3.876854  0
C  C60  1  0.34680724  0.51794069  0.46393154  1  0  0.060466  0  3.762125  0  0  0.080073  0  4.000266  0  0  0.078813  0  4.025116  0  -0.037186  0  -0.012422  0.080941  0  3.982873  0
C  C61  1  0.65319365  0.48205932  0.53606934  1  0  0.060456  0  3.762159  0  0  0.080085  0  4.000266  0  0  0.078826  0  4.025115  0  -0.037195  0  -0.012406  0.080951  0  3.982871  0
C  C62  1  0.37534120  0.38729374  0.46927824  1  0  -0.116819  0  3.763398  0  0  -0.134173  0  4.010135  0  0  -0.137222  0  4.032653  0  -0.088773  0  -0.090636  -0.131684  0  3.994329  0
C  C63  1  0.62465828  0.61270523  0.53072127  1  0  -0.11683  0  3.763364  0  0  -0.134188  0  4.01009  0  0  -0.137236  0  4.032607  0  -0.088781  0  -0.090627  -0.131698  0  3.994285  0
C  C64  1  0.47340077  0.63087927  0.49521986  1  0  -0.111762  0  3.745254  0  0  -0.131955  0  3.994154  0  0  -0.134456  0  4.016599  0  0.00462  0  -0.09169  -0.130224  0  3.979103  0
C  C65  1  0.52660012  0.36912074  0.50478020  1  0  -0.111821  0  3.745296  0  0  -0.132028  0  3.9942  0  0  -0.13453  0  4.016644  0  0.004666  0  -0.091721  -0.130296  0  3.979148  0
C  C66  1  0.93413298  0.04345711  0.80641377  1  0  0.148916  0  3.658831  0  0  0.087099  0  3.925341  0  0  0.100493  0  3.93732  0  0.960399  0  0.140169  0.078932  0  3.916553  0
C  C67  1  0.06586678  0.95654290  0.19358683  1  0  0.148925  0  3.658769  0  0  0.087119  0  3.925277  0  0  0.100512  0  3.937257  0  0.960382  0  0.14018  0.078953  0  3.916488  0
C  C68  1  0.90518927  0.84946466  0.85505109  1  0  -0.00272  0  3.748112  0  0  -0.037516  0  4.014805  0  0  -0.036644  0  4.036216  0  0.392966  0  -0.006531  -0.037989  0  4.000257  0
C  C69  1  0.09480908  0.15053430  0.14494896  1  0  -0.002724  0  3.748149  0  0  -0.037515  0  4.014843  0  0  -0.036641  0  4.036254  0  0.392979  0  -0.006528  -0.037987  0  4.000293  0
C  C70  1  0.76654463  0.88810655  0.83521067  1  0  -0.058196  0  3.626784  0  0  -0.097378  0  3.881591  0  0  -0.095871  0  3.899945  0  0.298836  0  0.006735  -0.098514  0  3.869599  0
C  C71  1  0.23345514  0.11189346  0.16478993  1  0  -0.058222  0  3.626745  0  0  -0.097405  0  3.88155  0  0  -0.095899  0  3.899903  0  0.29886  0  0.006716  -0.098542  0  3.869558  0
C  C72  1  0.66827172  0.08554127  0.76440071  1  0  -0.049581  0  3.630712  0  0  -0.115552  0  3.878945  0  0  -0.111399  0  3.888949  0  0.239481  0  -0.045599  -0.118404  0  3.871602  0
C  C73  1  0.33172804  0.91445874  0.23560071  1  0  -0.049471  0  3.630662  0  0  -0.115392  0  3.878834  0  0  -0.111234  0  3.88884  0  0.239472  0  -0.045562  -0.118246  0  3.871501  0
C  C74  1  0.58222699  0.03873063  0.62753141  1  0  0.06629  0  3.741326  0  0  0.086122  0  3.979876  0  0  0.085385  0  4.003725  0  -0.023683  0  -0.012706  0.086862  0  3.963789  0
C  C75  1  0.41777277  0.96126938  0.37246919  1  0  0.066163  0  3.741497  0  0  0.085983  0  3.980044  0  0  0.085242  0  4.003896  0  -0.023882  0  -0.012756  0.086723  0  3.963952  0
C  C76  1  0.65982568  0.01500217  0.54662963  1  0  -0.118929  0  3.7676  0  0  -0.139392  0  4.015087  0  0  -0.141504  0  4.036646  0  -0.100609  0  -0.097425  -0.138377  0  4.001243  0
C  C77  1  0.34017521  0.98499784  0.45337207  1  0  -0.118912  0  3.767649  0  0  -0.13936  0  4.01512  0  0  -0.14147  0  4.036677  0  -0.100432  0  -0.097393  -0.13834  0  4.00128  0
C  C78  1  0.42091528  0.02295794  0.57897516  1  0  -0.115625  0  3.743398  0  0  -0.131937  0  3.986104  0  0  -0.134664  0  4.008415  0  0.00481  0  -0.094117  -0.129708  0  3.971064  0
C  C79  1  0.57908561  0.97704207  0.42102573  1  0  -0.11556  0  3.743398  0  0  -0.131869  0  3.986098  0  0  -0.1346  0  4.008411  0  0.004803  0  -0.094074  -0.129638  0  3.971054  0
N  N80  1  0.13926128  0.48848762  0.88087157  1  0  0.511903  0  3.884463  0  0  0.536942  0  4.186228  0  0  0.559291  0  4.192456  0  0.342261  0  0.054649  0.521635  0  4.182786  0
N  N81  1  0.86073961  0.51151239  0.11912849  1  0  0.512025  0  3.884358  0  0  0.537066  0  4.186116  0  0  0.559413  0  4.192345  0  0.342253  0  0.054724  0.521759  0  4.182674  0
N  N82  1  0.15741965  0.80550119  0.65577659  1  0  -0.394993  0  3.32751  0  0  -0.315988  0  3.634093  0  0  -0.335527  0  3.64534  0  -1.268825  0  -0.360953  -0.303171  0  3.62684  0
N  N83  1  0.84258011  0.19449882  0.34422319  1  0  -0.395029  0  3.32753  0  0  -0.316028  0  3.634126  0  0  -0.335572  0  3.645378  0  -1.268829  0  -0.360959  -0.303207  0  3.626868  0
N  N84  1  0.15121013  0.65017254  0.49364305  1  0  -0.052978  0  3.543303  0  0  0.042607  0  3.759534  0  0  0.027724  0  3.78562  0  -1.231412  0  -0.236441  0.052386  0  3.741665  0
N  N85  1  0.84879048  0.34982643  0.50635674  1  0  -0.053057  0  3.54337  0  0  0.042542  0  3.759608  0  0  0.02766  0  3.785695  0  -1.231416  0  -0.236458  0.05232  0  3.741737  0
N  N86  1  0.00828269  0.94691558  0.83666936  1  0  -0.392204  0  3.341698  0  0  -0.311987  0  3.646464  0  0  -0.331754  0  3.659559  0  -1.262711  0  -0.365416  -0.299135  0  3.63729  0
N  N87  1  0.99171679  0.05308338  0.16333015  1  0  -0.392186  0  3.341757  0  0  -0.311981  0  3.646537  0  0  -0.331751  0  3.659637  0  -1.262738  0  -0.365438  -0.299127  0  3.637358  0
N  N88  1  0.78751516  0.01071837  0.80426759  1  0  -0.038029  0  3.568588  0  0  0.054871  0  3.786022  0  0  0.040885  0  3.811474  0  -1.224001  0  -0.236481  0.063996  0  3.768637  0
N  N89  1  0.21248460  0.98928164  0.19573219  1  0  -0.038062  0  3.568607  0  0  0.054824  0  3.786037  0  0  0.040837  0  3.811488  0  -1.223996  0  -0.236482  0.063948  0  3.768652  0
O  O90  1  0.79126443  0.80430051  0.23192678  1  0  -0.616043  0  1.912891  0  0  -0.573369  0  2.14109  0  0  -0.596457  0  2.133271  0  -1.188578  0  -0.326042  -0.556871  0  2.145661  0
O  O91  1  0.20873562  0.19570054  0.76807491  1  0  -0.616019  0  1.912858  0  0  -0.573334  0  2.141077  0  0  -0.596424  0  2.133259  0  -1.188565  0  -0.326036  -0.556832  0  2.145633  0
O  O92  1  0.62062231  0.91174939  0.12982828  1  0  -0.627506  0  2.097592  0  0  -0.545391  0  2.367777  0  0  -0.572987  0  2.350816  0  -1.160207  0  -0.317443  -0.526519  0  2.378582  0
O  O93  1  0.37937717  0.08824957  0.87017041  1  0  -0.627506  0  2.097567  0  0  -0.54538  0  2.367763  0  0  -0.572967  0  2.35079  0  -1.160217  0  -0.317452  -0.526513  0  2.378573  0
O  O94  1  0.44911846  0.75394527  0.87265450  1  0  -0.604065  0  1.957201  0  0  -0.559799  0  2.189185  0  0  -0.584716  0  2.181092  0  -1.186151  0  -0.309415  -0.541068  0  2.19344  0
O  O95  1  0.55088102  0.24605370  0.12734501  1  0  -0.604087  0  1.957146  0  0  -0.559806  0  2.18917  0  0  -0.584725  0  2.181079  0  -1.186148  0  -0.309397  -0.541073  0  2.193426  0
O  O96  1  0.26896255  0.81529242  0.94803793  1  0  -0.641382  0  2.036608  0  0  -0.570897  0  2.315408  0  0  -0.599765  0  2.300183  0  -1.16159  0  -0.333793  -0.550437  0  2.325031  0
O  O97  1  0.73103721  0.18470759  0.05196267  1  0  -0.641358  0  2.036682  0  0  -0.570857  0  2.315516  0  0  -0.599728  0  2.300294  0  -1.161597  0  -0.333769  -0.550399  0  2.325144  0
O  O98  1  0.15108696  0.52877600  0.79420829  1  0  -0.367204  0  1.801701  0  0  -0.341834  0  2.020777  0  0  -0.354368  0  2.017936  0  -0.459825  0  -0.115248  -0.333895  0  2.023042  0
O  O99  1  0.84891309  0.47122506  0.20579175  1  0  -0.367285  0  1.801642  0  0  -0.341909  0  2.020718  0  0  -0.354445  0  2.017877  0  -0.459814  0  -0.115308  -0.333975  0  2.022983  0
O  O100  1  0.01857645  0.41082487  0.87484133  1  0  -0.383079  0  1.733527  0  0  -0.366999  0  1.945083  0  0  -0.378569  0  1.940532  0  -0.485325  0  -0.140561  -0.360297  0  1.949521  0
O  O101  1  0.98142444  0.58917514  0.12515873  1  0  -0.383121  0  1.733529  0  0  -0.367051  0  1.945086  0  0  -0.378618  0  1.940535  0  -0.485354  0  -0.140578  -0.360341  0  1.949521  0
