# generated using pymatgen
data_CuH20C14SN4O7
_symmetry_space_group_name_H-M   'P 1'
_cell_length_a   7.77756768
_cell_length_b   10.04240434
_cell_length_c   12.45611983
_cell_angle_alpha   66.88889154
_cell_angle_beta   87.83006364
_cell_angle_gamma   80.56552229
_symmetry_Int_Tables_number   1
_chemical_formula_structural   CuH20C14SN4O7
_chemical_formula_sum   'Cu2 H40 C28 S2 N8 O14'
_cell_volume   882.33278500
_cell_formula_units_Z   2
loop_
 _symmetry_equiv_pos_site_id
 _symmetry_equiv_pos_as_xyz
  1  'x, y, z'
loop_
 _atom_site_type_symbol
 _atom_site_label
 _atom_site_symmetry_multiplicity
 _atom_site_fract_x
 _atom_site_fract_y
 _atom_site_fract_z
 _atom_site_occupancy
 _atom_site_hle17_ddec_charge
 _atom_site_hle17_ddec_spin_density
 _atom_site_hle17_ddec_sum_bond_order
 _atom_site_hle17_magmom
 _atom_site_hse06_10hf_ddec_charge
 _atom_site_hse06_10hf_ddec_spin_density
 _atom_site_hse06_10hf_ddec_sum_bond_order
 _atom_site_hse06_10hf_magmom
 _atom_site_hse06_ddec_charge
 _atom_site_hse06_ddec_spin_density
 _atom_site_hse06_ddec_sum_bond_order
 _atom_site_hse06_magmom
 _atom_site_pbe_cm5_charge
 _atom_site_pbe_ddec_charge
 _atom_site_pbe_ddec_spin_density
 _atom_site_pbe_ddec_sum_bond_order
 _atom_site_pbe_magmom
Cu  Cu0  1  0.69624215  0.34275249  0.84999467  1  0.958683  0.758664  1.746115  0.554  0.943284  0.831545  2.122724  0.66  1.015846  0.893177  2.068999  0.732  0.758292  0.893931  0.785432  2.164162  0.611
Cu  Cu1  1  0.30201444  0.65824899  0.14936043  1  0.960738  -0.759717  1.743501  -0.555  0.944913  -0.832391  2.120013  -0.661  1.017568  -0.893912  2.06613  -0.733  0.757832  0.895461  -0.786351  2.161517  -0.612
H  H2  1  0.47160077  0.34050809  0.99663099  1  0.417495  -4.5e-05  0.889938  -0.001  0.38708  0.000461  0.955418  0.0  0.39852  0.000255  0.939045  0.0  0.289401  0.378899  0.00061  0.967076  0.0
H  H3  1  0.52815702  0.65977764  0.00334267  1  0.417779  3e-05  0.889029  0.001  0.38701  -0.000471  0.955277  0.0  0.398513  -0.000266  0.938842  0.0  0.289527  0.378811  -0.000621  0.96694  0.0
H  H4  1  0.66181541  0.31950411  0.06406192  1  0.42669  8.9e-05  0.885732  0.0  0.39664  0.000615  0.948791  0.001  0.408755  0.00044  0.931474  0.0  0.287916  0.387945  0.000729  0.961194  0.001
H  H5  1  0.33830348  0.68085537  0.93554106  1  0.426611  -8.5e-05  0.885918  0.0  0.396558  -0.000604  0.948994  -0.001  0.408661  -0.000431  0.931682  0.0  0.287707  0.387869  -0.000718  0.9614  -0.001
H  H6  1  0.77995617  0.53100885  0.93089591  1  0.42521  0.000501  0.875023  0.001  0.396869  0.001034  0.934808  0.002  0.408436  0.000801  0.918139  0.001  0.290386  0.388455  0.001181  0.946862  0.002
H  H7  1  0.22047106  0.46900252  0.06919454  1  0.424562  -0.000475  0.875944  0.0  0.3967  -0.001015  0.934943  -0.002  0.408165  -0.000784  0.918404  -0.001  0.290687  0.388347  -0.001164  0.946929  -0.002
H  H8  1  0.91186030  0.51450087  0.82967799  1  0.426843  -6.4e-05  0.881478  -0.001  0.396511  0.000395  0.94476  0.0  0.408542  0.000221  0.92757  0.0  0.287959  0.387981  0.000526  0.956903  0.0
H  H9  1  0.08862112  0.48521446  0.17041887  1  0.426901  9.5e-05  0.881097  0.001  0.396432  -0.000377  0.944647  0.0  0.408426  -0.000205  0.927526  0.0  0.288287  0.387914  -0.000508  0.956764  0.0
H  H10  1  0.05918475  0.26881721  0.72886737  1  0.107686  3.9e-05  0.939705  0.0  0.113536  0.000177  1.009412  0.0  0.11551  0.000129  1.006495  0.0  0.13706  0.111746  0.00022  1.011891  0.001
H  H11  1  0.94003492  0.73153157  0.27108756  1  0.108132  -5.3e-05  0.940258  0.0  0.113972  -0.000185  1.009654  0.0  0.115938  -0.000136  1.006754  0.0  0.136862  0.112165  -0.000229  1.012158  -0.001
H  H12  1  0.61407217  0.15786928  0.58232964  1  0.077933  -4.4e-05  0.987423  0.0  0.085635  -3.3e-05  1.057617  0.0  0.08737  -2.4e-05  1.058551  0.0  0.09175  0.084211  -3.9e-05  1.057232  0.0
H  H13  1  0.38600895  0.84223199  0.41766943  1  0.07757  3.6e-05  0.987467  0.0  0.085452  3.2e-05  1.057534  0.0  0.087192  2.3e-05  1.058464  0.0  0.091614  0.084047  3.9e-05  1.057127  0.0
H  H14  1  0.12327345  0.00316003  0.67979287  1  0.081766  1.4e-05  0.955954  0.0  0.093649  3.2e-05  1.019416  0.0  0.095857  2.2e-05  1.018705  0.0  0.096091  0.091846  4.7e-05  1.020444  0.0
H  H15  1  0.87646870  0.99679693  0.32018025  1  0.082058  -1.1e-05  0.955528  0.0  0.094161  -3.2e-05  1.018674  0.0  0.096354  -2.2e-05  1.017951  0.0  0.096271  0.092342  -4.7e-05  1.01972  0.0
H  H16  1  0.75428472  0.43940662  0.41428062  1  0.136797  0.000478  0.963777  0.001  0.141929  0.000377  1.029328  0.001  0.14518  0.000271  1.026958  0.0  0.125683  0.139427  0.000464  1.031202  0.001
H  H17  1  0.24564664  0.56058209  0.58544173  1  0.136221  -0.000485  0.963898  -0.001  0.141657  -0.000379  1.0291  -0.001  0.144916  -0.000273  1.026736  0.0  0.125511  0.139156  -0.000468  1.030952  -0.001
H  H18  1  0.31173997  0.97122089  0.84556527  1  0.128141  0.000536  0.941929  0.001  0.141824  0.00044  0.993999  0.001  0.144233  0.000324  0.992502  0.0  0.128829  0.13978  0.000548  0.995614  0.001
H  H19  1  0.68748635  0.02940278  0.15342181  1  0.128753  -0.000526  0.941152  -0.001  0.142016  -0.000435  0.993742  -0.001  0.144447  -0.00032  0.992213  0.0  0.128788  0.140009  -0.000542  0.995317  -0.001
H  H20  1  0.54661693  0.78230925  0.79437993  1  0.10762  -0.000254  0.921981  0.0  0.122572  -0.000317  0.980726  0.0  0.123768  -0.000248  0.979575  0.0  0.121352  0.12145  -0.000388  0.981603  0.0
H  H21  1  0.45352226  0.21781069  0.20562935  1  0.107499  0.000251  0.921718  0.0  0.122838  0.000318  0.980113  0.0  0.124053  0.000249  0.978941  0.0  0.121381  0.121683  0.000388  0.981082  0.0
H  H22  1  0.75356528  0.83376602  0.75361338  1  0.093499  -5.5e-05  0.919215  0.0  0.110547  9.3e-05  0.976637  0.0  0.111284  6.7e-05  0.97619  0.0  0.116755  0.110055  0.00017  0.97677  0.0
H  H23  1  0.24647103  0.16665492  0.24646631  1  0.093769  4.6e-05  0.919027  0.0  0.110754  -9.8e-05  0.97661  0.0  0.111422  -7.1e-05  0.976232  0.0  0.116793  0.110295  -0.000178  0.976754  0.0
H  H24  1  0.47524562  0.74148959  0.62657265  1  0.107174  7e-06  0.95546  0.0  0.117313  1.4e-05  1.016309  0.0  0.11981  1.4e-05  1.015473  0.0  0.102441  0.115212  2e-05  1.017509  0.0
H  H25  1  0.52478687  0.25864731  0.37341816  1  0.1073  -8e-06  0.954727  0.0  0.117441  -1.5e-05  1.015544  0.0  0.119943  -1.4e-05  1.014724  0.0  0.102516  0.115331  -2e-05  1.016757  0.0
H  H26  1  0.20761116  0.25529973  0.54595573  1  0.08361  -7.3e-05  0.933102  0.0  0.096218  1.5e-05  0.999448  0.0  0.096678  7e-06  1.000301  0.0  0.11182  0.095608  2.7e-05  0.9993  0.0
H  H27  1  0.79195215  0.74454367  0.45426510  1  0.083409  7e-05  0.93299  0.0  0.095921  -1.6e-05  0.999526  0.0  0.09642  -6e-06  1.000327  0.0  0.111889  0.095318  -2.7e-05  0.999422  0.0
H  H28  1  0.09415469  0.35224239  0.40889264  1  0.110598  6.1e-05  0.92352  0.0  0.124066  2.7e-05  0.982229  0.0  0.12539  1.5e-05  0.981712  0.0  0.119398  0.122841  3.6e-05  0.98291  0.0
H  H29  1  0.90568785  0.64770684  0.59121441  1  0.110297  -6.4e-05  0.924163  0.0  0.124035  -2.8e-05  0.98258  0.0  0.125326  -1.6e-05  0.982093  0.0  0.119352  0.122839  -3.7e-05  0.98325  0.0
H  H30  1  0.55738079  0.49030441  0.59327859  1  0.116263  0.000224  0.96627  0.001  0.126513  0.000356  1.024836  0.001  0.128056  0.000255  1.024582  0.001  0.121639  0.125027  0.000441  1.025663  0.001
H  H31  1  0.44206286  0.51025635  0.40600169  1  0.115767  -0.000224  0.966449  -0.001  0.126491  -0.000355  1.024563  -0.001  0.128035  -0.000254  1.024298  -0.001  0.121754  0.125006  -0.000441  1.025399  -0.001
H  H32  1  0.35171086  0.20934255  0.89923622  1  0.10374  0.000256  1.000021  0.001  0.107784  0.000366  1.067788  0.001  0.110022  0.000265  1.066247  0.001  0.115457  0.105874  0.000484  1.069354  0.001
H  H33  1  0.64645503  0.79209105  0.09907000  1  0.104058  -0.000249  0.997863  -0.001  0.108007  -0.000358  1.065691  -0.001  0.110263  -0.000259  1.064139  -0.001  0.115719  0.106077  -0.000476  1.067293  -0.001
H  H34  1  0.95424949  0.22551760  0.31813817  1  0.106436  -2.6e-05  0.99655  0.0  0.112096  -1.5e-05  1.064271  0.0  0.115376  -1.3e-05  1.061929  0.0  0.099798  0.109523  -1.9e-05  1.066173  0.0
H  H35  1  0.04541396  0.77446085  0.68185164  1  0.105974  2.1e-05  0.996712  0.0  0.111908  1.6e-05  1.064113  0.0  0.115181  1.3e-05  1.061758  0.0  0.099519  0.109342  1.9e-05  1.066  0.0
H  H36  1  0.82533432  0.06169757  0.77366982  1  0.090901  -0.000127  0.954127  0.0  0.098067  5.2e-05  1.02299  0.0  0.1  1.9e-05  1.020308  0.0  0.134312  0.096432  9.6e-05  1.025112  0.0
H  H37  1  0.17434021  0.93834917  0.22705489  1  0.091521  0.00013  0.954557  0.0  0.098615  -4.9e-05  1.023171  0.0  0.100538  -1.6e-05  1.02054  0.0  0.134742  0.096939  -9.1e-05  1.025323  0.0
H  H38  1  0.08623086  0.24950296  0.96301350  1  0.421804  -2.3e-05  0.855021  0.0  0.392156  -4.4e-05  0.927282  0.0  0.402418  -3.5e-05  0.911815  0.0  0.293708  0.384749  -4.7e-05  0.938433  0.0
H  H39  1  0.91098760  0.74863235  0.03805560  1  0.421781  1.2e-05  0.857769  0.0  0.39236  3.1e-05  0.928115  0.0  0.402724  2.3e-05  0.912515  0.0  0.293034  0.384881  3.5e-05  0.939363  0.0
H  H40  1  0.10460420  0.08018132  0.01330170  1  0.399178  8.6e-05  0.871382  0.0  0.381057  1.5e-05  0.932962  0.0  0.389282  2.8e-05  0.921035  0.0  0.295507  0.375273  9e-06  0.941381  0.0
H  H41  1  0.90808932  0.91709176  0.98966393  1  0.402509  -7.1e-05  0.864281  0.0  0.385402  -6e-06  0.924746  0.0  0.393525  -2e-05  0.912933  0.0  0.297422  0.379646  1e-06  0.933151  0.0
C  C42  1  0.04420707  0.13064184  0.49872007  1  0.06593  -0.000894  3.759255  -0.001  0.084973  -0.000285  3.998302  0.0  0.08393  -0.00027  4.023496  0.0  -0.014963  0.085459  -0.000287  3.981091  0.0
C  C43  1  0.95542128  0.86934894  0.50127782  1  0.067362  0.00092  3.758854  0.001  0.085865  0.00029  3.998792  0.0  0.084809  0.000273  4.023989  0.0  -0.014448  0.086366  0.000296  3.981579  0.0
C  C44  1  0.94804213  0.32072522  0.66866993  1  0.156347  -0.001421  3.634494  -0.001  0.097987  0.001175  3.913264  0.001  0.113839  7.6e-05  3.925024  0.0  0.142554  0.088137  0.002065  3.904766  0.002
C  C45  1  0.05120143  0.67958352  0.33124587  1  0.156713  0.001532  3.633948  0.002  0.098716  -0.00113  3.912437  -0.001  0.114564  -3.8e-05  3.924245  0.0  0.143228  0.088878  -0.002019  3.903903  -0.002
C  C46  1  0.55220114  0.94203635  0.61844562  1  0.064456  -0.000416  3.750203  0.0  0.080777  -0.00018  3.992984  0.0  0.079331  -0.000162  4.018247  0.0  -0.014517  0.08165  -7e-05  3.975755  0.0
C  C47  1  0.44786033  0.05807914  0.38156751  1  0.064612  0.000437  3.749905  0.0  0.080884  0.000182  3.993115  0.0  0.079437  0.000163  4.01835  0.0  -0.014325  0.081781  7.3e-05  3.975923  0.0
C  C48  1  0.56299244  0.08800558  0.54703133  1  -0.117627  0.00032  3.771884  0.0  -0.138281  6.8e-05  4.022874  0.0  -0.140771  7.3e-05  4.045985  0.0  -0.097336  -0.136234  -3e-06  4.007241  0.0
C  C49  1  0.43709143  0.91210986  0.45296481  1  -0.117547  -0.000303  3.771242  0.0  -0.138402  -6.9e-05  4.022497  0.0  -0.140902  -7.3e-05  4.045613  0.0  -0.097307  -0.136369  3e-06  4.006838  0.0
C  C50  1  0.06678509  0.00306555  0.60085454  1  -0.111074  0.000765  3.76144  0.001  -0.131807  0.000174  4.014596  0.0  -0.134563  0.000186  4.037542  0.0  -0.093456  -0.129841  0.000213  3.999299  0.0
C  C51  1  0.93287450  0.99690531  0.39913699  1  -0.111873  -0.000782  3.762007  -0.001  -0.132604  -0.000172  4.015351  0.0  -0.135322  -0.000185  4.038286  0.0  -0.093722  -0.130625  -0.000212  4.000048  0.0
C  C52  1  0.78427563  0.41107832  0.50586090  1  -0.058747  0.00487  3.633853  0.005  -0.098048  0.002122  3.894168  0.002  -0.09629  0.001649  3.911095  0.002  0.004705  -0.099139  0.002531  3.882581  0.003
C  C53  1  0.21541535  0.58905399  0.49387099  1  -0.058771  -0.0049  3.632979  -0.005  -0.097891  -0.002134  3.893517  -0.002  -0.096173  -0.00166  3.910516  -0.002  0.004421  -0.09894  -0.00254  3.881858  -0.003
C  C54  1  0.42116724  0.02831587  0.83702290  1  -0.051298  0.006235  3.648389  0.006  -0.09339  0.00265  3.907127  0.003  -0.092165  0.002262  3.925885  0.003  0.005268  -0.094142  0.003124  3.894907  0.003
C  C55  1  0.57797659  0.97227501  0.16226060  1  -0.049792  -0.006224  3.646926  -0.006  -0.091614  -0.00264  3.905616  -0.003  -0.090338  -0.002258  3.924299  -0.003  0.00633  -0.092439  -0.003117  3.893418  -0.003
C  C56  1  0.61281553  0.87544994  0.74519774  1  -0.041533  0.000738  3.630272  0.001  -0.105541  0.000458  3.874753  0.001  -0.100888  0.000371  3.884546  0.001  -0.042986  -0.108345  0.000519  3.867856  0.001
C  C57  1  0.38717037  0.12476991  0.25482461  1  -0.04034  -0.000708  3.629355  -0.001  -0.104843  -0.000456  3.874361  -0.001  -0.100122  -0.000369  3.88408  -0.001  -0.042396  -0.107763  -0.000518  3.867649  -0.001
C  C58  1  0.48779970  0.85447893  0.57063392  1  -0.107364  0.000508  3.732171  0.0  -0.12205  0.000178  3.974443  0.0  -0.124903  0.000141  3.996666  0.0  -0.089067  -0.120111  0.000156  3.959833  0.0
C  C59  1  0.51224554  0.14565085  0.42938428  1  -0.1077  -0.000499  3.732329  0.0  -0.122315  -0.000174  3.974576  0.0  -0.125178  -0.000141  3.9968  0.0  -0.089095  -0.120375  -0.000153  3.959969  0.0
C  C60  1  0.08474547  0.27271038  0.49833888  1  -0.053461  0.001083  3.643942  0.001  -0.119573  0.000825  3.891814  0.001  -0.115393  0.000637  3.902254  0.001  -0.048174  -0.122049  0.000978  3.88464  0.001
C  C61  1  0.91491550  0.72723736  0.50173932  1  -0.052999  -0.001071  3.643952  -0.001  -0.118925  -0.000818  3.89263  -0.001  -0.114731  -0.000633  3.903073  -0.001  -0.048294  -0.121499  -0.000975  3.885541  -0.001
C  C62  1  0.68981757  0.43635205  0.59346274  1  -0.013923  -0.000968  3.732493  -0.001  -0.043177  0.000903  4.0022  0.001  -0.039443  0.000116  4.021478  0.0  -0.002799  -0.045517  0.001445  3.989754  0.001
C  C63  1  0.30962730  0.56408081  0.40606296  1  -0.014229  0.000948  3.731746  0.001  -0.044133  -0.000921  4.001486  -0.001  -0.040411  -0.000132  4.020775  0.0  -0.003338  -0.046468  -0.001467  3.989028  -0.001
C  C64  1  0.44345009  0.14371229  0.86506374  1  0.00997  -0.001751  3.737217  -0.002  -0.020155  0.000344  4.009167  0.0  -0.017605  -0.000436  4.03119  -0.001  -0.004415  -0.021977  0.00092  3.994825  0.001
C  C65  1  0.55513622  0.85728923  0.13385260  1  0.011007  0.001794  3.73449  0.002  -0.019256  -0.000335  4.006998  0.0  -0.016711  0.000437  4.028993  0.001  -0.004518  -0.021084  -0.000908  3.99269  -0.001
C  C66  1  0.97670784  0.12655871  0.39778034  1  -0.113118  0.001254  3.739675  0.001  -0.132987  0.000332  3.989637  0.0  -0.135965  0.000283  4.011377  0.0  -0.094018  -0.130978  0.000371  3.975013  0.0
C  C67  1  0.02286953  0.87343916  0.60222631  1  -0.113552  -0.001207  3.739452  -0.001  -0.133485  -0.000329  3.989621  0.0  -0.136473  -0.00028  4.011408  0.0  -0.09409  -0.131474  -0.000364  3.974995  0.0
C  C68  1  0.69290207  0.06950471  0.80391377  1  0.130207  -0.001789  3.682073  -0.002  0.077468  0.000563  3.952803  0.001  0.092408  -0.000554  3.965984  -0.001  0.134919  0.068141  0.001269  3.943438  0.001
C  C69  1  0.30639009  0.93094646  0.19612189  1  0.127603  0.001794  3.686497  0.002  0.075582  -0.000576  3.956218  -0.001  0.090427  0.00053  3.969393  0.001  0.134144  0.066344  -0.001271  3.946872  -0.001
S  S70  1  0.25109954  0.52026256  0.83460150  1  1.549412  -9e-06  5.849709  0.0  1.432297  -0.000134  6.387332  0.0  1.486908  -0.00012  6.352367  0.0  0.555965  1.394062  -0.000159  6.410177  0.0
S  S71  1  0.74918563  0.47995962  0.16521719  1  1.550353  -6e-06  5.847958  0.0  1.432864  0.000144  6.385814  0.0  1.487498  0.000113  6.350887  0.0  0.556003  1.394621  0.000156  6.408619  0.0
N  N72  1  0.58027756  0.98173091  0.79959388  1  -0.045633  0.000812  3.576729  0.001  0.046679  0.001116  3.792501  0.001  0.032733  0.000648  3.81781  0.001  -0.240483  0.055602  0.001429  3.775459  0.002
N  N73  1  0.41930911  0.01855419  0.20035664  1  -0.046661  -0.000795  3.579176  -0.001  0.045757  -0.001094  3.794865  -0.001  0.031833  -0.000626  3.820163  -0.001  -0.240551  0.05471  -0.001406  3.777823  -0.002
N  N74  1  0.79360682  0.37999226  0.69394233  1  -0.352997  0.080268  3.335413  0.102  -0.315305  0.054558  3.654765  0.072  -0.345409  0.044865  3.674254  0.062  -0.379341  -0.295787  0.060391  3.641916  0.078
N  N75  1  0.20557236  0.62055329  0.30571526  1  -0.352183  -0.080392  3.333692  -0.102  -0.314068  -0.054518  3.652338  -0.073  -0.344208  -0.044803  3.671903  -0.062  -0.379302  -0.29451  -0.060377  3.639399  -0.078
N  N76  1  0.61294850  0.16847411  0.84368989  1  -0.355869  0.084197  3.353109  0.107  -0.320702  0.057802  3.670015  0.077  -0.35132  0.047579  3.692219  0.067  -0.373718  -0.300858  0.063667  3.655315  0.082
N  N77  1  0.38576144  0.83239236  0.15569145  1  -0.356915  -0.083593  3.352684  -0.106  -0.321387  -0.057392  3.668832  -0.077  -0.351949  -0.047243  3.690966  -0.066  -0.373743  -0.301548  -0.063221  3.65413  -0.082
N  N78  1  0.94674421  0.33797589  0.55515364  1  -0.051521  0.00266  3.562371  0.003  0.040161  0.002146  3.781042  0.003  0.025483  0.001505  3.807187  0.002  -0.238374  0.049915  0.002639  3.762288  0.003
N  N79  1  0.05278749  0.66206135  0.44481135  1  -0.051997  -0.002625  3.562125  -0.003  0.038614  -0.002123  3.782074  -0.003  0.023859  -0.001484  3.808273  -0.002  -0.239017  0.048427  -0.002609  3.763298  -0.003
O  O80  1  0.59756885  0.29397697  0.00670729  1  -0.820046  0.068526  1.991541  0.091  -0.790143  0.046765  2.222899  0.066  -0.822622  0.036947  2.189604  0.054  -0.590336  -0.766871  0.053501  2.246126  0.073
O  O81  1  0.40222131  0.70632711  0.99303279  1  -0.820869  -0.067796  1.991832  -0.09  -0.790661  -0.046342  2.223994  -0.065  -0.823035  -0.036619  2.190384  -0.054  -0.590254  -0.76742  -0.05303  2.247295  -0.072
O  O82  1  0.78771362  0.51292542  0.85745899  1  -0.816188  0.06197  1.948053  0.082  -0.783259  0.043794  2.163786  0.062  -0.814045  0.034776  2.128745  0.051  -0.589684  -0.761488  0.04993  2.188173  0.068
O  O83  1  0.21286507  0.48661793  0.14283033  1  -0.814168  -0.062827  1.948024  -0.083  -0.781997  -0.044125  2.163449  -0.062  -0.812921  -0.03497  2.128824  -0.051  -0.589879  -0.760115  -0.050353  2.187513  -0.068
O  O84  1  0.22780791  0.66677502  0.84181343  1  -0.72189  -0.002386  1.940022  -0.003  -0.665252  -0.00098  2.174965  -0.002  -0.686017  -0.00045  2.156321  -0.001  -0.366529  -0.650131  -0.001684  2.187457  -0.003
O  O85  1  0.77247960  0.33371561  0.15746771  1  -0.722203  0.002496  1.939707  0.004  -0.66528  0.001006  2.174281  0.002  -0.686077  0.000465  2.155617  0.001  -0.366797  -0.650114  0.001743  2.186763  0.003
O  O86  1  0.41112877  0.49482771  0.77290313  1  -0.744652  -0.001027  1.95519  0.0  -0.706636  -0.001095  2.230239  -0.001  -0.727937  -0.001133  2.209839  -0.001  -0.370349  -0.690669  -0.000925  2.243949  0.0
O  O87  1  0.58910038  0.50524608  0.22683643  1  -0.745268  0.001057  1.953665  0.0  -0.707136  0.001111  2.227926  0.001  -0.728356  0.001147  2.207487  0.001  -0.370258  -0.691208  0.000963  2.241609  0.0
O  O88  1  0.26128166  0.40339064  0.95898408  1  -0.776278  -0.001455  1.936839  -0.002  -0.701012  -0.000735  2.157242  -0.001  -0.723968  -0.000443  2.138401  -0.001  -0.366277  -0.684213  -0.001101  2.169737  -0.001
O  O89  1  0.73921824  0.59727113  0.04089589  1  -0.777391  0.001504  1.934653  0.002  -0.701494  0.000744  2.154579  0.001  -0.724659  0.000455  2.135873  0.001  -0.366178  -0.684616  0.001132  2.167031  0.001
O  O90  1  0.09698296  0.50894762  0.77317338  1  -0.735545  0.000792  1.980509  0.001  -0.676771  0.000392  2.226245  0.001  -0.69972  0.000144  2.210386  0.0  -0.359068  -0.659685  0.000743  2.23647  0.001
O  O91  1  0.90333195  0.49074321  0.22688991  1  -0.734668  -0.000688  1.980532  -0.001  -0.675487  -0.000345  2.226003  -0.001  -0.698414  -0.000129  2.210142  0.0  -0.358164  -0.658374  -0.000662  2.236153  -0.001
O  O92  1  0.03794749  0.16883210  0.95585616  1  -0.817693  -0.000865  1.747998  0.0  -0.784516  -0.00097  1.912237  0.0  -0.798658  -0.000924  1.881148  0.0  -0.595342  -0.774271  -0.000943  1.934363  0.0
O  O93  1  0.96522580  0.82474345  0.04834554  1  -0.819665  0.000947  1.755675  0.0  -0.787031  0.001039  1.91952  0.0  -0.801338  0.001  1.88845  0.0  -0.593389  -0.776586  0.001005  1.941644  0.0
