# generated using pymatgen
data_CdH8C13SN5O3
_symmetry_space_group_name_H-M   'P 1'
_cell_length_a   6.83416223
_cell_length_b   10.64210591
_cell_length_c   20.30730000
_cell_angle_alpha   90.00000000
_cell_angle_beta   90.00000000
_cell_angle_gamma   100.52287271
_symmetry_Int_Tables_number   1
_chemical_formula_structural   CdH8C13SN5O3
_chemical_formula_sum   'Cd4 H32 C52 S4 N20 O12'
_cell_volume   1452.10827247
_cell_formula_units_Z   4
loop_
 _symmetry_equiv_pos_site_id
 _symmetry_equiv_pos_as_xyz
  1  'x, y, z'
loop_
 _atom_site_type_symbol
 _atom_site_label
 _atom_site_symmetry_multiplicity
 _atom_site_fract_x
 _atom_site_fract_y
 _atom_site_fract_z
 _atom_site_occupancy
 _atom_site_hle17_bader_spin_density
 _atom_site_hle17_ddec_charge
 _atom_site_hle17_ddec_spin_density
 _atom_site_hle17_ddec_sum_bond_order
 _atom_site_hle17_magmom
 _atom_site_hse06_10hf_bader_spin_density
 _atom_site_hse06_10hf_ddec_charge
 _atom_site_hse06_10hf_ddec_spin_density
 _atom_site_hse06_10hf_ddec_sum_bond_order
 _atom_site_hse06_10hf_magmom
 _atom_site_hse06_bader_spin_density
 _atom_site_hse06_ddec_charge
 _atom_site_hse06_ddec_spin_density
 _atom_site_hse06_ddec_sum_bond_order
 _atom_site_hse06_magmom
 _atom_site_pbe_bader_charge
 _atom_site_pbe_bader_spin_density
 _atom_site_pbe_cm5_charge
 _atom_site_pbe_ddec_charge
 _atom_site_pbe_ddec_spin_density
 _atom_site_pbe_ddec_sum_bond_order
 _atom_site_pbe_magmom
Cd  Cd0  1  0.22567481  0.27655019  0.90089623  1  0  0.991121  0  1.880759  0  0  0.797093  0  2.336533  0  0  0.849516  0  2.293487  0  1.223605  0  0.76142  0.76031  0  2.366117  0
Cd  Cd1  1  0.27431171  0.22344752  0.40089524  1  0  0.991141  0  1.8807  0  0  0.797114  0  2.336472  0  0  0.849538  0  2.293429  0  1.22359  0  0.761447  0.760331  0  2.366055  0
Cd  Cd2  1  0.77432766  0.72345097  0.09910426  1  0  0.991154  0  1.880784  0  0  0.797138  0  2.336561  0  0  0.849561  0  2.293514  0  1.223618  0  0.761438  0.760356  0  2.366147  0
Cd  Cd3  1  0.72568144  0.77655173  0.59910476  1  0  0.991106  0  1.880714  0  0  0.797068  0  2.336514  0  0  0.849491  0  2.293471  0  1.223595  0  0.761435  0.760286  0  2.366096  0
H  H4  1  0.57071709  0.10295774  0.11520340  1  0  0.116348  0  0.978339  0  0  0.119386  0  1.048712  0  0  0.123557  0  1.046263  0  0.152645  0  0.104615  0.116362  0  1.050483  0
H  H5  1  0.92927614  0.39703902  0.61520438  1  0  0.116296  0  0.978313  0  0  0.119357  0  1.048669  0  0  0.123523  0  1.046226  0  0.152629  0  0.10459  0.116333  0  1.050439  0
H  H6  1  0.42927459  0.89704151  0.88479660  1  0  0.11634  0  0.978337  0  0  0.119344  0  1.048763  0  0  0.123504  0  1.046324  0  0.152597  0  0.104618  0.11632  0  1.050531  0
H  H7  1  0.07072323  0.60295641  0.38479759  1  0  0.116328  0  0.978341  0  0  0.119359  0  1.048734  0  0  0.123518  0  1.046299  0  0.1526  0  0.104602  0.116334  0  1.050506  0
H  H8  1  0.11869167  0.74871780  0.73453733  1  0  0.114182  0  0.946832  0  0  0.125239  0  1.004879  0  0  0.127596  0  1.003333  0  0.165036  0  0.112824  0.123517  0  1.00621  0
H  H9  1  0.38131082  0.75128108  0.23453684  1  0  0.114168  0  0.946866  0  0  0.125214  0  1.004933  0  0  0.12757  0  1.003388  0  0.165013  0  0.112827  0.123491  0  1.006265  0
H  H10  1  0.88130468  0.25128241  0.26546168  1  0  0.1142  0  0.946835  0  0  0.125256  0  1.004888  0  0  0.127609  0  1.003343  0  0.165051  0  0.112865  0.123533  0  1.00622  0
H  H11  1  0.61868818  0.24871817  0.76546316  1  0  0.114168  0  0.946872  0  0  0.125212  0  1.004935  0  0  0.127568  0  1.00339  0  0.16501  0  0.112824  0.123489  0  1.006267  0
H  H12  1  0.25161562  0.36861062  0.74976929  1  0  0.088433  0  0.940962  0  0  0.0983  0  1.00266  0  0  0.100652  0  1.000634  0  0.120268  0  0.119772  0.096449  0  1.00446  0
H  H13  1  0.24837913  0.13138519  0.24976880  1  0  0.088438  0  0.941012  0  0  0.098329  0  1.002669  0  0  0.100682  0  1.000641  0  0.120639  0  0.119764  0.096476  0  1.004474  0
H  H14  1  0.74838684  0.63139055  0.25023071  1  0  0.088409  0  0.940998  0  0  0.098291  0  1.002674  0  0  0.100643  0  1.000649  0  0.120237  0  0.119772  0.096441  0  1.004473  0
H  H15  1  0.75162426  0.86861407  0.75022972  1  0  0.088468  0  0.940987  0  0  0.098368  0  1.00264  0  0  0.100721  0  1.000613  0  0.12065  0  0.119767  0.096515  0  1.004444  0
H  H16  1  0.31640883  0.43983980  0.15115500  1  0  0.122714  0  0.951566  0  0  0.12797  0  1.018294  0  0  0.13167  0  1.016246  0  0.105658  0  0.109166  0.125028  0  1.020518  0
H  H17  1  0.18359195  0.06016174  0.65115451  1  0  0.122671  0  0.951593  0  0  0.127912  0  1.018342  0  0  0.131612  0  1.016297  0  0.105677  0  0.109157  0.12497  0  1.020566  0
H  H18  1  0.68358806  0.56016232  0.84884401  1  0  0.122704  0  0.951616  0  0  0.127955  0  1.018378  0  0  0.131656  0  1.016331  0  0.105725  0  0.109181  0.125013  0  1.020602  0
H  H19  1  0.81641464  0.93983847  0.34884500  1  0  0.122681  0  0.951545  0  0  0.127911  0  1.018336  0  0  0.131611  0  1.01629  0  0.105703  0  0.109174  0.124969  0  1.020559  0
H  H20  1  0.03262740  0.73632953  0.85311046  1  0  0.114746  0  0.948918  0  0  0.124779  0  1.00595  0  0  0.128011  0  1.005032  0  0.122997  0  0.111412  0.122088  0  1.007484  0
H  H21  1  0.46737682  0.76367030  0.35311046  1  0  0.114723  0  0.948909  0  0  0.124758  0  1.005942  0  0  0.127989  0  1.005024  0  0.123027  0  0.111405  0.122065  0  1.007478  0
H  H22  1  0.96736867  0.26366972  0.14688806  1  0  0.11476  0  0.948872  0  0  0.124798  0  1.005898  0  0  0.12803  0  1.004979  0  0.123014  0  0.111418  0.122107  0  1.007435  0
H  H23  1  0.53262619  0.23633277  0.64688905  1  0  0.114722  0  0.948895  0  0  0.124761  0  1.005924  0  0  0.127993  0  1.005006  0  0.123008  0  0.111401  0.122068  0  1.00746  0
H  H24  1  0.51619813  0.28326138  0.19068906  1  0  0.096521  0  0.966648  0  0  0.107171  0  1.027433  0  0  0.109368  0  1.026795  0  0.114427  0  0.10575  0.10553  0  1.028022  0
H  H25  1  0.98379977  0.21673634  0.69068955  1  0  0.096604  0  0.966554  0  0  0.107169  0  1.027422  0  0  0.109363  0  1.026788  0  0.11457  0  0.105766  0.105537  0  1.028001  0
H  H26  1  0.48379556  0.71673979  0.80931045  1  0  0.096559  0  0.966564  0  0  0.107219  0  1.027343  0  0  0.109415  0  1.026704  0  0.11474  0  0.105767  0.105565  0  1.027946  0
H  H27  1  0.01620573  0.78326005  0.30931143  1  0  0.096588  0  0.966524  0  0  0.10719  0  1.027369  0  0  0.109386  0  1.026733  0  0.114778  0  0.105767  0.10555  0  1.027958  0
H  H28  1  0.41802241  0.09224010  0.00272414  1  0  0.079433  0  0.943645  0  0  0.088582  0  1.00845  0  0  0.090464  0  1.006791  0  0.108216  0  0.111937  0.086988  0  1.010166  0
H  H29  1  0.08197343  0.40775952  0.50272562  1  0  0.079449  0  0.943623  0  0  0.088612  0  1.008405  0  0  0.090494  0  1.006744  0  0.10823  0  0.111973  0.087018  0  1.010121  0
H  H30  1  0.58197421  0.90776106  0.99727536  1  0  0.079436  0  0.94365  0  0  0.088594  0  1.008437  0  0  0.090475  0  1.00678  0  0.108186  0  0.111952  0.087001  0  1.010152  0
H  H31  1  0.91802584  0.59224069  0.49727733  1  0  0.079368  0  0.943671  0  0  0.088543  0  1.008461  0  0  0.090423  0  1.006803  0  0.108183  0  0.111926  0.086949  0  1.010177  0
H  H32  1  0.22672778  0.56018431  0.68011109  1  0  0.098309  0  0.986574  0  0  0.10369  0  1.055808  0  0  0.106252  0  1.056391  0  0.112555  0  0.098215  0.101861  0  1.055485  0
H  H33  1  0.27327150  0.93981362  0.18011109  1  0  0.098266  0  0.986578  0  0  0.103647  0  1.055825  0  0  0.106209  0  1.056409  0  0.112595  0  0.0982  0.101826  0  1.055479  0
H  H34  1  0.77327322  0.43981686  0.31988792  1  0  0.098244  0  0.986569  0  0  0.103627  0  1.055828  0  0  0.106188  0  1.056411  0  0.112581  0  0.098196  0.101804  0  1.055485  0
H  H35  1  0.72672869  0.06018468  0.81988792  1  0  0.098282  0  0.986593  0  0  0.103655  0  1.055844  0  0  0.106216  0  1.056428  0  0.112575  0  0.098209  0.101828  0  1.055513  0
C  C36  1  0.02892832  0.52279205  0.93377111  1  0  0.139907  0  3.686222  0  0  0.13022  0  3.935527  0  0  0.135081  0  3.952311  0  0.556806  0  0.14151  0.127132  0  3.924237  0
C  C37  1  0.47107324  0.97720874  0.43377160  1  0  0.139953  0  3.686169  0  0  0.130204  0  3.935491  0  0  0.135064  0  3.952275  0  0.556957  0  0.141547  0.127114  0  3.924202  0
C  C38  1  0.97106802  0.47720816  0.06622791  1  0  0.139869  0  3.68623  0  0  0.130154  0  3.935578  0  0  0.135015  0  3.952362  0  0.557077  0  0.141528  0.127069  0  3.924291  0
C  C39  1  0.52893589  0.02279529  0.56622742  1  0  0.139926  0  3.686199  0  0  0.1302  0  3.935503  0  0  0.135062  0  3.952287  0  0.557302  0  0.141569  0.127114  0  3.924217  0
C  C40  1  0.11660951  0.42588030  0.03079976  1  0  0.147067  0  3.697933  0  0  0.135049  0  3.949834  0  0  0.1402  0  3.966288  0  0.548749  0  0.142881  0.130673  0  3.939174  0
C  C41  1  0.38338688  0.07412124  0.53080075  1  0  0.146979  0  3.698001  0  0  0.134989  0  3.949857  0  0  0.14014  0  3.966309  0  0.548776  0  0.142883  0.130613  0  3.939198  0
C  C42  1  0.88338391  0.57411991  0.96919876  1  0  0.147016  0  3.697945  0  0  0.135014  0  3.949822  0  0  0.140165  0  3.966273  0  0.548922  0  0.142908  0.130643  0  3.939158  0
C  C43  1  0.61662026  0.92588088  0.46919975  1  0  0.146942  0  3.697963  0  0  0.134975  0  3.949836  0  0  0.140127  0  3.966287  0  0.548943  0  0.142871  0.130603  0  3.939174  0
C  C44  1  0.48112968  0.17307444  0.10033289  1  0  -0.110117  0  3.696937  0  0  -0.123154  0  3.951998  0  0  -0.130039  0  3.972946  0  -0.036803  0  -0.080317  -0.118442  0  3.938192  0
C  C45  1  0.01886562  0.32692327  0.60033239  1  0  -0.110135  0  3.696944  0  0  -0.123186  0  3.951984  0  0  -0.130068  0  3.972935  0  -0.036721  0  -0.080305  -0.118475  0  3.938182  0
C  C46  1  0.51886374  0.82692577  0.89966761  1  0  -0.110142  0  3.697028  0  0  -0.123149  0  3.95209  0  0  -0.130024  0  3.973046  0  -0.036815  0  -0.080337  -0.118441  0  3.938292  0
C  C47  1  0.98113604  0.67307502  0.39966908  1  0  -0.110246  0  3.696953  0  0  -0.123259  0  3.952006  0  0  -0.130135  0  3.972961  0  -0.036801  0  -0.080351  -0.118547  0  3.938201  0
C  C48  1  0.12302701  0.66139209  0.76187726  1  0  0.008922  0  3.677539  0  0  -0.013026  0  3.929786  0  0  -0.009587  0  3.94705  0  -0.051403  0  -0.06196  -0.01502  0  3.918121  0
C  C49  1  0.37697429  0.83860774  0.26187627  1  0  0.008893  0  3.677525  0  0  -0.013054  0  3.929781  0  0  -0.009614  0  3.947043  0  -0.051394  0  -0.06198  -0.015049  0  3.918118  0
C  C50  1  0.87696788  0.33860812  0.23812274  1  0  0.008905  0  3.677538  0  0  -0.013057  0  3.929819  0  0  -0.009618  0  3.947086  0  -0.051403  0  -0.061994  -0.015053  0  3.918159  0
C  C51  1  0.62302937  0.16139247  0.73812422  1  0  0.008829  0  3.677636  0  0  -0.013107  0  3.929863  0  0  -0.009668  0  3.947126  0  -0.051481  0  -0.061999  -0.015102  0  3.918201  0
C  C52  1  0.07938457  0.54100935  0.86280451  1  0  0.176988  0  3.75313  0  0  0.172603  0  3.993811  0  0  0.178035  0  4.015945  0  0.48849  0  0.12075  0.169041  0  3.978549  0
C  C53  1  0.42061407  0.95899144  0.36280402  1  0  0.176864  0  3.753238  0  0  0.172592  0  3.993796  0  0  0.178024  0  4.015928  0  0.488357  0  0.120694  0.16903  0  3.978534  0
C  C54  1  0.92061205  0.45899181  0.13719549  1  0  0.176958  0  3.753276  0  0  0.172595  0  3.993922  0  0  0.178026  0  4.016056  0  0.488409  0  0.120686  0.16903  0  3.978664  0
C  C55  1  0.57939187  0.04101164  0.63719549  1  0  0.176855  0  3.753232  0  0  0.172547  0  3.993824  0  0  0.177978  0  4.015959  0  0.488432  0  0.120651  0.168982  0  3.978564  0
C  C56  1  0.19722416  0.45052780  0.77009154  1  0  0.147716  0  3.672159  0  0  0.11607  0  3.922112  0  0  0.123265  0  3.939648  0  0.455053  0  0.055236  0.11143  0  3.910373  0
C  C57  1  0.30277288  0.04947087  0.27009154  1  0  0.147708  0  3.672227  0  0  0.11607  0  3.922163  0  0  0.123265  0  3.939699  0  0.455121  0  0.05525  0.111429  0  3.910425  0
C  C58  1  0.80277858  0.54947432  0.22990747  1  0  0.147693  0  3.6722  0  0  0.116047  0  3.922155  0  0  0.123243  0  3.939691  0  0.455086  0  0.055209  0.111406  0  3.910417  0
C  C59  1  0.69722987  0.95053125  0.72990747  1  0  0.147678  0  3.672243  0  0  0.115997  0  3.92221  0  0  0.12319  0  3.939748  0  0.454676  0  0.05525  0.111357  0  3.910468  0
C  C60  1  0.33697167  0.36005772  0.11995932  1  0  -0.12726  0  3.68036  0  0  -0.14743  0  3.930693  0  0  -0.153377  0  3.950573  0  -0.000764  0  -0.075403  -0.14383  0  3.918227  0
C  C61  1  0.16302591  0.13994286  0.61995932  1  0  -0.127152  0  3.680385  0  0  -0.147332  0  3.930724  0  0  -0.153275  0  3.950589  0  -0.000766  0  -0.075379  -0.143734  0  3.918263  0
C  C62  1  0.66302229  0.63994439  0.88003969  1  0  -0.127232  0  3.680295  0  0  -0.147428  0  3.930653  0  0  -0.15337  0  3.950521  0  -0.000804  0  -0.075409  -0.143831  0  3.918192  0
C  C63  1  0.83697867  0.86005544  0.38004068  1  0  -0.12715  0  3.680297  0  0  -0.147331  0  3.930684  0  0  -0.153271  0  3.950549  0  -0.000791  0  -0.075385  -0.143738  0  3.91823  0
C  C64  1  0.07191975  0.65375384  0.82840062  1  0  -0.130064  0  3.700225  0  0  -0.149725  0  3.95082  0  0  -0.155829  0  3.970854  0  -0.029127  0  -0.071323  -0.145683  0  3.93793  0
C  C65  1  0.42808301  0.84624599  0.32840013  1  0  -0.129973  0  3.700123  0  0  -0.149656  0  3.950674  0  0  -0.155761  0  3.970709  0  -0.029147  0  -0.071296  -0.145615  0  3.937786  0
C  C66  1  0.92807687  0.34624732  0.17159839  1  0  -0.130062  0  3.700261  0  0  -0.149709  0  3.950826  0  0  -0.155814  0  3.970858  0  -0.029104  0  -0.071302  -0.145672  0  3.937944  0
C  C67  1  0.57192266  0.15375613  0.67159938  1  0  -0.129946  0  3.700144  0  0  -0.149626  0  3.950686  0  0  -0.155731  0  3.970721  0  -0.029124  0  -0.071262  -0.145586  0  3.9378  0
C  C68  1  0.25038409  0.34309721  0.05752020  1  0  0.178589  0  3.75124  0  0  0.174927  0  3.990924  0  0  0.180609  0  4.011811  0  0.531227  0  0.117982  0.171862  0  3.976431  0
C  C69  1  0.24961321  0.15690241  0.55752020  1  0  0.178573  0  3.751271  0  0  0.174934  0  3.990919  0  0  0.180618  0  4.011806  0  0.531882  0  0.117995  0.171869  0  3.976426  0
C  C70  1  0.74961079  0.65690299  0.94247980  1  0  0.178538  0  3.751177  0  0  0.174862  0  3.990884  0  0  0.180544  0  4.011772  0  0.531565  0  0.117937  0.171796  0  3.976388  0
C  C71  1  0.75039191  0.84309780  0.44247980  1  0  0.178531  0  3.751269  0  0  0.17483  0  3.991003  0  0  0.180512  0  4.011892  0  0.531526  0  0.117914  0.171765  0  3.976506  0
C  C72  1  0.45189113  0.27263931  0.14158702  1  0  0.0002  0  3.705192  0  0  -0.019219  0  3.953356  0  0  -0.016645  0  3.973134  0  -0.060422  0  -0.066675  -0.021145  0  3.940167  0
C  C73  1  0.04810563  0.22735840  0.64158702  1  0  0.000124  0  3.705195  0  0  -0.019216  0  3.953383  0  0  -0.016641  0  3.973162  0  -0.060617  0  -0.066704  -0.02115  0  3.940189  0
C  C74  1  0.54810083  0.72736089  0.85841298  1  0  0.000214  0  3.705145  0  0  -0.019203  0  3.953295  0  0  -0.016628  0  3.973074  0  -0.060682  0  -0.066677  -0.02112  0  3.94011  0
C  C75  1  0.95189895  0.77263990  0.35841446  1  0  0.000231  0  3.70519  0  0  -0.019129  0  3.953334  0  0  -0.016554  0  3.973112  0  -0.060665  0  -0.066642  -0.021057  0  3.940145  0
C  C76  1  0.39686427  0.16643016  0.03757565  1  0  0.140476  0  3.713088  0  0  0.106955  0  3.967594  0  0  0.113911  0  3.986301  0  0.483443  0  0.047588  0.102022  0  3.95584  0
C  C77  1  0.10312984  0.33356851  0.53757614  1  0  0.140558  0  3.712961  0  0  0.107034  0  3.967499  0  0  0.113988  0  3.986207  0  0.483329  0  0.047582  0.102101  0  3.955746  0
C  C78  1  0.60312741  0.83356910  0.96242435  1  0  0.140482  0  3.713044  0  0  0.106958  0  3.967548  0  0  0.113911  0  3.986254  0  0.48333  0  0.047564  0.102026  0  3.955789  0
C  C79  1  0.89687117  0.66643265  0.46242583  1  0  0.140626  0  3.71295  0  0  0.107047  0  3.967522  0  0  0.114004  0  3.986225  0  0.483362  0  0.047606  0.102113  0  3.955769  0
C  C80  1  0.18422416  0.55750537  0.73185062  1  0  -0.093458  0  3.690175  0  0  -0.108592  0  3.945032  0  0  -0.115066  0  3.966221  0  0.023557  0  -0.0766  -0.104479  0  3.930798  0
C  C81  1  0.31577393  0.94249350  0.23185062  1  0  -0.093387  0  3.690185  0  0  -0.108523  0  3.945025  0  0  -0.114997  0  3.966217  0  0.023483  0  -0.076562  -0.104407  0  3.930792  0
C  C82  1  0.81577511  0.44249483  0.26814840  1  0  -0.093327  0  3.690118  0  0  -0.10848  0  3.945005  0  0  -0.114954  0  3.966192  0  0.023548  0  -0.076563  -0.104366  0  3.930777  0
C  C83  1  0.68422881  0.05750862  0.76814938  1  0  -0.093378  0  3.690237  0  0  -0.108498  0  3.945073  0  0  -0.114972  0  3.966264  0  0.023529  0  -0.07658  -0.104385  0  3.930839  0
C  C84  1  0.68402468  0.24850217  0.91096551  1  0  0.304529  0  3.993521  0  0  0.282446  0  4.302786  0  0  0.305396  0  4.317409  0  0.548502  0  0.142861  0.266546  0  4.292786  0
C  C85  1  0.81596179  0.25149650  0.41096551  1  0  0.30453  0  3.993325  0  0  0.282448  0  4.302594  0  0  0.305397  0  4.317223  0  0.547911  0  0.142864  0.266547  0  4.292594  0
C  C86  1  0.31597106  0.75148561  0.08903744  1  0  0.304605  0  3.993502  0  0  0.282514  0  4.302779  0  0  0.305466  0  4.317411  0  0.547878  0  0.142887  0.266612  0  4.292776  0
C  C87  1  0.18403126  0.74850753  0.58903498  1  0  0.304541  0  3.993487  0  0  0.282451  0  4.302769  0  0  0.305401  0  4.317395  0  0.548024  0  0.142883  0.26655  0  4.292767  0
S  S88  1  0.83842372  0.16286908  0.94013335  1  0  -0.331058  0  2.134603  0  0  -0.303082  0  2.450704  0  0  -0.321391  0  2.44538  0  0.080357  0  -0.138974  -0.289737  0  2.454095  0
S  S89  1  0.66156979  0.33712863  0.44013089  1  0  -0.331055  0  2.134636  0  0  -0.303083  0  2.450729  0  0  -0.321386  0  2.445405  0  0.080409  0  -0.139007  -0.289737  0  2.454116  0
S  S90  1  0.16158519  0.83711870  0.05986862  1  0  -0.331035  0  2.134697  0  0  -0.303056  0  2.450805  0  0  -0.321362  0  2.445483  0  0.080701  0  -0.138959  -0.289728  0  2.454227  0
S  S91  1  0.33842910  0.66287540  0.55986813  1  0  -0.331062  0  2.134613  0  0  -0.303089  0  2.450717  0  0  -0.321394  0  2.445391  0  0.080445  0  -0.138998  -0.289748  0  2.454117  0
N  N92  1  0.13744898  0.45022770  0.96631901  1  0  -0.327373  0  3.240473  0  0  -0.275813  0  3.500278  0  0  -0.289037  0  3.516407  0  -1.206457  0  -0.302577  -0.266954  0  3.489359  0
N  N93  1  0.36255152  0.04977288  0.46631950  1  0  -0.32733  0  3.240453  0  0  -0.275773  0  3.500263  0  0  -0.288994  0  3.516387  0  -1.206472  0  -0.302586  -0.266914  0  3.489345  0
N  N94  1  0.86254709  0.54977155  0.03368001  1  0  -0.327325  0  3.240428  0  0  -0.275759  0  3.500227  0  0  -0.288981  0  3.516356  0  -1.206431  0  -0.302584  -0.266903  0  3.48931  0
N  N95  1  0.63745469  0.95023115  0.53368001  1  0  -0.327267  0  3.240424  0  0  -0.275709  0  3.500201  0  0  -0.288929  0  3.516326  0  -1.206665  0  -0.302582  -0.266853  0  3.489285  0
N  N96  1  0.14596720  0.44237345  0.83380558  1  0  -0.345172  0  3.224841  0  0  -0.271676  0  3.476731  0  0  -0.291494  0  3.497061  0  -1.226241  0  -0.320524  -0.257831  0  3.462688  0
N  N97  1  0.35402864  0.05762617  0.33380459  1  0  -0.345109  0  3.224919  0  0  -0.271696  0  3.476839  0  0  -0.291513  0  3.497168  0  -1.226587  0  -0.320489  -0.257851  0  3.462795  0
N  N98  1  0.85403261  0.55762866  0.16619442  1  0  -0.345169  0  3.224902  0  0  -0.271689  0  3.476801  0  0  -0.291506  0  3.49713  0  -1.226321  0  -0.320496  -0.257843  0  3.462759  0
N  N99  1  0.64597876  0.94237690  0.66619393  1  0  -0.345103  0  3.224892  0  0  -0.271644  0  3.476792  0  0  -0.291462  0  3.497124  0  -1.226185  0  -0.32047  -0.257799  0  3.462748  0
N  N100  1  0.28546246  0.24956782  0.01646895  1  0  -0.348329  0  3.228769  0  0  -0.27538  0  3.476093  0  0  -0.294784  0  3.496326  0  -1.215979  0  -0.31987  -0.261985  0  3.461668  0
N  N101  1  0.21453138  0.25042989  0.51646945  1  0  -0.348418  0  3.228675  0  0  -0.275493  0  3.476027  0  0  -0.294897  0  3.496258  0  -1.216624  0  -0.319927  -0.262099  0  3.461605  0
N  N102  1  0.71453389  0.75043239  0.98353055  1  0  -0.348364  0  3.228696  0  0  -0.275403  0  3.476023  0  0  -0.294806  0  3.496256  0  -1.216297  0  -0.319861  -0.262006  0  3.461597  0
N  N103  1  0.78546789  0.74957031  0.48353154  1  0  -0.348399  0  3.228778  0  0  -0.275412  0  3.476129  0  0  -0.294816  0  3.496361  0  -1.216359  0  -0.319886  -0.262018  0  3.461705  0
N  N104  1  0.56651421  0.30857503  0.89043644  1  0  -0.541051  0  2.808235  0  0  -0.488664  0  3.085025  0  0  -0.510111  0  3.090364  0  -1.293706  0  -0.403914  -0.474284  0  3.08227  0
N  N105  1  0.93347875  0.19142077  0.39043546  1  0  -0.54106  0  2.80804  0  0  -0.488658  0  3.084799  0  0  -0.51012  0  3.090179  0  -1.293144  0  -0.403899  -0.474276  0  3.082043  0
N  N106  1  0.43349160  0.69140702  0.10956651  1  0  -0.541167  0  2.808166  0  0  -0.488771  0  3.084942  0  0  -0.510221  0  3.090291  0  -1.293461  0  -0.403953  -0.474387  0  3.082183  0
N  N107  1  0.06651575  0.80858326  0.60956356  1  0  -0.541045  0  2.808222  0  0  -0.488641  0  3.084988  0  0  -0.510098  0  3.090357  0  -1.293337  0  -0.403913  -0.474259  0  3.082231  0
N  N108  1  0.18951689  0.05075729  0.81924825  1  0  0.687768  0  4.141252  0  0  0.718136  0  4.436651  0  0  0.745001  0  4.443888  0  0.829817  0  0.092547  0.69882  0  4.431307  0
N  N109  1  0.31048014  0.44924138  0.31924776  1  0  0.6878  0  4.141294  0  0  0.718098  0  4.436778  0  0  0.744962  0  4.444013  0  0.829791  0  0.092508  0.698783  0  4.431435  0
N  N110  1  0.81048238  0.94924292  0.18075273  1  0  0.687788  0  4.141241  0  0  0.718258  0  4.436511  0  0  0.745139  0  4.443744  0  0.829829  0  0.092577  0.698942  0  4.431167  0
N  N111  1  0.68951593  0.55075787  0.68075273  1  0  0.687726  0  4.14107  0  0  0.718182  0  4.436367  0  0  0.74506  0  4.443599  0  0.82986  0  0.092522  0.698867  0  4.431023  0
O  O112  1  0.22918149  0.04098870  0.88048485  1  0  -0.481945  0  1.75266  0  0  -0.460805  0  1.969234  0  0  -0.47778  0  1.962262  0  -0.56366  0  -0.203058  -0.448029  0  1.973462  0
O  O113  1  0.27081381  0.45900902  0.38048387  1  0  -0.481939  0  1.752675  0  0  -0.460768  0  1.969257  0  0  -0.477742  0  1.962285  0  -0.563636  0  -0.203012  -0.447993  0  1.973485  0
O  O114  1  0.77081870  0.95900960  0.11951564  1  0  -0.481892  0  1.752623  0  0  -0.460804  0  1.969189  0  0  -0.477788  0  1.96222  0  -0.563632  0  -0.203023  -0.448028  0  1.973417  0
O  O115  1  0.72918546  0.54099119  0.61951663  1  0  -0.481912  0  1.75261  0  0  -0.460814  0  1.969177  0  0  -0.477794  0  1.962205  0  -0.563662  0  -0.203041  -0.448039  0  1.973405  0
O  O116  1  0.17160818  0.16149760  0.79738419  1  0  -0.495798  0  1.810623  0  0  -0.47382  0  2.048704  0  0  -0.493608  0  2.044188  0  -0.574702  0  -0.203532  -0.458994  0  2.051519  0
O  O117  1  0.32839232  0.33850298  0.29738419  1  0  -0.495825  0  1.810647  0  0  -0.473828  0  2.048757  0  0  -0.493615  0  2.044238  0  -0.574722  0  -0.203537  -0.459002  0  2.05157  0
O  O118  1  0.82839548  0.83850261  0.20261679  1  0  -0.495838  0  1.810615  0  0  -0.473891  0  2.048658  0  0  -0.493689  0  2.044148  0  -0.574719  0  -0.203574  -0.459065  0  2.051471  0
O  O119  1  0.67160402  0.66149722  0.70261729  1  0  -0.495784  0  1.810431  0  0  -0.473849  0  2.048512  0  0  -0.493641  0  2.043992  0  -0.574771  0  -0.203524  -0.459022  0  2.051323  0
O  O120  1  0.16839376  0.95667378  0.78169821  1  0  -0.42232  0  1.734315  0  0  -0.418194  0  1.940531  0  0  -0.429795  0  1.935963  0  -0.512263  0  -0.171743  -0.409199  0  1.943978  0
O  O121  1  0.33160872  0.54332510  0.28169870  1  0  -0.422341  0  1.734333  0  0  -0.418197  0  1.940578  0  0  -0.429796  0  1.936005  0  -0.512253  0  -0.171753  -0.409203  0  1.944027  0
O  O122  1  0.83160551  0.04332643  0.21830229  1  0  -0.422345  0  1.734319  0  0  -0.418258  0  1.940503  0  0  -0.429864  0  1.935932  0  -0.512297  0  -0.171769  -0.409264  0  1.94395  0
O  O123  1  0.66839174  0.45667415  0.71830179  1  0  -0.422313  0  1.734333  0  0  -0.418213  0  1.94051  0  0  -0.429824  0  1.935946  0  -0.512277  0  -0.17175  -0.409218  0  1.943956  0
