# generated using pymatgen
data_CdPH21C19(NO3)2
_symmetry_space_group_name_H-M   'P 1'
_cell_length_a   5.50252164
_cell_length_b   11.90234053
_cell_length_c   15.41050978
_cell_angle_alpha   89.45858110
_cell_angle_beta   87.55971751
_cell_angle_gamma   76.59869557
_symmetry_Int_Tables_number   1
_chemical_formula_structural   CdPH21C19(NO3)2
_chemical_formula_sum   'Cd2 P2 H42 C38 N4 O12'
_cell_volume   980.90627047
_cell_formula_units_Z   2
loop_
 _symmetry_equiv_pos_site_id
 _symmetry_equiv_pos_as_xyz
  1  'x, y, z'
loop_
 _atom_site_type_symbol
 _atom_site_label
 _atom_site_symmetry_multiplicity
 _atom_site_fract_x
 _atom_site_fract_y
 _atom_site_fract_z
 _atom_site_occupancy
 _atom_site_hle17_bader_spin_density
 _atom_site_hle17_ddec_charge
 _atom_site_hle17_ddec_spin_density
 _atom_site_hle17_ddec_sum_bond_order
 _atom_site_hle17_magmom
 _atom_site_hse06_10hf_bader_charge
 _atom_site_hse06_10hf_bader_spin_density
 _atom_site_hse06_10hf_ddec_charge
 _atom_site_hse06_10hf_ddec_spin_density
 _atom_site_hse06_10hf_ddec_sum_bond_order
 _atom_site_hse06_10hf_magmom
 _atom_site_hse06_bader_spin_density
 _atom_site_hse06_ddec_charge
 _atom_site_hse06_ddec_spin_density
 _atom_site_hse06_ddec_sum_bond_order
 _atom_site_hse06_magmom
 _atom_site_pbe_bader_spin_density
 _atom_site_pbe_cm5_charge
 _atom_site_pbe_ddec_charge
 _atom_site_pbe_ddec_spin_density
 _atom_site_pbe_ddec_sum_bond_order
 _atom_site_pbe_magmom
Cd  Cd0  1  0.65198785  0.34965860  0.65500483  1  0  1.163239  0  1.70437  0  1.329287  0  0.974322  0  2.154515  0  0  1.027004  0  2.101891  0  0  0.77228  0.936997  0  2.190424  0
Cd  Cd1  1  0.00255362  0.65031403  0.15511141  1  0  1.163824  0  1.701831  0  1.326776  0  0.974853  0  2.151455  0  0  1.027536  0  2.098864  0  0  0.772277  0.937526  0  2.187346  0
P  P2  1  0.53161666  0.27692674  0.44819692  1  0  1.21946  0  4.676484  0  3.097358  0  1.089807  0  5.148785  0  0  1.130145  0  5.126878  0  0  0.280465  1.061819  0  5.163164  0
P  P3  1  0.81010677  0.72271296  0.94834242  1  0  1.218665  0  4.678171  0  3.130264  0  1.088564  0  5.150857  0  0  1.128971  0  5.128863  0  0  0.27991  1.060573  0  5.165144  0
H  H4  1  0.86177613  0.05697071  0.47868824  1  0  0.085141  0  0.977965  0  0.094894  0  0.094265  0  1.045039  0  0  0.096322  0  1.045468  0  0  0.097128  0.092763  0  1.044812  0
H  H5  1  0.92252808  0.94200435  0.97857556  1  0  0.084807  0  0.97996  0  0.10503  0  0.093975  0  1.046892  0  0  0.096054  0  1.047333  0  0  0.097077  0.092431  0  1.046737  0
H  H6  1  0.83602131  0.85330896  0.45330117  1  0  0.09337  0  0.946524  0  0.070602  0  0.10447  0  1.004476  0  0  0.107576  0  1.003308  0  0  0.099145  0.102234  0  1.005401  0
H  H7  1  0.69428487  0.14594372  0.95371386  1  0  0.09418  0  0.94687  0  0.108251  0  0.105962  0  1.003788  0  0  0.109026  0  1.0027  0  0  0.100023  0.103772  0  1.004643  0
H  H8  1  0.46701076  0.81405643  0.38195109  1  0  0.095395  0  0.954927  0  0.110607  0  0.109708  0  1.007295  0  0  0.112679  0  1.005415  0  0  0.103372  0.107474  0  1.008826  0
H  H9  1  0.28537189  0.18631735  0.88272565  1  0  0.095368  0  0.954868  0  0.113995  0  0.10943  0  1.007652  0  0  0.112407  0  1.005751  0  0  0.103305  0.107205  0  1.009193  0
H  H10  1  0.13230256  0.97641147  0.33260653  1  0  0.082478  0  0.975131  0  0.078419  0  0.093599  0  1.035287  0  0  0.095388  0  1.03682  0  0  0.094656  0.092317  0  1.034323  0
H  H11  1  0.11054409  0.02464711  0.83368596  1  0  0.083351  0  0.974137  0  0.085164  0  0.093913  0  1.03479  0  0  0.095751  0  1.036215  0  0  0.094875  0.092605  0  1.033879  0
H  H12  1  0.15147309  0.17860584  0.36012997  1  0  0.103528  0  0.973253  0  0.10274  0  0.112798  0  1.037023  0  0  0.115833  0  1.035657  0  0  0.09956  0.110583  0  1.038041  0
H  H13  1  0.33001837  0.82211929  0.86116062  1  0  0.103114  0  0.973414  0  0.110315  0  0.112544  0  1.03708  0  0  0.115548  0  1.035765  0  0  0.09946  0.110329  0  1.038114  0
H  H14  1  0.38270832  0.36381322  0.31221257  1  0  0.107802  0  0.95994  0  0.04862  0  0.123431  0  1.020635  0  0  0.125216  0  1.021089  0  0  0.096208  0.122127  0  1.020422  0
H  H15  1  0.74839430  0.63595994  0.81217716  1  0  0.107904  0  0.959763  0  0.049308  0  0.123037  0  1.021194  0  0  0.124858  0  1.021635  0  0  0.096079  0.121684  0  1.021006  0
H  H16  1  0.13214204  0.37074723  0.38968318  1  0  0.137337  0  0.957578  0  0.072159  0  0.152046  0  1.014579  0  0  0.154905  0  1.0139  0  0  0.105934  0.149924  0  1.01525  0
H  H17  1  0.50423354  0.62952666  0.88955691  1  0  0.13719  0  0.955966  0  0.082565  0  0.151958  0  1.012835  0  0  0.154872  0  1.01209  0  0  0.106055  0.149816  0  1.013489  0
H  H18  1  0.28551988  0.51875203  0.47522599  1  0  0.099907  0  0.947163  0  0.075188  0  0.111578  0  1.011479  0  0  0.113746  0  1.011173  0  0  0.096773  0.110001  0  1.011842  0
H  H19  1  0.80463217  0.48123209  0.97519865  1  0  0.100841  0  0.947495  0  0.077458  0  0.112238  0  1.011585  0  0  0.11445  0  1.011217  0  0  0.097125  0.110641  0  1.01199  0
H  H20  1  0.53776513  0.51184686  0.39685678  1  0  0.104612  0  0.929311  0  0.067213  0  0.11923  0  0.987903  0  0  0.121814  0  0.986622  0  0  0.099803  0.117345  0  0.988964  0
H  H21  1  0.05050553  0.48753360  0.89686242  1  0  0.104762  0  0.928463  0  0.081062  0  0.118903  0  0.987435  0  0  0.121482  0  0.986121  0  0  0.099634  0.117027  0  0.988516  0
H  H22  1  0.19502561  0.17713521  0.59436570  1  0  0.091519  0  0.965205  0  0.153946  0  0.097293  0  1.031125  0  0  0.100242  0  1.028634  0  0  0.117257  0.095087  0  1.032971  0
H  H23  1  0.37314593  0.82284022  0.09460797  1  0  0.091315  0  0.966521  0  0.129079  0  0.097371  0  1.031924  0  0  0.100305  0  1.029472  0  0  0.117444  0.095171  0  1.033788  0
H  H24  1  0.39983336  0.97138464  0.58445291  1  0  0.096896  0  0.992432  0  0.063961  0  0.105009  0  1.058577  0  0  0.107045  0  1.060212  0  0  0.102538  0.103486  0  1.057677  0
H  H25  1  0.37186301  0.02864743  0.08472980  1  0  0.096264  0  0.992244  0  0.086485  0  0.104233  0  1.058726  0  0  0.106255  0  1.060366  0  0  0.102421  0.102774  0  1.057738  0
H  H26  1  0.74829755  0.89972738  0.72280258  1  0  0.100987  0  0.970459  0  0.088758  0  0.11056  0  1.033606  0  0  0.112972  0  1.034207  0  0  0.104967  0.10884  0  1.033327  0
H  H27  1  0.64668006  0.10060767  0.22189915  1  0  0.101  0  0.969945  0  0.073847  0  0.110159  0  1.033678  0  0  0.112672  0  1.034168  0  0  0.104773  0.108394  0  1.033389  0
H  H28  1  0.56858215  0.10989942  0.72433782  1  0  0.086108  0  0.96732  0  0.154165  0  0.092301  0  1.034838  0  0  0.094325  0  1.03389  0  0  0.114373  0.090782  0  1.035585  0
H  H29  1  0.67815701  0.89041665  0.22383342  1  0  0.086432  0  0.966409  0  0.137087  0  0.092027  0  1.034529  0  0  0.094023  0  1.033619  0  0  0.114592  0.090545  0  1.035201  0
H  H30  1  0.54090977  0.80012285  0.56886025  1  0  0.102763  0  0.978283  0  0.095831  0  0.112824  0  1.040631  0  0  0.115656  0  1.040467  0  0  0.10636  0.110784  0  1.040903  0
H  H31  1  0.33963789  0.19999182  0.06801990  1  0  0.102641  0  0.979344  0  0.089536  0  0.112394  0  1.042016  0  0  0.115264  0  1.041799  0  0  0.106218  0.110361  0  1.042271  0
H  H32  1  0.72466945  0.58902102  0.57075515  1  0  0.097709  0  0.946457  0  0.140491  0  0.103326  0  1.011681  0  0  0.106649  0  1.008488  0  0  0.11858  0.10083  0  1.014102  0
H  H33  1  0.31313827  0.41088913  0.07050505  1  0  0.09673  0  0.947433  0  0.153371  0  0.10241  0  1.012567  0  0  0.105702  0  1.009429  0  0  0.118321  0.099962  0  1.014912  0
H  H34  1  0.13060910  0.52795548  0.72390638  1  0  0.08332  0  0.958383  0  0.129535  0  0.08985  0  1.025314  0  0  0.092871  0  1.022615  0  0  0.117215  0.087525  0  1.027456  0
H  H35  1  0.65887273  0.47226177  0.22421999  1  0  0.083284  0  0.958117  0  0.140254  0  0.089813  0  1.025052  0  0  0.092818  0  1.022376  0  0  0.117505  0.087447  0  1.02723  0
H  H36  1  0.92567195  0.73507574  0.73067718  1  0  0.096257  0  0.981299  0  0.054037  0  0.106776  0  1.044684  0  0  0.109774  0  1.043823  0  0  0.105515  0.10463  0  1.045417  0
H  H37  1  0.66098467  0.26512677  0.23072887  1  0  0.097398  0  0.980961  0  0.085676  0  0.107576  0  1.044494  0  0  0.110667  0  1.043543  0  0  0.105799  0.105352  0  1.045341  0
H  H38  1  0.17446009  0.34141127  0.75754322  1  0  0.423397  0  0.881435  0  0.656993  0  0.391587  0  0.946862  0  0  0.402476  0  0.931142  0  0  0.283882  0.383871  0  0.957974  0
H  H39  1  0.51638045  0.65878938  0.25747314  1  0  0.42288  0  0.882437  0  0.655233  0  0.391421  0  0.947468  0  0  0.402304  0  0.93176  0  0  0.283985  0.383722  0  0.958555  0
H  H40  1  0.43465898  0.32483244  0.80699250  1  0  0.405813  0  0.915518  0  0.663077  0  0.371627  0  0.98573  0  0  0.383677  0  0.968482  0  0  0.276307  0.36317  0  0.997791  0
H  H41  1  0.75962008  0.67557144  0.30697377  1  0  0.407238  0  0.913673  0  0.657201  0  0.373393  0  0.983183  0  0  0.385417  0  0.965968  0  0  0.276953  0.364953  0  0.995226  0
H  H42  1  0.12449661  0.36537494  0.55965656  1  0  0.42588  0  0.87985  0  0.652151  0  0.396539  0  0.941012  0  0  0.407152  0  0.925835  0  0  0.286896  0.389045  0  0.951707  0
H  H43  1  0.49137561  0.63391754  0.05995243  1  0  0.425508  0  0.879864  0  0.638581  0  0.396428  0  0.940592  0  0  0.406961  0  0.925501  0  0  0.286769  0.388985  0  0.951235  0
H  H44  1  0.89139631  0.36173899  0.50409832  1  0  0.414734  0  0.903621  0  0.655244  0  0.383096  0  0.969905  0  0  0.394074  0  0.954177  0  0  0.281343  0.375389  0  0.980911  0
H  H45  1  0.25492958  0.63740100  0.00439758  1  0  0.415759  0  0.902161  0  0.657594  0  0.383855  0  0.968887  0  0  0.394824  0  0.953176  0  0  0.281421  0.376153  0  0.979887  0
C  C46  1  0.50979373  0.13157984  0.42074119  1  0  -0.223206  0  3.75728  0  -0.584949  0  -0.18096  0  3.996803  0  0  -0.190125  0  4.019909  0  0  -0.031728  -0.174955  0  3.981403  0
C  C47  1  0.64318242  0.86821406  0.92117641  1  0  -0.223901  0  3.757605  0  -0.674709  0  -0.181623  0  3.997114  0  0  -0.190757  0  4.020171  0  0  -0.032443  -0.175594  0  3.981679  0
C  C48  1  0.70055753  0.03901950  0.44760726  1  0  -0.054465  0  3.762924  0  -0.102159  0  -0.076263  0  4.006362  0  0  -0.075795  0  4.027787  0  0  -0.08618  -0.076379  0  3.991863  0
C  C49  1  0.74279127  0.96040853  0.94781055  1  0  -0.053779  0  3.761943  0  -0.13671  0  -0.075576  0  4.005239  0  0  -0.075161  0  4.026763  0  0  -0.086134  -0.07569  0  3.990676  0
C  C50  1  0.68579914  0.92514453  0.43379143  1  0  -0.09557  0  3.778881  0  -0.027002  0  -0.106145  0  4.030949  0  0  -0.109325  0  4.051021  0  0  -0.097145  -0.104005  0  4.017283  0
C  C51  1  0.61498702  0.07448053  0.93421010  1  0  -0.096774  0  3.781913  0  -0.007736  0  -0.107956  0  4.033999  0  0  -0.111113  0  4.054047  0  0  -0.097856  -0.105839  0  4.02038  0
C  C52  1  0.47951389  0.90265450  0.39309218  1  0  -0.061262  0  3.75948  0  -0.100796  0  -0.075824  0  4.005406  0  0  -0.075698  0  4.024431  0  0  -0.089756  -0.075753  0  3.992478  0
C  C53  1  0.38579957  0.09758298  0.89377339  1  0  -0.062247  0  3.763766  0  -0.079046  0  -0.076723  0  4.01004  0  0  -0.076564  0  4.028969  0  0  -0.090139  -0.076694  0  3.997199  0
C  C54  1  0.29209844  0.99399619  0.36480673  1  0  -0.077042  0  3.765296  0  -0.094927  0  -0.086162  0  4.011656  0  0  -0.089534  0  4.033764  0  0  -0.094553  -0.083917  0  3.996657  0
C  C55  1  0.28827420  0.00657956  0.86568647  1  0  -0.077752  0  3.766057  0  -0.09452  0  -0.086458  0  4.012319  0  0  -0.089812  0  4.034383  0  0  -0.094847  -0.084221  0  3.997347  0
C  C56  1  0.30548790  0.10829718  0.37876277  1  0  -0.063152  0  3.746982  0  -0.004839  0  -0.08505  0  3.990306  0  0  -0.084843  0  4.011185  0  0  -0.089058  -0.084994  0  3.976224  0
C  C57  1  0.41488117  0.89206653  0.87961463  1  0  -0.0621  0  3.747831  0  -0.023604  0  -0.084103  0  3.990825  0  0  -0.083887  0  4.011663  0  0  -0.088425  -0.084076  0  3.976725  0
C  C58  1  0.32560539  0.38026199  0.38098894  1  0  -0.390439  0  3.652397  0  -0.562786  0  -0.412147  0  3.900492  0  0  -0.419866  0  3.908915  0  0  -0.171728  -0.406669  0  3.894719  0
C  C59  1  0.70741611  0.61964127  0.88093054  1  0  -0.389518  0  3.652863  0  -0.575995  0  -0.411472  0  3.901253  0  0  -0.419265  0  3.909722  0  0  -0.171823  -0.405895  0  3.895451  0
C  C60  1  0.34413442  0.50290246  0.40670244  1  0  -0.225513  0  3.674742  0  -0.039612  0  -0.264908  0  3.925385  0  0  -0.269997  0  3.933079  0  0  -0.16513  -0.261439  0  3.920165  0
C  C61  1  0.84765985  0.49691318  0.90670818  1  0  -0.227307  0  3.675789  0  -0.050431  0  -0.265465  0  3.924827  0  0  -0.270502  0  3.932475  0  0  -0.165511  -0.262058  0  3.919658  0
C  C62  1  0.17001423  0.58827644  0.35073771  1  0  0.714188  0  3.825921  0  1.594577  0  0.667755  0  4.124537  0  0  0.701244  0  4.117002  0  0  0.210811  0.645035  0  4.12883  0
C  C63  1  0.75820976  0.41175626  0.85071257  1  0  0.713217  0  3.828867  0  1.577468  0  0.667245  0  4.126423  0  0  0.700692  0  4.118904  0  0  0.210412  0.644548  0  4.130728  0
C  C64  1  0.10059264  0.11296549  0.62177681  1  0  0.138607  0  3.685468  0  0.475837  0  0.109087  0  3.940354  0  0  0.116305  0  3.956776  0  0  0.052172  0.104408  0  3.929224  0
C  C65  1  0.21416282  0.88708197  0.12182103  1  0  0.137618  0  3.68365  0  0.496819  0  0.108078  0  3.938637  0  0  0.115284  0  3.955002  0  0  0.051537  0.103382  0  3.927597  0
C  C66  1  0.21579691  0.99601733  0.61687344  1  0  -0.151878  0  3.690216  0  0.041345  0  -0.170282  0  3.936148  0  0  -0.177907  0  3.958442  0  0  -0.078676  -0.165254  0  3.921186  0
C  C67  1  0.21207733  0.00408957  0.11686368  1  0  -0.151849  0  3.690413  0  -0.049661  0  -0.16999  0  3.937312  0  0  -0.177543  0  3.959567  0  0  -0.078928  -0.165049  0  3.922322  0
C  C68  1  0.09476460  0.91373888  0.65294760  1  0  0.087498  0  3.747589  0  -0.060877  0  0.101763  0  3.973612  0  0  0.105346  0  3.994639  0  0  0.012746  0.099489  0  3.959222  0
C  C69  1  0.00813382  0.08640335  0.15258427  1  0  0.088962  0  3.747384  0  0.017758  0  0.101738  0  3.974827  0  0  0.105268  0  3.996044  0  0  0.013065  0.099546  0  3.960261  0
C  C70  1  0.85649449  0.95638839  0.69244526  1  0  -0.15557  0  3.696831  0  -0.087218  0  -0.17435  0  3.944947  0  0  -0.181562  0  3.96607  0  0  -0.080755  -0.169641  0  3.930723  0
C  C71  1  0.81214217  0.04388883  0.19185212  1  0  -0.156168  0  3.694662  0  -0.009511  0  -0.174109  0  3.942885  0  0  -0.181323  0  3.963912  0  0  -0.080695  -0.169406  0  3.92874  0
C  C72  1  0.75292711  0.07460765  0.69411457  1  0  0.129145  0  3.703415  0  0.536006  0  0.100086  0  3.954867  0  0  0.106854  0  3.973297  0  0  0.047786  0.095743  0  3.942277  0
C  C73  1  0.82737787  0.92561914  0.19368834  1  0  0.12972  0  3.705226  0  0.492819  0  0.101035  0  3.956743  0  0  0.107825  0  3.975143  0  0  0.048406  0.096681  0  3.944199  0
C  C74  1  0.21342564  0.78857344  0.65040267  1  0  0.093971  0  3.750548  0  -0.054792  0  0.105487  0  3.977663  0  0  0.109662  0  3.998798  0  0  0.013105  0.102905  0  3.963152  0
C  C75  1  0.00150720  0.21163764  0.15007938  1  0  0.094066  0  3.752997  0  -0.048439  0  0.106573  0  3.97941  0  0  0.110667  0  4.000739  0  0  0.013011  0.104021  0  3.96478  0
C  C76  1  0.44286879  0.74417123  0.60535098  1  0  -0.158183  0  3.695047  0  -0.033766  0  -0.174467  0  3.936789  0  0  -0.182008  0  3.95816  0  0  -0.080699  -0.169517  0  3.922356  0
C  C77  1  0.18616227  0.25591208  0.10486138  1  0  -0.158373  0  3.698213  0  -0.017337  0  -0.174564  0  3.939734  0  0  -0.182075  0  3.961096  0  0  -0.080842  -0.169656  0  3.9253  0
C  C78  1  0.54771358  0.62597560  0.60572371  1  0  0.1276  0  3.702219  0  0.492244  0  0.099245  0  3.953444  0  0  0.10541  0  3.972286  0  0  0.049198  0.095325  0  3.940533  0
C  C79  1  0.17315550  0.37407088  0.10548898  1  0  0.127498  0  3.70238  0  0.45988  0  0.099282  0  3.953702  0  0  0.105468  0  3.972509  0  0  0.048514  0.095326  0  3.940859  0
C  C80  1  0.21771783  0.59108565  0.69088421  1  0  0.138886  0  3.696819  0  0.541802  0  0.111028  0  3.946876  0  0  0.117678  0  3.964984  0  0  0.052592  0.106751  0  3.934608  0
C  C81  1  0.80888509  0.40910943  0.19101717  1  0  0.140453  0  3.694117  0  0.449168  0  0.11275  0  3.944279  0  0  0.119422  0  3.962321  0  0  0.052832  0.10851  0  3.932057  0
C  C82  1  0.10188427  0.70793923  0.69366299  1  0  -0.145745  0  3.698898  0  -0.023344  0  -0.165281  0  3.944932  0  0  -0.172637  0  3.96599  0  0  -0.077781  -0.160514  0  3.930764  0
C  C83  1  0.80984191  0.29226959  0.19363468  1  0  -0.148114  0  3.700229  0  -0.001683  0  -0.167821  0  3.946504  0  0  -0.175185  0  3.96747  0  0  -0.07851  -0.163063  0  3.932417  0
N  N84  1  0.87211302  0.15224745  0.65953259  1  0  -0.328116  0  3.216335  0  -1.266189  0  -0.255286  0  3.481368  0  0  -0.273608  0  3.497785  0  0  -0.322231  -0.242793  0  3.469963  0
N  N85  1  0.02470313  0.84794190  0.15941818  1  0  -0.328609  0  3.218528  0  -1.270617  0  -0.255908  0  3.483632  0  0  -0.274143  0  3.499969  0  0  -0.322771  -0.243491  0  3.472305  0
N  N86  1  0.43811195  0.54994739  0.64804570  1  0  -0.332051  0  3.21716  0  -1.271841  0  -0.259499  0  3.481506  0  0  -0.27833  0  3.500052  0  0  -0.321027  -0.246626  0  3.468566  0
N  N87  1  0.98803119  0.45012523  0.14812795  1  0  -0.331709  0  3.216123  0  -1.245952  0  -0.259665  0  3.480695  0  0  -0.278428  0  3.499179  0  0  -0.320831  -0.246852  0  3.467806  0
O  O88  1  0.42919355  0.29960318  0.54303332  1  0  -0.842969  0  2.025114  0  -1.468306  0  -0.747714  0  2.285311  0  0  -0.776391  0  2.267945  0  0  -0.380724  -0.7273  0  2.296623  0
O  O89  1  0.72982658  0.69996276  0.04310220  1  0  -0.843085  0  2.024553  0  -1.46733  0  -0.747622  0  2.284389  0  0  -0.776248  0  2.267001  0  0  -0.380661  -0.727238  0  2.295746  0
O  O90  1  0.79905438  0.28795045  0.43130146  1  0  -0.804995  0  1.937228  0  -1.483808  0  -0.732196  0  2.178932  0  0  -0.757415  0  2.165015  0  0  -0.375188  -0.714201  0  2.187912  0
O  O91  1  0.08873221  0.71152528  0.93162226  1  0  -0.804679  0  1.937197  0  -1.480962  0  -0.731681  0  2.179101  0  0  -0.756909  0  2.16519  0  0  -0.374615  -0.713682  0  2.188077  0
O  O92  1  0.95169604  0.63251669  0.38008527  1  0  -0.621213  0  1.917659  0  -1.217044  0  -0.567387  0  2.126747  0  0  -0.591344  0  2.116239  0  0  -0.323791  -0.550758  0  2.133402  0
O  O93  1  0.58389836  0.36779156  0.88017918  1  0  -0.620269  0  1.919223  0  -1.208434  0  -0.566631  0  2.128412  0  0  -0.590689  0  2.118066  0  0  -0.323411  -0.549946  0  2.135011  0
O  O94  1  0.25591777  0.60459261  0.27325971  1  0  -0.709641  0  2.037143  0  -1.233585  0  -0.633006  0  2.286004  0  0  -0.662853  0  2.273196  0  0  -0.342304  -0.611952  0  2.293932  0
O  O95  1  0.85988615  0.39538967  0.77318090  1  0  -0.70875  0  2.038362  0  -1.229434  0  -0.632423  0  2.287081  0  0  -0.662213  0  2.274259  0  0  -0.341946  -0.611456  0  2.295115  0
O  O96  1  0.35596744  0.30375874  0.75265813  1  0  -0.858789  0  1.869854  0  -1.318826  0  -0.793168  0  2.070659  0  0  -0.816961  0  2.036842  0  0  -0.596227  -0.776225  0  2.093991  0
O  O97  1  0.65999553  0.69649888  0.25257892  1  0  -0.859372  0  1.870308  0  -1.309097  0  -0.794222  0  2.070338  0  0  -0.818038  0  2.03661  0  0  -0.596507  -0.77729  0  2.093604  0
O  O98  1  0.94106862  0.39949064  0.55710140  1  0  -0.847996  0  1.852406  0  -1.300218  0  -0.780089  0  2.045681  0  0  -0.803724  0  2.013152  0  0  -0.593905  -0.763311  0  2.068061  0
O  O99  1  0.34217961  0.59979066  0.05745059  1  0  -0.847382  0  1.850913  0  -1.287041  0  -0.77945  0  2.043945  0  0  -0.803058  0  2.011611  0  0  -0.593286  -0.76272  0  2.066239  0
