# generated using pymatgen
data_V2CuH2C2NO6
_symmetry_space_group_name_H-M   'P 1'
_cell_length_a   7.56456983
_cell_length_b   7.54747187
_cell_length_c   7.60097461
_cell_angle_alpha   88.29545911
_cell_angle_beta   62.34653605
_cell_angle_gamma   64.74946928
_symmetry_Int_Tables_number   1
_chemical_formula_structural   V2CuH2C2NO6
_chemical_formula_sum   'V4 Cu2 H4 C4 N2 O12'
_cell_volume   339.91300880
_cell_formula_units_Z   2
loop_
 _symmetry_equiv_pos_site_id
 _symmetry_equiv_pos_as_xyz
  1  'x, y, z'
loop_
 _atom_site_type_symbol
 _atom_site_label
 _atom_site_symmetry_multiplicity
 _atom_site_fract_x
 _atom_site_fract_y
 _atom_site_fract_z
 _atom_site_occupancy
 _atom_site_hle17_ddec_charge
 _atom_site_hle17_ddec_spin_density
 _atom_site_hle17_ddec_sum_bond_order
 _atom_site_hle17_magmom
 _atom_site_hse06_10hf_ddec_charge
 _atom_site_hse06_10hf_ddec_spin_density
 _atom_site_hse06_10hf_ddec_sum_bond_order
 _atom_site_hse06_10hf_magmom
 _atom_site_hse06_ddec_charge
 _atom_site_hse06_ddec_spin_density
 _atom_site_hse06_ddec_sum_bond_order
 _atom_site_hse06_magmom
 _atom_site_pbe_cm5_charge
 _atom_site_pbe_ddec_charge
 _atom_site_pbe_ddec_spin_density
 _atom_site_pbe_ddec_sum_bond_order
 _atom_site_pbe_magmom
V  V0  1  0.13237581  0.75073998  0.73992097  1  2.003831  -0.020515  2.992946  -0.026  2.085568  0.005414  3.37588  0.009  2.182661  0.003688  3.353231  0.007  1.457435  2.004223  0.005942  3.419068  0.009
V  V1  1  0.86761382  0.24926037  0.26007831  1  2.003872  0.020578  2.992743  0.026  2.085496  -0.005398  3.375846  -0.009  2.182706  -0.003661  3.353007  -0.007  1.457363  2.004131  -0.005938  3.419112  -0.009
V  V2  1  0.95582972  0.23327176  0.77213336  1  1.997553  0.002455  2.966258  0.003  2.077185  0.000401  3.3453  0.001  2.175915  0.000467  3.325499  0.001  1.460127  1.994051  0.00045  3.383983  0.001
V  V3  1  0.04418171  0.76672399  0.22785616  1  1.997637  -0.002424  2.966234  -0.003  2.077277  -0.000376  3.345258  -0.001  2.175998  -0.000471  3.325473  -0.001  1.460212  1.994206  -0.000434  3.383837  -0.001
Cu  Cu4  1  0.27508157  0.37604932  0.38993817  1  1.086854  0.619082  1.84038  0.442  1.129193  0.763606  2.222297  0.609  1.206335  0.872666  2.157842  0.723  0.752888  1.07212  0.577123  2.278111  0.449
Cu  Cu5  1  0.72491074  0.62396297  0.61006617  1  1.086748  -0.619098  1.840132  -0.442  1.129128  -0.763617  2.222036  -0.609  1.20627  -0.872676  2.157586  -0.723  0.752829  1.071981  -0.577162  2.277836  -0.449
H  H6  1  0.50604097  0.93372561  0.31351265  1  0.129874  0.000401  0.925949  0.001  0.139764  0.000363  0.978084  0.001  0.141826  0.000284  0.976515  0.001  0.137617  0.138218  0.000355  0.979615  0.001
H  H7  1  0.49396217  0.06626571  0.68649390  1  0.129718  -0.000399  0.926114  -0.001  0.139619  -0.000363  0.978232  -0.001  0.141674  -0.000284  0.976663  -0.001  0.137537  0.138071  -0.000355  0.979762  -0.001
H  H8  1  0.34869973  0.34723830  0.96640026  1  0.117237  0.000296  0.936261  0.001  0.125035  0.000284  0.994036  0.001  0.126972  0.000224  0.992391  0.001  0.137087  0.123861  0.000273  0.995058  0.001
H  H9  1  0.65130867  0.65275449  0.03359860  1  0.117352  -0.000291  0.936124  -0.001  0.125126  -0.000285  0.993918  -0.001  0.127063  -0.000224  0.992272  -0.001  0.137161  0.123953  -0.000274  0.994937  -0.001
C  C10  1  0.50410451  0.96332224  0.17318217  1  0.118387  -0.012492  3.577759  -0.013  0.095528  -0.004334  3.822242  -0.006  0.101107  -0.005047  3.836098  -0.007  0.078405  0.091396  -0.003045  3.813342  -0.004
C  C11  1  0.49589554  0.03667507  0.82682299  1  0.118339  0.012497  3.577551  0.013  0.095507  0.004333  3.822023  0.006  0.101092  0.005047  3.835873  0.007  0.078393  0.091379  0.003045  3.81311  0.004
C  C12  1  0.41566874  0.19203736  0.98156559  1  0.108182  -0.012523  3.600794  -0.013  0.081894  -0.004362  3.85267  -0.006  0.087279  -0.005011  3.866748  -0.006  0.075522  0.078205  -0.003077  3.842817  -0.004
C  C13  1  0.58432664  0.80796596  0.01844679  1  0.108028  0.012503  3.600821  0.013  0.081785  0.00436  3.852715  0.006  0.087169  0.005009  3.866792  0.006  0.075452  0.078097  0.003076  3.84286  0.004
N  N14  1  0.41981369  0.15461247  0.15377885  1  -0.261333  0.067752  3.303875  0.084  -0.223002  0.049571  3.592902  0.067  -0.247683  0.042411  3.609534  0.06  -0.317943  -0.206029  0.044648  3.581353  0.058
N  N15  1  0.58019451  0.84538331  0.84623318  1  -0.261217  -0.067757  3.303773  -0.084  -0.22293  -0.049576  3.592873  -0.067  -0.247607  -0.042413  3.609491  -0.06  -0.317972  -0.205951  -0.044645  3.581301  -0.058
O  O16  1  0.60895184  0.28186903  0.38033071  1  -0.796507  -0.030911  1.394986  -0.038  -0.834939  -0.012815  1.681355  -0.017  -0.868912  -0.008967  1.668948  -0.012  -0.592745  -0.806831  -0.01455  1.692376  -0.018
O  O17  1  0.39102972  0.71814930  0.61969151  1  -0.796533  0.03089  1.395015  0.038  -0.835013  0.012811  1.68138  0.017  -0.868949  0.00896  1.668997  0.012  -0.592771  -0.80689  0.014555  1.69238  0.018
O  O18  1  0.26959464  0.57666838  0.22306688  1  -0.821364  0.052999  1.542515  0.068  -0.855699  0.033782  1.857816  0.046  -0.901208  0.027359  1.844385  0.039  -0.599634  -0.819005  0.031226  1.867733  0.041
O  O19  1  0.73040379  0.42330652  0.77692379  1  -0.821331  -0.053009  1.542436  -0.068  -0.855683  -0.03379  1.857747  -0.046  -0.901194  -0.027359  1.844325  -0.039  -0.599622  -0.818959  -0.031223  1.867663  -0.041
O  O20  1  0.20260375  0.20387399  0.57953147  1  -0.816218  0.043479  1.559976  0.055  -0.846141  0.030313  1.871672  0.041  -0.891312  0.024808  1.859068  0.035  -0.598265  -0.809928  0.027533  1.881533  0.036
O  O21  1  0.79739909  0.79614123  0.42045882  1  -0.816289  -0.043481  1.560064  -0.055  -0.846229  -0.030318  1.87178  -0.041  -0.891392  -0.024803  1.859169  -0.035  -0.59834  -0.810023  -0.027528  1.881616  -0.036
O  O22  1  0.09872748  0.59046198  0.62270764  1  -0.905842  0.083531  1.667912  0.107  -0.952312  0.046243  2.014799  0.063  -1.002539  0.035913  2.00242  0.051  -0.618119  -0.911894  0.045123  2.023447  0.06
O  O23  1  0.90130893  0.40952616  0.37725758  1  -0.905841  -0.083565  1.667716  -0.107  -0.952276  -0.046244  2.014596  -0.063  -1.002534  -0.035923  2.002195  -0.051  -0.618064  -0.911853  -0.045116  2.023241  -0.06
O  O24  1  0.94159280  0.00471044  0.75512912  1  -0.972716  0.000563  1.591253  0.001  -1.005693  0.000112  1.896422  0.0  -1.049907  -2.9e-05  1.894037  0.0  -0.680104  -0.968973  0.000226  1.900563  0.0
O  O25  1  0.05840580  0.99528987  0.24486741  1  -0.97272  -0.000562  1.591159  -0.001  -1.005673  -0.000114  1.896343  0.0  -1.049914  2.9e-05  1.89394  0.0  -0.680085  -0.96897  -0.000229  1.900484  0.0
O  O26  1  0.94737215  0.28295255  0.00429357  1  -0.987869  -4.7e-05  1.591691  0.0  -1.016263  0.000133  1.89259  0.0  -1.060479  0.000148  1.886616  0.0  -0.69218  -0.979289  9.5e-05  1.900325  0.0
O  O27  1  0.05260435  0.71707028  0.99570715  1  -0.987831  4.7e-05  1.591686  0.0  -1.016253  -0.000135  1.892566  0.0  -1.060435  -0.000145  1.886611  0.0  -0.692182  -0.979297  -9.6e-05  1.900278  0.0
