# generated using pymatgen
data_CuH11C8SN2ClO7
_symmetry_space_group_name_H-M   'P 1'
_cell_length_a   10.79747216
_cell_length_b   12.28448539
_cell_length_c   12.92862277
_cell_angle_alpha   89.99989820
_cell_angle_beta   98.42032648
_cell_angle_gamma   90.00033162
_symmetry_Int_Tables_number   1
_chemical_formula_structural   CuH11C8SN2ClO7
_chemical_formula_sum   'Cu4 H44 C32 S4 N8 Cl4 O28'
_cell_volume   1696.38494235
_cell_formula_units_Z   4
loop_
 _symmetry_equiv_pos_site_id
 _symmetry_equiv_pos_as_xyz
  1  'x, y, z'
loop_
 _atom_site_type_symbol
 _atom_site_label
 _atom_site_symmetry_multiplicity
 _atom_site_fract_x
 _atom_site_fract_y
 _atom_site_fract_z
 _atom_site_occupancy
 _atom_site_pbe_bader_charge
 _atom_site_pbe_bader_spin_density
 _atom_site_pbe_cm5_charge
 _atom_site_pbe_ddec_charge
 _atom_site_pbe_ddec_spin_density
 _atom_site_pbe_ddec_sum_bond_order
 _atom_site_pbe_magmom
Cu  Cu0  1  0.59713409  0.07450484  0.44499637  1  1.09351  -0.579608  0.716142  0.805555  -0.75616  2.250509  -0.578
Cu  Cu1  1  0.40286673  0.57450449  0.05500293  1  1.09349  0.579593  0.716123  0.805522  0.756144  2.250476  0.578
Cu  Cu2  1  0.40286695  0.92549715  0.55500247  1  1.093486  -0.579597  0.716098  0.805482  -0.756149  2.250596  -0.578
Cu  Cu3  1  0.59713618  0.42549506  0.94499924  1  1.093482  0.579598  0.716153  0.805615  0.756152  2.25042  0.578
H  H4  1  0.49419635  0.71699730  0.22530752  1  0.115314  0.001458  0.121572  0.089733  0.000635  1.033281  0.001
H  H5  1  0.50580445  0.21699588  0.27469308  1  0.115299  -0.001458  0.121574  0.089718  -0.000635  1.033266  -0.001
H  H6  1  0.50580375  0.28300469  0.77469430  1  0.115306  0.001457  0.121571  0.089755  0.000634  1.033276  0.001
H  H7  1  0.49419565  0.78300367  0.72530874  1  0.115297  -0.001458  0.121568  0.089741  -0.000635  1.03323  -0.001
H  H8  1  0.32841485  0.76393267  0.92008332  1  0.181583  0.001499  0.118745  0.104817  0.000802  1.05656  0.002
H  H9  1  0.67158631  0.26393164  0.57991611  1  0.181587  -0.001499  0.11875  0.104846  -0.000801  1.056515  -0.002
H  H10  1  0.67158618  0.23606362  0.07991939  1  0.181514  0.001499  0.118773  0.104848  0.000801  1.056532  0.002
H  H11  1  0.32841379  0.73606547  0.42008417  1  0.181605  -0.001499  0.118746  0.104818  -0.000801  1.056565  -0.002
H  H12  1  0.32484248  0.96472249  0.94111000  1  0.118522  0.000747  0.112515  0.130299  0.0004  1.001015  0.0
H  H13  1  0.67515903  0.46472070  0.55888758  1  0.118559  -0.000746  0.112516  0.130322  -0.0004  1.001005  0.0
H  H14  1  0.67515295  0.03527461  0.05888737  1  0.118526  0.000746  0.112541  0.130304  0.0004  1.00099  0.0
H  H15  1  0.32484668  0.53527640  0.44111416  1  0.118562  -0.000747  0.112521  0.130299  -0.0004  1.000969  0.0
H  H16  1  0.41805569  0.04612173  0.11600892  1  0.12049  5.3e-05  0.110511  0.108248  -6.7e-05  0.995258  0.0
H  H17  1  0.58194589  0.54612005  0.38398897  1  0.120552  -5.3e-05  0.110453  0.10812  6.7e-05  0.995204  0.0
H  H18  1  0.58194254  0.95387944  0.88398880  1  0.120518  5.3e-05  0.11049  0.108191  -6.7e-05  0.99519  0.0
H  H19  1  0.41805890  0.45388031  0.61601265  1  0.12053  -5.3e-05  0.110472  0.108183  6.7e-05  0.995222  0.0
H  H20  1  0.82090532  0.09644333  0.77957855  1  0.109657  0.000169  0.106723  0.177564  6e-05  0.990977  0.0
H  H21  1  0.17909383  0.59644317  0.72042091  1  0.109652  -0.000169  0.106743  0.177573  -6e-05  0.990959  0.0
H  H22  1  0.17909292  0.90355377  0.22041840  1  0.11012  0.000169  0.106752  0.177593  6e-05  0.990918  0.0
H  H23  1  0.82090814  0.40355964  0.27958037  1  0.110631  -0.000168  0.106736  0.177566  -6e-05  0.991024  0.0
H  H24  1  0.92779308  0.98211034  0.78038911  1  0.152747  -0.002309  0.106183  0.180868  -0.001184  1.014599  -0.001
H  H25  1  0.07220666  0.48211006  0.71961131  1  0.152751  0.002309  0.106177  0.180857  0.001184  1.014606  0.001
H  H26  1  0.07220608  0.01788758  0.21961027  1  0.152714  -0.002309  0.106204  0.180864  -0.001184  1.014572  -0.001
H  H27  1  0.92779625  0.51789274  0.28038776  1  0.153063  0.002309  0.106182  0.180847  0.001184  1.014665  0.001
H  H28  1  0.76090304  0.95885051  0.76334241  1  0.092492  0.000132  0.102082  0.162879  0.000133  0.988035  0.0
H  H29  1  0.23909656  0.45885105  0.73665804  1  0.092504  -0.000132  0.102091  0.162896  -0.000133  0.988014  0.0
H  H30  1  0.23909519  0.04114660  0.23665608  1  0.092576  0.000132  0.102089  0.162877  0.000133  0.98808  0.0
H  H31  1  0.76090636  0.54115094  0.26334104  1  0.092281  -0.000132  0.102066  0.162908  -0.000133  0.988029  0.0
H  H32  1  0.94402841  0.14302297  0.51943588  1  0.11265  -4e-06  0.10395  0.17648  2.1e-05  1.002055  0.0
H  H33  1  0.05597010  0.64302332  0.98056419  1  0.112645  4e-06  0.103958  0.176495  -2.1e-05  1.002036  0.0
H  H34  1  0.05596982  0.85697414  0.48056338  1  0.112678  -4e-06  0.10395  0.176501  2.1e-05  1.001961  0.0
H  H35  1  0.94402907  0.35697623  0.01943519  1  0.112629  4e-06  0.103959  0.176511  -2.1e-05  1.002067  0.0
H  H36  1  0.03751084  0.08177013  0.63039497  1  0.115531  -0.000352  0.104078  0.176988  -0.000205  1.007666  0.0
H  H37  1  0.96248727  0.58177123  0.86960516  1  0.115496  0.000353  0.104087  0.17702  0.000205  1.007646  0.0
H  H38  1  0.96248833  0.91822860  0.36960364  1  0.115523  -0.000353  0.104072  0.176975  -0.000205  1.007671  0.0
H  H39  1  0.03751190  0.41822832  0.13039345  1  0.115523  0.000353  0.104067  0.17697  0.000205  1.007702  0.0
H  H40  1  0.93271770  0.19302817  0.65009918  1  0.111574  9e-06  0.105412  0.17386  -2e-06  0.993356  0.0
H  H41  1  0.06728113  0.69302882  0.84990085  1  0.111561  -9e-06  0.105389  0.173819  2e-06  0.99338  0.0
H  H42  1  0.06727960  0.80696894  0.34989997  1  0.111518  9e-06  0.105416  0.173902  -2e-06  0.993351  0.0
H  H43  1  0.93271897  0.30696992  0.15009788  1  0.111563  -9e-06  0.105415  0.173876  2e-06  0.993355  0.0
H  H44  1  0.58301530  0.79324643  0.35708330  1  0.447308  -0.001818  0.343517  0.277531  -0.001244  0.900928  -0.002
H  H45  1  0.41698506  0.29324561  0.14291479  1  0.447434  0.001819  0.343535  0.277511  0.001244  0.901016  0.002
H  H46  1  0.41698294  0.20675638  0.64291364  1  0.447411  -0.001819  0.343509  0.277479  -0.001244  0.900978  -0.002
H  H47  1  0.58301597  0.70675394  0.85708792  1  0.447452  0.001818  0.343525  0.277515  0.001244  0.900993  0.002
C  C48  1  0.51270424  0.93671183  0.28699716  1  1.348574  -0.002323  0.215477  0.394229  -0.00296  4.165792  -0.001
C  C49  1  0.48729142  0.43671124  0.21300088  1  1.348686  0.002322  0.215566  0.394454  0.00296  4.16563  0.001
C  C50  1  0.48729306  0.06329342  0.71300200  1  1.34873  -0.002323  0.215488  0.394127  -0.002961  4.16586  -0.001
C  C51  1  0.51271055  0.56328668  0.78700039  1  1.348618  0.002322  0.215552  0.394441  0.002959  4.165427  0.001
C  C52  1  0.46559976  0.88922508  0.18421440  1  -0.064291  0.001118  -0.002703  -0.051564  0.000556  3.99124  0.001
C  C53  1  0.53439747  0.38922128  0.31578159  1  -0.064335  -0.001118  -0.002674  -0.051729  -0.000555  3.991429  -0.001
C  C54  1  0.53440034  0.11077691  0.81578664  1  -0.064326  0.001118  -0.002696  -0.051518  0.000556  3.991274  0.001
C  C55  1  0.46560076  0.61077746  0.68421922  1  -0.064365  -0.001118  -0.002667  -0.051663  -0.000556  3.991225  -0.001
C  C56  1  0.46211084  0.77699816  0.16533940  1  0.557146  -0.00258  0.058505  0.080971  -0.0009  3.900746  -0.002
C  C57  1  0.53788941  0.27699679  0.33465948  1  0.557078  0.002579  0.058572  0.081146  0.0009  3.900856  0.002
C  C58  1  0.53788832  0.22300301  0.83466075  1  0.557127  -0.00258  0.058538  0.080995  -0.0009  3.900782  -0.002
C  C59  1  0.46211069  0.72300276  0.66534157  1  0.557053  0.002579  0.058533  0.081013  0.0009  3.900801  0.002
C  C60  1  0.36793152  0.80221839  0.99349302  1  0.40222  -0.000782  0.046955  0.090892  -8.5e-05  3.884772  -0.001
C  C61  1  0.63206989  0.30221730  0.50650559  1  0.40205  0.000782  0.0469  0.09084  8.4e-05  3.884744  0.001
C  C62  1  0.63206952  0.19777790  0.00650891  1  0.402303  -0.000783  0.0469  0.090858  -8.5e-05  3.884569  -0.001
C  C63  1  0.36792928  0.69778062  0.49349379  1  0.4022  0.000782  0.046957  0.09092  8.4e-05  3.884764  0.001
C  C64  1  0.36682139  0.91453334  0.00634735  1  0.081174  0.005618  -0.077117  -0.112853  0.00392  3.962702  0.005
C  C65  1  0.63318068  0.41453052  0.49365230  1  0.081356  -0.005618  -0.077148  -0.112937  -0.003919  3.962841  -0.005
C  C66  1  0.63317965  0.08546377  0.99365304  1  0.081209  0.005618  -0.077132  -0.112796  0.003919  3.962678  0.005
C  C67  1  0.36682223  0.58546740  0.50634832  1  0.081164  -0.005618  -0.077143  -0.112865  -0.003919  3.962813  -0.005
C  C68  1  0.41662619  0.95868825  0.10240144  1  -0.092143  -0.003969  -0.057902  -0.04579  -0.002743  3.936704  -0.002
C  C69  1  0.58337522  0.45868292  0.39759728  1  -0.092224  0.003969  -0.057875  -0.04562  0.002743  3.936625  0.002
C  C70  1  0.58337204  0.04131373  0.89759860  1  -0.092209  -0.003969  -0.057874  -0.045759  -0.002743  3.93663  -0.002
C  C71  1  0.41662769  0.54131499  0.60240334  1  -0.092091  0.003969  -0.057882  -0.045725  0.002743  3.936728  0.002
C  C72  1  0.83546262  0.01486815  0.74893545  1  -0.258573  -0.011626  -0.228292  -0.489961  -0.007978  3.772494  -0.008
C  C73  1  0.16453693  0.51486866  0.75106497  1  -0.258576  0.011627  -0.228322  -0.489988  0.007978  3.772484  0.008
C  C74  1  0.16453655  0.98512814  0.25106239  1  -0.259011  -0.011623  -0.228336  -0.48998  -0.007976  3.772518  -0.008
C  C75  1  0.83546598  0.48513414  0.24893565  1  -0.259592  0.011626  -0.228293  -0.489996  0.007978  3.772565  0.008
C  C76  1  0.94801491  0.12191498  0.60229281  1  -0.235718  -0.002523  -0.230271  -0.492896  -0.001496  3.751853  -0.002
C  C77  1  0.05198346  0.62191546  0.89770651  1  -0.235703  0.002525  -0.230261  -0.492898  0.001497  3.751781  0.002
C  C78  1  0.05198426  0.87808213  0.39770502  1  -0.235661  -0.002523  -0.230229  -0.492925  -0.001496  3.751788  -0.002
C  C79  1  0.94801571  0.37808327  0.10229288  1  -0.235709  0.002523  -0.230265  -0.492924  0.001496  3.75184  0.002
S  S80  1  0.82528692  0.02502741  0.60961952  1  1.163195  -0.009399  0.308063  0.714943  -0.008954  3.867002  -0.002
S  S81  1  0.17471271  0.52502853  0.89038013  1  1.163498  0.009404  0.30803  0.714869  0.008957  3.867146  0.002
S  S82  1  0.17470945  0.97497051  0.39037720  1  1.163011  -0.009397  0.308042  0.714944  -0.008952  3.866925  -0.002
S  S83  1  0.82528646  0.47497183  0.10961849  1  1.163192  0.0094  0.308086  0.714935  0.008954  3.866903  0.002
N  N84  1  0.56614437  0.87400759  0.36438209  1  -0.65242  -0.002339  -0.312017  -0.120718  -0.001723  3.77177  0.001
N  N85  1  0.43385088  0.37400606  0.13561523  1  -0.652587  0.002341  -0.312053  -0.120723  0.001725  3.77178  -0.001
N  N86  1  0.43385480  0.12599521  0.63561652  1  -0.652628  -0.002339  -0.31207  -0.120636  -0.001722  3.771706  0.001
N  N87  1  0.56615015  0.62599267  0.86438671  1  -0.652348  0.00234  -0.312022  -0.120698  0.001724  3.771711  -0.001
N  N88  1  0.41522293  0.73501916  0.07216760  1  -1.211732  0.070593  -0.349261  -0.225923  0.048402  3.632062  0.061
N  N89  1  0.58477799  0.23501704  0.42783143  1  -1.211601  -0.070591  -0.349323  -0.226015  -0.0484  3.632049  -0.061
N  N90  1  0.58477811  0.26498364  0.92783356  1  -1.211733  0.070595  -0.349337  -0.226075  0.048403  3.631893  0.061
N  N91  1  0.41522118  0.76498006  0.57217027  1  -1.211691  -0.070592  -0.349328  -0.225997  -0.048401  3.632077  -0.061
Cl  Cl92  1  0.84500318  0.11643656  0.28111496  1  3.023199  0.000262  0.71392  1.289265  0.000177  6.799444  0.0
Cl  Cl93  1  0.15499510  0.61643708  0.21888317  1  3.023132  -0.000262  0.71379  1.288896  -0.000177  6.799859  0.0
Cl  Cl94  1  0.15499411  0.88356543  0.71888728  1  3.023042  0.000262  0.713774  1.289177  0.000177  6.79977  0.0
Cl  Cl95  1  0.84500594  0.38356735  0.78111489  1  3.022981  -0.000262  0.713905  1.289387  -0.000177  6.79952  0.0
O  O96  1  0.50201159  0.03920329  0.30365655  1  -1.109373  -0.083344  -0.316128  -0.506926  -0.054909  2.34347  -0.075
O  O97  1  0.49798057  0.53920234  0.19634560  1  -1.109469  0.083348  -0.316141  -0.506994  0.054912  2.343573  0.075
O  O98  1  0.49798383  0.96080114  0.69634082  1  -1.109354  -0.083355  -0.3161  -0.506883  -0.054916  2.343681  -0.075
O  O99  1  0.50201953  0.46079476  0.80365622  1  -1.109542  0.083351  -0.316135  -0.507015  0.054915  2.343406  0.075
O  O100  1  0.60172069  0.91641393  0.46079193  1  -0.615556  -0.103205  -0.270237  -0.432716  -0.068193  2.245433  -0.093
O  O101  1  0.39827389  0.41641240  0.03921066  1  -0.615573  0.103209  -0.270249  -0.432738  0.068196  2.245477  0.093
O  O102  1  0.39828034  0.08358724  0.53920923  1  -0.615628  -0.103214  -0.270231  -0.432718  -0.0682  2.245416  -0.093
O  O103  1  0.60172714  0.58358552  0.96079283  1  -0.615684  0.103205  -0.270258  -0.432757  0.068193  2.245421  0.093
O  O104  1  0.70279441  0.09188788  0.58180513  1  -1.168442  -0.10335  -0.356578  -0.55815  -0.06751  2.339678  -0.092
O  O105  1  0.29719909  0.59188957  0.91819442  1  -1.168726  0.103347  -0.35655  -0.558075  0.06751  2.339799  0.092
O  O106  1  0.29720663  0.90810922  0.41819604  1  -1.168309  -0.103348  -0.356581  -0.558174  -0.067509  2.339637  -0.092
O  O107  1  0.70279538  0.40810998  0.08180903  1  -1.168487  0.10335  -0.35659  -0.558118  0.067511  2.339652  0.092
O  O108  1  0.79335965  0.04601908  0.35653570  1  -0.973369  0.001319  -0.329064  -0.562754  0.000977  2.194121  0.0
O  O109  1  0.20664098  0.54602245  0.14346285  1  -0.97319  -0.001319  -0.329003  -0.562568  -0.000976  2.194223  0.0
O  O110  1  0.20664232  0.95398291  0.64346635  1  -0.973048  0.00132  -0.329034  -0.562717  0.000977  2.194021  0.0
O  O111  1  0.79336193  0.45398198  0.85653468  1  -0.973351  -0.001319  -0.329036  -0.562739  -0.000977  2.194179  0.0
O  O112  1  0.85973308  0.05246493  0.18831943  1  -0.984557  2.4e-05  -0.324986  -0.507239  5e-06  2.03134  0.0
O  O113  1  0.14026666  0.55246684  0.31167823  1  -0.984472  -2.4e-05  -0.324957  -0.507118  -5e-06  2.031434  0.0
O  O114  1  0.14026234  0.94753705  0.81167949  1  -0.984492  2.4e-05  -0.324921  -0.507168  5e-06  2.031582  0.0
O  O115  1  0.85973719  0.44753759  0.68831942  1  -0.984447  -2.4e-05  -0.324935  -0.507223  -5e-06  2.03152  0.0
O  O116  1  0.96658740  0.15810808  0.32943013  1  -0.999072  0.000182  -0.325131  -0.516318  0.000121  2.053972  0.0
O  O117  1  0.03341302  0.65810971  0.17056742  1  -0.999099  -0.000182  -0.325073  -0.516228  -0.00012  2.054047  0.0
O  O118  1  0.03341364  0.84189390  0.67056948  1  -0.999237  0.000182  -0.32508  -0.516293  0.00012  2.054169  0.0
O  O119  1  0.96658896  0.34189391  0.82942999  1  -0.999079  -0.000182  -0.325131  -0.516343  -0.00012  2.054011  0.0
O  O120  1  0.75966460  0.20742186  0.25170236  1  -0.981611  0.000213  -0.314637  -0.511281  0.000208  2.126838  0.0
O  O121  1  0.24033427  0.70742603  0.24829801  1  -0.981765  -0.000213  -0.31465  -0.511274  -0.000208  2.126813  0.0
O  O122  1  0.24033456  0.79258012  0.74830166  1  -0.981657  0.000212  -0.314643  -0.511316  0.000207  2.126739  0.0
O  O123  1  0.75966771  0.29257922  0.75170017  1  -0.981499  -0.000213  -0.314703  -0.51143  -0.000208  2.126664  0.0
