# generated using pymatgen
data_CdH12C12(IN)2
_symmetry_space_group_name_H-M   'P 1'
_cell_length_a   4.46018373
_cell_length_b   8.84124499
_cell_length_c   19.24667380
_cell_angle_alpha   98.68478480
_cell_angle_beta   89.85689198
_cell_angle_gamma   104.75835335
_symmetry_Int_Tables_number   1
_chemical_formula_structural   CdH12C12(IN)2
_chemical_formula_sum   'Cd2 H24 C24 I4 N4'
_cell_volume   724.99709163
_cell_formula_units_Z   2
loop_
 _symmetry_equiv_pos_site_id
 _symmetry_equiv_pos_as_xyz
  1  'x, y, z'
loop_
 _atom_site_type_symbol
 _atom_site_label
 _atom_site_symmetry_multiplicity
 _atom_site_fract_x
 _atom_site_fract_y
 _atom_site_fract_z
 _atom_site_occupancy
 _atom_site_pbe_bader_spin_density
 _atom_site_pbe_cm5_charge
 _atom_site_pbe_ddec_charge
 _atom_site_pbe_ddec_spin_density
 _atom_site_pbe_ddec_sum_bond_order
 _atom_site_pbe_magmom
Cd  Cd0  1  0.79266502  0.99960598  0.75014100  1  0  0.500356  0.600032  0  2.466755  0
Cd  Cd1  1  0.20733957  0.00039273  0.24985941  1  0  0.500349  0.599995  0  2.466782  0
H  H2  1  0.17784460  0.10985564  0.86883495  1  0  0.279314  0.276734  0  0.98479  0
H  H3  1  0.06853294  0.89083131  0.63108158  1  0  0.279376  0.276751  0  0.984201  0
H  H4  1  0.82215326  0.89014307  0.13116598  1  0  0.279301  0.276763  0  0.984732  0
H  H5  1  0.93146269  0.10916741  0.36891831  1  0  0.279382  0.27669  0  0.984202  0
H  H6  1  0.25175285  0.24867892  0.81766742  1  0  0.281497  0.281124  0  0.977678  0
H  H7  1  0.00374672  0.75117107  0.68176411  1  0  0.282195  0.281046  0  0.976411  0
H  H8  1  0.74824830  0.75131741  0.18233385  1  0  0.281471  0.281086  0  0.977703  0
H  H9  1  0.99624997  0.24882529  0.31823509  1  0  0.282212  0.28104  0  0.976397  0
H  H10  1  0.79894379  0.10269398  0.96115510  1  0  0.097627  0.111493  0  0.999999  0
H  H11  1  0.69986720  0.89718290  0.53875824  1  0  0.097808  0.111918  0  0.999472  0
H  H12  1  0.20105303  0.89730710  0.03884548  1  0  0.097622  0.111497  0  0.999996  0
H  H13  1  0.30013021  0.10281937  0.46124242  1  0  0.097797  0.111908  0  0.999506  0
H  H14  1  0.51677396  0.25954239  0.03794814  1  0  0.085655  0.089982  0  1.06036  0
H  H15  1  0.26093579  0.74043900  0.46204233  1  0  0.085555  0.089937  0  1.060331  0
H  H16  1  0.48322794  0.74045988  0.96205200  1  0  0.085631  0.089962  0  1.060365  0
H  H17  1  0.73906116  0.25956681  0.53795859  1  0  0.085556  0.089902  0  1.060283  0
H  H18  1  0.69611710  0.61239010  0.89938649  1  0  0.08569  0.091768  0  1.052711  0
H  H19  1  0.08052559  0.38760906  0.60063311  1  0  0.08599  0.092014  0  1.052249  0
H  H20  1  0.30390168  0.38761454  0.10061433  1  0  0.085687  0.091779  0  1.052725  0
H  H21  1  0.91947006  0.61238968  0.39936470  1  0  0.08597  0.09201  0  1.052245  0
H  H22  1  0.97882669  0.45536840  0.82356497  1  0  0.088494  0.108563  0  1.026393  0
H  H23  1  0.51989710  0.54473332  0.67646475  1  0  0.08879  0.108938  0  1.025671  0
H  H24  1  0.02117790  0.54463032  0.17643544  1  0  0.088486  0.108523  0  1.026417  0
H  H25  1  0.48009676  0.45526186  0.32353385  1  0  0.088789  0.108935  0  1.025723  0
C  C26  1  0.91057270  0.26880839  0.88733969  1  0  0.071187  0.261814  0  4.04444  0
C  C27  1  0.64210616  0.73109127  0.61260797  1  0  0.070735  0.260164  0  4.045312  0
C  C28  1  0.08942966  0.73119033  0.11266020  1  0  0.071169  0.261738  0  4.044581  0
C  C29  1  0.35788723  0.26890745  0.38739141  1  0  0.070693  0.260207  0  4.045216  0
C  C30  1  0.77352052  0.21415791  0.94734010  1  0  -0.108771  -0.196557  0  4.00543  0
C  C31  1  0.56155480  0.78570124  0.55258676  1  0  -0.108862  -0.196509  0  4.004297  0
C  C32  1  0.22647736  0.78584082  0.05265927  1  0  -0.108801  -0.196622  0  4.005489  0
C  C33  1  0.43843588  0.21430102  0.44741338  1  0  -0.108882  -0.196576  0  4.004397  0
C  C34  1  0.61243733  0.30434108  0.99071485  1  0  -0.093328  -0.106517  0  3.978914  0
C  C35  1  0.31022135  0.69554010  0.50923904  1  0  -0.093252  -0.10696  0  3.979031  0
C  C36  1  0.38756457  0.69566119  0.00928529  1  0  -0.093302  -0.106469  0  3.978879  0
C  C37  1  0.68976874  0.30446099  0.49076103  1  0  -0.09318  -0.106861  0  3.979049  0
C  C38  1  0.58099956  0.45108559  0.97611358  1  0  -0.01278  0.058358  0  3.970396  0
C  C39  1  0.13005267  0.54888854  0.52386155  1  0  -0.013264  0.057619  0  3.970024  0
C  C40  1  0.41900683  0.54891670  0.02388604  1  0  -0.012739  0.058453  0  3.970304  0
C  C41  1  0.86993909  0.45111138  0.47613635  1  0  -0.013328  0.057663  0  3.96995  0
C  C42  1  0.71327283  0.50072922  0.91420358  1  0  -0.092619  -0.102123  0  3.965572  0
C  C43  1  0.21092962  0.49919907  0.58575321  1  0  -0.091335  -0.100264  0  3.963595  0
C  C44  1  0.28673744  0.49927187  0.08579700  1  0  -0.09261  -0.102193  0  3.965629  0
C  C45  1  0.78906722  0.50080204  0.41424477  1  0  -0.091285  -0.100262  0  3.963608  0
C  C46  1  0.87382222  0.41138821  0.87031248  1  0  -0.109366  -0.190445  0  3.990707  0
C  C47  1  0.46073585  0.58857544  0.62966670  1  0  -0.110006  -0.191918  0  3.990938  0
C  C48  1  0.12618521  0.58861169  0.12968801  1  0  -0.109363  -0.190323  0  3.990839  0
C  C49  1  0.53926487  0.41142448  0.37033224  1  0  -0.110043  -0.192032  0  3.991041  0
I  I50  1  0.50443622  0.18812065  0.68110749  1  0  -0.214548  -0.421707  0  1.398645  0
I  I51  1  0.31491288  0.81206499  0.81975800  1  0  -0.214344  -0.421063  0  1.400913  0
I  I52  1  0.49556448  0.81187925  0.31889300  1  0  -0.214551  -0.421719  0  1.398673  0
I  I53  1  0.68508559  0.18793491  0.18024198  1  0  -0.214336  -0.421053  0  1.400907  0
N  N54  1  0.07911250  0.17909979  0.84279227  1  0  -0.609417  -0.562767  0  3.447049  0
N  N55  1  0.90042746  0.82085688  0.65710112  1  0  -0.608362  -0.561447  0  3.443836  0
N  N56  1  0.92088985  0.82089892  0.15720866  1  0  -0.609365  -0.562731  0  3.446935  0
N  N57  1  0.09956534  0.17914065  0.34289868  1  0  -0.608345  -0.561284  0  3.443858  0
