# generated using pymatgen
data_CsH21C18SO10
_symmetry_space_group_name_H-M   'P 1'
_cell_length_a   7.47040852
_cell_length_b   8.29022678
_cell_length_c   16.99200000
_cell_angle_alpha   75.69145422
_cell_angle_beta   81.74670245
_cell_angle_gamma   82.57011996
_symmetry_Int_Tables_number   1
_chemical_formula_structural   CsH21C18SO10
_chemical_formula_sum   'Cs2 H42 C36 S2 O20'
_cell_volume   1004.28954432
_cell_formula_units_Z   2
loop_
 _symmetry_equiv_pos_site_id
 _symmetry_equiv_pos_as_xyz
  1  'x, y, z'
loop_
 _atom_site_type_symbol
 _atom_site_label
 _atom_site_symmetry_multiplicity
 _atom_site_fract_x
 _atom_site_fract_y
 _atom_site_fract_z
 _atom_site_occupancy
 _atom_site_hle17_bader_spin_density
 _atom_site_hle17_ddec_charge
 _atom_site_hle17_ddec_spin_density
 _atom_site_hle17_ddec_sum_bond_order
 _atom_site_hle17_magmom
 _atom_site_hse06_10hf_bader_spin_density
 _atom_site_hse06_10hf_ddec_charge
 _atom_site_hse06_10hf_ddec_spin_density
 _atom_site_hse06_10hf_ddec_sum_bond_order
 _atom_site_hse06_10hf_magmom
 _atom_site_hse06_bader_spin_density
 _atom_site_hse06_ddec_charge
 _atom_site_hse06_ddec_spin_density
 _atom_site_hse06_ddec_sum_bond_order
 _atom_site_hse06_magmom
 _atom_site_pbe_bader_charge
 _atom_site_pbe_bader_spin_density
 _atom_site_pbe_cm5_charge
 _atom_site_pbe_ddec_charge
 _atom_site_pbe_ddec_spin_density
 _atom_site_pbe_ddec_sum_bond_order
 _atom_site_pbe_magmom
Cs  Cs0  1  0.70257544  0.85108604  0.06946484  1  0  0.964643  0  0.52034  0  0  0.914286  0  0.744722  0  0  0.929344  0  0.71927  0  0.916529  0  0.808075  0.903167  0  0.762823  0
Cs  Cs1  1  0.29742525  0.14891232  0.93053531  1  0  0.964631  0  0.52035  0  0  0.914269  0  0.744737  0  0  0.929328  0  0.719286  0  0.916525  0  0.808066  0.903157  0  0.762826  0
H  H2  1  0.33384114  0.07499403  0.27565760  1  0  0.083444  0  0.937949  0  0  0.10213  0  1.004739  0  0  0.101866  0  1.005083  0  0.045056  0  0.096549  0.102251  0  1.004532  0
H  H3  1  0.66615942  0.92500558  0.72434182  1  0  0.08342  0  0.937953  0  0  0.102105  0  1.004746  0  0  0.101842  0  1.005087  0  0.045043  0  0.096539  0.102225  0  1.004539  0
H  H4  1  0.43791896  0.86501061  0.29885932  1  0  0.087481  0  0.979241  0  0  0.100609  0  1.052586  0  0  0.101644  0  1.051208  0  0.091232  0  0.098911  0.099782  0  1.053653  0
H  H5  1  0.56208038  0.13498775  0.70114033  1  0  0.087466  0  0.979255  0  0  0.100589  0  1.052604  0  0  0.101622  0  1.051225  0  0.091235  0  0.098909  0.099763  0  1.053668  0
H  H6  1  0.38323629  0.96140434  0.19676548  1  0  0.105139  0  0.970752  0  0  0.120397  0  1.037629  0  0  0.122  0  1.036193  0  0.133668  0  0.108558  0.119071  0  1.038859  0
H  H7  1  0.61676291  0.03859527  0.80323403  1  0  0.105146  0  0.970742  0  0  0.1204  0  1.037626  0  0  0.122004  0  1.036188  0  0.133762  0  0.10856  0.119073  0  1.038858  0
H  H8  1  0.51033169  0.97044805  0.38922586  1  0  0.118912  0  0.979652  0  0  0.127663  0  1.043907  0  0  0.130855  0  1.042483  0  0.117704  0  0.106195  0.125372  0  1.045088  0
H  H9  1  0.48966752  0.02955156  0.61077424  1  0  0.118919  0  0.979642  0  0  0.12767  0  1.043898  0  0  0.130862  0  1.042474  0  0.117698  0  0.106198  0.125379  0  1.045078  0
H  H10  1  0.66851673  0.05629368  0.48718110  1  0  0.10137  0  0.979493  0  0  0.111325  0  1.040756  0  0  0.114651  0  1.03779  0  0.128566  0  0.101324  0.108898  0  1.042961  0
H  H11  1  0.33148382  0.94370593  0.51281891  1  0  0.101366  0  0.979493  0  0  0.111321  0  1.040757  0  0  0.114648  0  1.03779  0  0.128574  0  0.101324  0.108893  0  1.042963  0
H  H12  1  0.04316383  0.29523036  0.28850293  1  0  0.091518  0  0.99039  0  0  0.098191  0  1.062703  0  0  0.101191  0  1.060506  0  0.098257  0  0.100592  0.096015  0  1.064308  0
H  H13  1  0.95683388  0.70477050  0.71149711  1  0  0.091536  0  0.990386  0  0  0.098218  0  1.062689  0  0  0.101218  0  1.060488  0  0.098184  0  0.100606  0.096033  0  1.0643  0
H  H14  1  0.80891280  0.25024444  0.69783328  1  0  0.097394  0  0.970464  0  0  0.111365  0  1.027551  0  0  0.114073  0  1.025242  0  0.106993  0  0.109545  0.109341  0  1.02931  0
H  H15  1  0.19108762  0.74975641  0.30216659  1  0  0.097365  0  0.970436  0  0  0.111347  0  1.027524  0  0  0.114055  0  1.025212  0  0.107008  0  0.109542  0.109323  0  1.029282  0
H  H16  1  0.00946152  0.33282619  0.78285158  1  0  0.123828  0  0.940887  0  0  0.133919  0  1.000801  0  0  0.137947  0  0.998888  0  0.091714  0  0.115777  0.131003  0  1.002357  0
H  H17  1  0.99053742  0.66717592  0.21714882  1  0  0.123801  0  0.941028  0  0  0.133902  0  1.000916  0  0  0.137929  0  0.999005  0  0.091722  0  0.115763  0.130989  0  1.002472  0
H  H18  1  0.42553960  0.41191553  0.57459796  1  0  0.15154  0  0.942722  0  0  0.159322  0  1.004782  0  0  0.16402  0  1.00141  0  0.131295  0  0.117743  0.156005  0  1.007284  0
H  H19  1  0.57446056  0.58808783  0.42540104  1  0  0.151505  0  0.942823  0  0  0.159293  0  1.004872  0  0  0.163989  0  1.001505  0  0.13128  0  0.117754  0.155977  0  1.007371  0
H  H20  1  0.22171023  0.25426596  0.37640974  1  0  0.081153  0  0.958155  0  0  0.090153  0  1.023342  0  0  0.093058  0  1.019671  0  0.084148  0  0.121005  0.087925  0  1.02616  0
H  H21  1  0.77828910  0.74573240  0.62359050  1  0  0.081142  0  0.958159  0  0  0.090144  0  1.023339  0  0  0.093047  0  1.019669  0  0.084147  0  0.120993  0.087885  0  1.026194  0
H  H22  1  0.45428683  0.61892402  0.65965490  1  0  0.043918  0  0.959531  0  0  0.056543  0  1.029128  0  0  0.055174  0  1.031801  0  0.057019  0  0.093711  0.057466  0  1.027322  0
H  H23  1  0.54571779  0.38107559  0.34034486  1  0  0.043939  0  0.959526  0  0  0.056565  0  1.029111  0  0  0.055196  0  1.031786  0  0.057308  0  0.093744  0.057488  0  1.027305  0
H  H24  1  0.58246895  0.42040762  0.66567104  1  0  0.040611  0  0.967502  0  0  0.052289  0  1.039397  0  0  0.052728  0  1.037867  0  0.051688  0  0.096046  0.051869  0  1.040629  0
H  H25  1  0.41753174  0.57959074  0.33432852  1  0  0.040654  0  0.967479  0  0  0.052331  0  1.039365  0  0  0.05278  0  1.037826  0  0.051707  0  0.096052  0.051909  0  1.040601  0
H  H26  1  0.48567855  0.59280607  0.80938058  1  0  0.118759  0  0.974789  0  0  0.135491  0  1.039352  0  0  0.137922  0  1.038448  0  0.044683  0  0.093617  0.133646  0  1.040129  0
H  H27  1  0.51432349  0.40719228  0.19061949  1  0  0.11873  0  0.974806  0  0  0.135477  0  1.039344  0  0  0.137911  0  1.038435  0  0.044677  0  0.093606  0.133643  0  1.040111  0
H  H28  1  0.70240348  0.58890589  0.75006919  1  0  0.098354  0  0.974074  0  0  0.119166  0  1.041327  0  0  0.119521  0  1.04217  0  0.024361  0  0.085126  0.118852  0  1.040778  0
H  H29  1  0.29760004  0.41109121  0.24993094  1  0  0.098359  0  0.974052  0  0  0.119149  0  1.041334  0  0  0.119503  0  1.042179  0  0.024397  0  0.085117  0.118836  0  1.040789  0
H  H30  1  0.62461254  0.39996482  0.81117370  1  0  0.114052  0  0.973193  0  0  0.134997  0  1.03399  0  0  0.137107  0  1.033355  0  0.079224  0  0.094149  0.13336  0  1.034583  0
H  H31  1  0.37538692  0.60003229  0.18882669  1  0  0.114085  0  0.973187  0  0  0.135031  0  1.033978  0  0  0.137144  0  1.033335  0  0.079265  0  0.094183  0.133394  0  1.034571  0
H  H32  1  0.09256473  0.51898910  0.09034085  1  0  0.421171  0  0.881271  0  0  0.390837  0  0.94414  0  0  0.400714  0  0.929574  0  0.64185  0  0.291585  0.383913  0  0.954342  0
H  H33  1  0.90743583  0.48101051  0.90965916  1  0  0.421179  0  0.88126  0  0  0.390848  0  0.944124  0  0  0.400721  0  0.929563  0  0.641851  0  0.291596  0.383923  0  0.954328  0
H  H34  1  0.13891254  0.63279605  0.00218416  1  0  0.41522  0  0.886389  0  0  0.385333  0  0.948382  0  0  0.395447  0  0.933351  0  0.632947  0  0.295325  0.378237  0  0.95893  0
H  H35  1  0.86108815  0.36720231  0.99781600  1  0  0.415177  0  0.886451  0  0  0.385304  0  0.948425  0  0  0.395419  0  0.933391  0  0.632949  0  0.295313  0.378205  0  0.958976  0
H  H36  1  0.65471765  0.73038811  0.89890850  1  0  0.415194  0  0.881802  0  0  0.390475  0  0.936072  0  0  0.399317  0  0.922991  0  0.613656  0  0.290753  0.384248  0  0.945283  0
H  H37  1  0.34528168  0.26961025  0.10109233  1  0  0.415155  0  0.881863  0  0  0.390424  0  0.936156  0  0  0.399269  0  0.923071  0  0.613646  0  0.290725  0.384195  0  0.94537  0
H  H38  1  0.44357568  0.72047880  0.91638531  1  0  0.422349  0  0.872716  0  0  0.394985  0  0.930737  0  0  0.404486  0  0.916523  0  0.648547  0  0.293537  0.388275  0  0.940785  0
H  H39  1  0.55642366  0.27951956  0.08361375  1  0  0.422367  0  0.872697  0  0  0.395015  0  0.930702  0  0  0.404517  0  0.916487  0  0.648621  0  0.293548  0.388304  0  0.940753  0
H  H40  1  0.22227268  0.76874696  0.08454351  1  0  0.419175  0  0.887292  0  0  0.394044  0  0.941935  0  0  0.404273  0  0.926917  0  0.636436  0  0.282688  0.386842  0  0.952487  0
H  H41  1  0.77772774  0.23125390  0.91545636  1  0  0.419177  0  0.88729  0  0  0.394047  0  0.941929  0  0  0.404276  0  0.92691  0  0.636362  0  0.282685  0.386845  0  0.952481  0
H  H42  1  0.17640466  0.93346014  0.11474895  1  0  0.409602  0  0.899777  0  0  0.385103  0  0.95482  0  0  0.394529  0  0.940966  0  0.621739  0  0.284287  0.378468  0  0.964564  0
H  H43  1  0.82359455  0.06653947  0.88525115  1  0  0.409608  0  0.899767  0  0  0.385113  0  0.9548  0  0  0.394539  0  0.940947  0  0.62174  0  0.2843  0.378479  0  0.964543  0
C  C44  1  0.42965044  0.98168077  0.25138488  1  0  -0.087865  0  3.610599  0  0  -0.187026  0  3.876632  0  0  -0.179459  0  3.879046  0  0.300108  0  -0.150842  -0.191884  0  3.874875  0
C  C45  1  0.57035012  0.01831884  0.74861454  1  0  -0.087812  0  3.610601  0  0  -0.18696  0  3.876634  0  0  -0.179389  0  3.879046  0  0.300032  0  -0.150829  -0.191822  0  3.87488  0
C  C46  1  0.68861643  0.08189252  0.28323788  1  0  0.283732  0  3.785261  0  0  0.267377  0  4.039632  0  0  0.28117  0  4.055261  0  0.502281  0  0.09314  0.258041  0  4.029032  0
C  C47  1  0.31138264  0.91810834  0.71676208  1  0  0.283825  0  3.785227  0  0  0.267404  0  4.039636  0  0  0.281196  0  4.055265  0  0.502189  0  0.093139  0.258065  0  4.029039  0
C  C48  1  0.62736663  0.04186001  0.36692516  1  0  -0.207503  0  3.752388  0  0  -0.2257  0  4.00944  0  0  -0.233061  0  4.029458  0  -0.08729  0  -0.111577  -0.220871  0  3.99599  0
C  C49  1  0.37263379  0.95814085  0.63307471  1  0  -0.207522  0  3.752344  0  0  -0.225709  0  4.009412  0  0  -0.233071  0  4.029432  0  -0.08729  0  -0.111567  -0.220878  0  3.99596  0
C  C50  1  0.71813252  0.08857961  0.42260032  1  0  -0.067409  0  3.727684  0  0  -0.09665  0  3.986212  0  0  -0.093776  0  4.00224  0  0.00233  0  -0.089247  -0.098335  0  3.975258  0
C  C51  1  0.28186669  0.91141999  0.57739977  1  0  -0.067349  0  3.727635  0  0  -0.09659  0  3.986158  0  0  -0.093714  0  4.002186  0  0.00235  0  -0.089238  -0.098274  0  3.975206  0
C  C52  1  0.87099071  0.17918812  0.39714148  1  0  0.056265  0  3.791275  0  0  0.071826  0  4.029178  0  0  0.070026  0  4.054612  0  -0.029971  0  -0.019898  0.072913  0  4.012038  0
C  C53  1  0.12900701  0.82081274  0.60285856  1  0  0.056171  0  3.791332  0  0  0.071723  0  4.029241  0  0  0.069922  0  4.054676  0  -0.029754  0  -0.019928  0.072811  0  4.012099  0
C  C54  1  0.93032048  0.21953209  0.31282100  1  0  -0.093235  0  3.74469  0  0  -0.127239  0  3.996658  0  0  -0.124959  0  4.015534  0  -0.032934  0  -0.087748  -0.128502  0  3.983885  0
C  C55  1  0.06967872  0.78046752  0.68717910  1  0  -0.093162  0  3.744688  0  0  -0.127202  0  3.996629  0  0  -0.124921  0  4.015504  0  -0.032867  0  -0.087749  -0.128456  0  3.983858  0
C  C56  1  0.84394583  0.17046588  0.25661376  1  0  -0.214385  0  3.705159  0  0  -0.194564  0  3.961235  0  0  -0.203822  0  3.979676  0  -0.136088  0  -0.027175  -0.188662  0  3.949053  0
C  C57  1  0.15605446  0.82953623  0.74338597  1  0  -0.214594  0  3.705264  0  0  -0.194675  0  3.961259  0  0  -0.203932  0  3.979702  0  -0.135998  0  -0.027218  -0.188772  0  3.949078  0
C  C58  1  0.96719745  0.23004932  0.45570033  1  0  -0.14901  0  3.782031  0  0  -0.144314  0  4.035661  0  0  -0.156276  0  4.060583  0  0.071035  0  -0.0317  -0.136623  0  4.018992  0
C  C59  1  0.03280162  0.76995154  0.54429962  1  0  -0.149016  0  3.782081  0  0  -0.144288  0  4.035679  0  0  -0.156249  0  4.060599  0  0.070799  0  -0.031693  -0.136594  0  4.019003  0
C  C60  1  0.88091887  0.24349731  0.53768831  1  0  0.388246  0  3.821372  0  0  0.36272  0  4.095503  0  0  0.388852  0  4.096839  0  0.898806  0  0.129579  0.345389  0  4.093975  0
C  C61  1  0.11907750  0.75650355  0.46231182  1  0  0.388206  0  3.82123  0  0  0.362654  0  4.095381  0  0  0.388789  0  4.096716  0  0.898768  0  0.12954  0.345323  0  4.093853  0
C  C62  1  0.99953340  0.28738496  0.58879180  1  0  -0.168192  0  3.821392  0  0  -0.15841  0  4.065223  0  0  -0.172541  0  4.09114  0  -0.015382  0  -0.040074  -0.149415  0  4.047911  0
C  C63  1  0.00046703  0.71261589  0.41120807  1  0  -0.168186  0  3.821423  0  0  -0.158366  0  4.065236  0  0  -0.172506  0  4.091167  0  -0.015423  0  -0.040058  -0.14937  0  4.047923  0
C  C64  1  0.94275923  0.28801290  0.67160115  1  0  -0.025299  0  3.744599  0  0  -0.048753  0  3.993928  0  0  -0.043806  0  4.012752  0  -0.05941  0  -0.078285  -0.051663  0  3.981133  0
C  C65  1  0.05723822  0.71199046  0.32839860  1  0  -0.025229  0  3.7446  0  0  -0.048704  0  3.993926  0  0  -0.043754  0  4.012752  0  -0.059358  0  -0.078292  -0.051614  0  3.98113  0
C  C66  1  0.05382325  0.33312139  0.71886634  1  0  -0.181458  0  3.711177  0  0  -0.2076  0  3.976205  0  0  -0.21555  0  3.994012  0  0.077482  0  -0.096531  -0.202558  0  3.9644  0
C  C67  1  0.94617312  0.66687947  0.28113319  1  0  -0.181478  0  3.711408  0  0  -0.207622  0  3.976438  0  0  -0.215573  0  3.994244  0  0.077477  0  -0.096527  -0.202586  0  3.964636  0
C  C68  1  0.22855426  0.38091298  0.68440683  1  0  0.312418  0  3.80655  0  0  0.29912  0  4.071599  0  0  0.315112  0  4.085081  0  0.445513  0  0.095691  0.288369  0  4.06229  0
C  C69  1  0.77144468  0.61908913  0.31559298  1  0  0.312429  0  3.806568  0  0  0.299136  0  4.071613  0  0  0.315132  0  4.085089  0  0.44548  0  0.095684  0.288386  0  4.062301  0
C  C70  1  0.29008293  0.38187489  0.60276355  1  0  -0.299474  0  3.689036  0  0  -0.330164  0  3.953506  0  0  -0.340372  0  3.969532  0  0.046839  0  -0.110567  -0.323488  0  3.942798  0
C  C71  1  0.70991614  0.61812597  0.39723581  1  0  -0.299444  0  3.689143  0  0  -0.330128  0  3.95363  0  0  -0.340337  0  3.969654  0  0.04685  0  -0.110577  -0.32345  0  3.942918  0
C  C72  1  0.17516417  0.33155907  0.55742791  1  0  0.278974  0  3.771186  0  0  0.260605  0  4.034029  0  0  0.274842  0  4.050619  0  0.385027  0  0.095803  0.251245  0  4.022657  0
C  C73  1  0.82483477  0.66844304  0.44257190  1  0  0.278945  0  3.771141  0  0  0.260529  0  4.034045  0  0  0.274769  0  4.050637  0  0.38506  0  0.095819  0.251168  0  4.022676  0
C  C74  1  0.14315689  0.26674328  0.43399708  1  0  0.135392  0  3.635232  0  0  0.087503  0  3.907838  0  0  0.102344  0  3.917549  0  0.425114  0  0.032759  0.077683  0  3.901189  0
C  C75  1  0.85684367  0.73325633  0.56600293  1  0  0.135404  0  3.635205  0  0  0.087508  0  3.907785  0  0  0.102351  0  3.917495  0  0.425109  0  0.032779  0.077708  0  3.901149  0
C  C76  1  0.49328682  0.49926555  0.70158597  1  0  0.138386  0  3.617531  0  0  0.082027  0  3.889075  0  0  0.090927  0  3.895876  0  0.368241  0  -0.072044  0.076101  0  3.884053  0
C  C77  1  0.50671387  0.50073281  0.29841418  1  0  0.138302  0  3.617623  0  0  0.081943  0  3.889179  0  0  0.090834  0  3.895982  0  0.367924  0  -0.072067  0.076017  0  3.88416  0
C  C78  1  0.58116606  0.52156087  0.77230750  1  0  -0.332784  0  3.689069  0  0  -0.411409  0  3.933419  0  0  -0.414875  0  3.942223  0  -0.062855  0  -0.255016  -0.408728  0  3.927446  0
C  C79  1  0.41883611  0.47843624  0.22769330  1  0  -0.332799  0  3.689088  0  0  -0.411397  0  3.933432  0  0  -0.414865  0  3.942246  0  -0.062926  0  -0.255041  -0.408727  0  3.927448  0
S  S80  1  0.92989798  0.22367119  0.15102266  1  0  1.340871  0  5.598484  0  0  1.232433  0  6.128117  0  0  1.281544  0  6.102366  0  3.172158  0  0.526047  1.198793  0  6.144816  0
S  S81  1  0.07010528  0.77632842  0.84897777  1  0  1.34105  0  5.598326  0  0  1.232545  0  6.127971  0  0  1.281639  0  6.102226  0  3.172202  0  0.526098  1.198908  0  6.144673  0
O  O82  1  0.09160738  0.63668747  0.05907185  1  0  -0.86397  0  1.825254  0  0  -0.810937  0  1.980955  0  0  -0.829405  0  1.950621  0  -1.285593  0  -0.631547  -0.797839  0  2.001912  0
O  O83  1  0.90839318  0.36331213  0.94092816  1  0  -0.863935  0  1.825277  0  0  -0.810888  0  1.980933  0  0  -0.829362  0  1.950618  0  -1.28553  0  -0.631532  -0.797791  0  2.00189  0
O  O84  1  0.54676213  0.75508007  0.93572393  1  0  -0.879353  0  1.770363  0  0  -0.836398  0  1.919421  0  0  -0.85283  0  1.891599  0  -1.279182  0  -0.70045  -0.824735  0  1.938867  0
O  O85  1  0.45323747  0.24491578  0.06427659  1  0  -0.879352  0  1.770396  0  0  -0.836384  0  1.919434  0  0  -0.852818  0  1.891606  0  -1.279236  0  -0.700425  -0.824721  0  1.938882  0
O  O86  1  0.28058894  0.85770434  0.09876259  1  0  -0.909257  0  1.795648  0  0  -0.862953  0  1.952239  0  0  -0.882159  0  1.924637  0  -1.295347  0  -0.710467  -0.849223  0  1.971399  0
O  O87  1  0.71941161  0.14229527  0.90123742  1  0  -0.909268  0  1.795651  0  0  -0.862971  0  1.952247  0  0  -0.882176  0  1.924645  0  -1.295343  0  -0.710469  -0.849242  0  1.971406  0
O  O88  1  0.60515977  0.04259302  0.22551345  1  0  -0.274269  0  2.411371  0  0  -0.199125  0  2.656269  0  0  -0.218722  0  2.661285  0  -1.084267  0  -0.209179  -0.185467  0  2.652413  0
O  O89  1  0.39484079  0.95740659  0.77448656  1  0  -0.274291  0  2.411356  0  0  -0.199147  0  2.656285  0  0  -0.218744  0  2.661299  0  -1.084242  0  -0.209176  -0.185481  0  2.652426  0
O  O90  1  0.71839221  0.21984231  0.56327597  1  0  -0.512543  0  1.946974  0  0  -0.470564  0  2.171759  0  0  -0.488996  0  2.165629  0  -1.14046  0  -0.291905  -0.457765  0  2.175541  0
O  O91  1  0.28161052  0.78016231  0.43672213  1  0  -0.512541  0  1.946764  0  0  -0.470562  0  2.171554  0  0  -0.488996  0  2.165426  0  -1.140412  0  -0.291914  -0.457762  0  2.175336  0
O  O92  1  0.24543990  0.32209256  0.47929019  1  0  -0.19598  0  2.438676  0  0  -0.119396  0  2.666315  0  0  -0.13869  0  2.670822  0  -1.092199  0  -0.116039  -0.106246  0  2.662775  0
O  O93  1  0.75455795  0.67790705  0.52071058  1  0  -0.195908  0  2.438552  0  0  -0.119305  0  2.666198  0  0  -0.138599  0  2.670705  0  -1.09221  0  -0.11601  -0.106153  0  2.662646  0
O  O94  1  0.32871749  0.41963709  0.73643347  1  0  -0.309697  0  2.314976  0  0  -0.235105  0  2.551365  0  0  -0.25559  0  2.555382  0  -1.07405  0  -0.193427  -0.220704  0  2.548076  0
O  O95  1  0.67128132  0.58036627  0.26356561  1  0  -0.309683  0  2.31495  0  0  -0.235097  0  2.551344  0  0  -0.255586  0  2.555363  0  -1.074051  0  -0.193429  -0.220699  0  2.548056  0
O  O96  1  0.09379936  0.30914742  0.14748454  1  0  -0.69037  0  1.992011  0  0  -0.621804  0  2.228473  0  0  -0.644289  0  2.213929  0  -1.341078  0  -0.328141  -0.606124  0  2.238005  0
O  O97  1  0.90620390  0.69085219  0.85251766  1  0  -0.690435  0  1.992091  0  0  -0.621881  0  2.228545  0  0  -0.644354  0  2.214028  0  -1.34122  0  -0.328171  -0.606192  0  2.238062  0
O  O98  1  0.78721120  0.33568440  0.10727810  1  0  -0.684055  0  1.981609  0  0  -0.622362  0  2.217916  0  0  -0.64369  0  2.201287  0  -1.334525  0  -0.32217  -0.60755  0  2.22901  0
O  O99  1  0.21279219  0.66431396  0.89272247  1  0  -0.684178  0  1.9816  0  0  -0.622376  0  2.217838  0  0  -0.643697  0  2.201214  0  -1.334578  0  -0.322178  -0.607587  0  2.228962  0
O  O100  1  0.97168255  0.06581397  0.12444728  1  0  -0.712951  0  2.006097  0  0  -0.661766  0  2.260872  0  0  -0.683818  0  2.24704  0  -1.341622  0  -0.384097  -0.646155  0  2.269735  0
O  O101  1  0.02831814  0.93418439  0.87555405  1  0  -0.71293  0  2.006017  0  0  -0.66175  0  2.26081  0  0  -0.683804  0  2.24699  0  -1.341499  0  -0.384087  -0.646135  0  2.269661  0
