# generated using pymatgen
data_CuH30C16S2I
_symmetry_space_group_name_H-M   'P 1'
_cell_length_a   8.35418640
_cell_length_b   10.25697794
_cell_length_c   10.97410487
_cell_angle_alpha   74.90993301
_cell_angle_beta   77.22343420
_cell_angle_gamma   87.04669212
_symmetry_Int_Tables_number   1
_chemical_formula_structural   CuH30C16S2I
_chemical_formula_sum   'Cu2 H60 C32 S4 I2'
_cell_volume   885.43248252
_cell_formula_units_Z   2
loop_
 _symmetry_equiv_pos_site_id
 _symmetry_equiv_pos_as_xyz
  1  'x, y, z'
loop_
 _atom_site_type_symbol
 _atom_site_label
 _atom_site_symmetry_multiplicity
 _atom_site_fract_x
 _atom_site_fract_y
 _atom_site_fract_z
 _atom_site_occupancy
 _atom_site_hle17_bader_spin_density
 _atom_site_hle17_ddec_charge
 _atom_site_hle17_ddec_spin_density
 _atom_site_hle17_ddec_sum_bond_order
 _atom_site_hle17_magmom
 _atom_site_hse06_10hf_bader_spin_density
 _atom_site_hse06_10hf_ddec_charge
 _atom_site_hse06_10hf_ddec_spin_density
 _atom_site_hse06_10hf_ddec_sum_bond_order
 _atom_site_hse06_10hf_magmom
 _atom_site_hse06_bader_spin_density
 _atom_site_hse06_ddec_charge
 _atom_site_hse06_ddec_spin_density
 _atom_site_hse06_ddec_sum_bond_order
 _atom_site_hse06_magmom
 _atom_site_pbe_bader_spin_density
 _atom_site_pbe_cm5_charge
 _atom_site_pbe_ddec_charge
 _atom_site_pbe_ddec_spin_density
 _atom_site_pbe_ddec_sum_bond_order
 _atom_site_pbe_magmom
Cu  Cu0  1  0.54252414  0.15912744  0.97253014  1  0  0.161203  0  2.238934  0  0  0.083578  0  2.726692  0  0  0.091806  0  2.679392  0  0  0.244024  0.079367  0  2.757509  0
Cu  Cu1  1  0.45747906  0.84087734  0.02746759  1  0  0.161161  0  2.239022  0  0  0.083561  0  2.726782  0  0  0.091788  0  2.679514  0  0  0.243995  0.079336  0  2.757585  0
H  H2  1  0.42408745  0.51047164  0.68131948  1  0  0.056298  0  0.92763  0  0  0.073878  0  0.983325  0  0  0.074092  0  0.984697  0  0  0.097409  0.073876  0  0.982096  0
H  H3  1  0.57591080  0.48953013  0.31868165  1  0  0.056295  0  0.927613  0  0  0.07388  0  0.983323  0  0  0.074093  0  0.984695  0  0  0.097417  0.073879  0  0.982097  0
H  H4  1  0.72247344  0.32407283  0.67816365  1  0  0.065734  0  0.951143  0  0  0.081341  0  1.020168  0  0  0.082908  0  1.019173  0  0  0.083231  0.08009  0  1.021039  0
H  H5  1  0.27752111  0.67592795  0.32183378  1  0  0.06572  0  0.951078  0  0  0.081364  0  1.020084  0  0  0.082935  0  1.019085  0  0  0.083229  0.080117  0  1.02095  0
H  H6  1  0.58054727  0.34237375  0.57817277  1  0  0.067249  0  0.94767  0  0  0.082341  0  1.015916  0  0  0.083614  0  1.015727  0  0  0.086497  0.081449  0  1.016054  0
H  H7  1  0.41944982  0.65763307  0.42182367  1  0  0.067201  0  0.947649  0  0  0.082334  0  1.015868  0  0  0.083605  0  1.015683  0  0  0.086489  0.08144  0  1.01601  0
H  H8  1  0.83923291  0.47517223  0.46389204  1  0  0.058967  0  0.957826  0  0  0.078076  0  1.019757  0  0  0.078669  0  1.020399  0  0  0.086672  0.077465  0  1.019586  0
H  H9  1  0.16076657  0.52482954  0.53610796  1  0  0.058924  0  0.957829  0  0  0.078041  0  1.019772  0  0  0.078635  0  1.020412  0  0  0.086651  0.077434  0  1.019594  0
H  H10  1  0.66614285  0.58119734  0.47353711  1  0  0.056971  0  0.953972  0  0  0.074503  0  1.022551  0  0  0.075018  0  1.023137  0  0  0.084694  0.074031  0  1.022332  0
H  H11  1  0.33385543  0.41880646  0.52646442  1  0  0.056996  0  0.953934  0  0  0.074521  0  1.022551  0  0  0.075035  0  1.023136  0  0  0.084724  0.074048  0  1.022333  0
H  H12  1  0.89308146  0.68432109  0.52921981  1  0  0.063866  0  0.942257  0  0  0.085162  0  0.999261  0  0  0.085953  0  0.999704  0  0  0.089701  0.084574  0  0.998997  0
H  H13  1  0.10692045  0.31567865  0.47078210  1  0  0.063862  0  0.942195  0  0  0.085135  0  0.999237  0  0  0.085928  0  0.999678  0  0  0.089692  0.084551  0  0.99897  0
H  H14  1  0.91258246  0.53595608  0.65005162  1  0  0.055351  0  0.954873  0  0  0.078362  0  1.012791  0  0  0.078357  0  1.014142  0  0  0.086617  0.078346  0  1.011894  0
H  H15  1  0.08741576  0.46404367  0.34995000  1  0  0.055333  0  0.954872  0  0  0.078353  0  1.012784  0  0  0.078347  0  1.014133  0  0  0.086623  0.078335  0  1.011889  0
H  H16  1  0.61059060  0.71855263  0.64881022  1  0  0.059058  0  0.939757  0  0  0.0793  0  1.001164  0  0  0.079801  0  1.00192  0  0  0.086047  0.078744  0  1.001097  0
H  H17  1  0.38940888  0.28144914  0.35119069  1  0  0.05906  0  0.939748  0  0  0.079309  0  1.001159  0  0  0.07981  0  1.001912  0  0  0.08604  0.078755  0  1.001092  0
H  H18  1  0.75016677  0.70754595  0.74982800  1  0  0.062433  0  0.958119  0  0  0.078139  0  1.025035  0  0  0.07936  0  1.024933  0  0  0.079648  0.077561  0  1.024678  0
H  H19  1  0.24983146  0.29245482  0.25017246  1  0  0.062426  0  0.958081  0  0  0.078137  0  1.025  0  0  0.079358  0  1.024898  0  0  0.079642  0.077561  0  1.024645  0
H  H20  1  0.50094502  0.56860475  0.86784883  1  0  0.067988  0  0.962194  0  0  0.085089  0  1.028661  0  0  0.086006  0  1.028753  0  0  0.083582  0.084429  0  1.028617  0
H  H21  1  0.49905566  0.43139500  0.13215237  1  0  0.067993  0  0.9622  0  0  0.085099  0  1.028663  0  0  0.086016  0  1.028756  0  0  0.083584  0.084437  0  1.028621  0
H  H22  1  0.67542719  0.46434587  0.85345288  1  0  0.061168  0  0.970298  0  0  0.077037  0  1.042323  0  0  0.077745  0  1.042748  0  0  0.080173  0.076315  0  1.042463  0
H  H23  1  0.32457350  0.53565488  0.14654444  1  0  0.061202  0  0.970226  0  0  0.077062  0  1.042253  0  0  0.077768  0  1.04268  0  0  0.080197  0.076342  0  1.04239  0
H  H24  1  0.19835039  0.30277199  0.02378615  1  0  0.085054  0  0.967188  0  0  0.100868  0  1.031429  0  0  0.102581  0  1.030545  0  0  0.086797  0.099422  0  1.032155  0
H  H25  1  0.80165029  0.69722776  0.97621415  1  0  0.085049  0  0.967161  0  0  0.100861  0  1.03141  0  0  0.102574  0  1.030525  0  0  0.08679  0.099414  0  1.032134  0
H  H26  1  0.27590341  0.46776987  0.94581566  1  0  0.079537  0  0.982482  0  0  0.090682  0  1.056446  0  0  0.091606  0  1.057465  0  0  0.089754  0.089361  0  1.056634  0
H  H27  1  0.72409849  0.53222986  0.05418352  1  0  0.079566  0  0.982515  0  0  0.090721  0  1.056469  0  0  0.091646  0  1.057488  0  0  0.089767  0.089404  0  1.05665  0
H  H28  1  0.99215345  0.46144948  0.91808130  1  0  0.067206  0  0.949869  0  0  0.08854  0  1.009409  0  0  0.088666  0  1.010929  0  0  0.087248  0.088355  0  1.008436  0
H  H29  1  0.00784844  0.53854924  0.08191723  1  0  0.067214  0  0.949934  0  0  0.088565  0  1.009439  0  0  0.088693  0  1.010959  0  0  0.087251  0.08838  0  1.008467  0
H  H30  1  0.12661979  0.47800576  0.76683667  1  0  0.056693  0  0.964805  0  0  0.073564  0  1.033906  0  0  0.074616  0  1.03354  0  0  0.085526  0.07281  0  1.034079  0
H  H31  1  0.87338210  0.52199297  0.23316276  1  0  0.056676  0  0.964821  0  0  0.073532  0  1.03394  0  0  0.074585  0  1.033573  0  0  0.085526  0.072776  0  1.034117  0
H  H32  1  0.91891017  0.31182575  0.78598040  1  0  0.064565  0  0.952668  0  0  0.083099  0  1.016083  0  0  0.084307  0  1.015464  0  0  0.085626  0.082033  0  1.016781  0
H  H33  1  0.08109293  0.68817196  0.21401817  1  0  0.064539  0  0.952667  0  0  0.083083  0  1.016093  0  0  0.084292  0  1.015473  0  0  0.085618  0.082018  0  1.016793  0
H  H34  1  0.10781023  0.22976371  0.79158454  1  0  0.073981  0  0.970438  0  0  0.092379  0  1.032816  0  0  0.09264  0  1.034416  0  0  0.090169  0.092172  0  1.031701  0
H  H35  1  0.89219288  0.77023400  0.20841675  1  0  0.073963  0  0.970504  0  0  0.092363  0  1.032895  0  0  0.092625  0  1.034494  0  0  0.090159  0.092157  0  1.031777  0
H  H36  1  0.01583494  0.16397010  0.04147229  1  0  0.081311  0  0.97244  0  0  0.095162  0  1.040433  0  0  0.096422  0  1.040534  0  0  0.086545  0.094116  0  1.040569  0
H  H37  1  0.98416940  0.83602862  0.95852673  1  0  0.081297  0  0.972484  0  0  0.095138  0  1.040469  0  0  0.096399  0  1.040568  0  0  0.086529  0.094094  0  1.040604  0
H  H38  1  0.91207919  0.08475331  0.95412032  1  0  0.08026  0  0.993223  0  0  0.0934  0  1.062198  0  0  0.094743  0  1.062481  0  0  0.079996  0.092249  0  1.062223  0
H  H39  1  0.08792270  0.91524542  0.04588003  1  0  0.080278  0  0.993221  0  0  0.093408  0  1.062191  0  0  0.094752  0  1.062474  0  0  0.08001  0.092255  0  1.062218  0
H  H40  1  0.58420502  0.16564626  0.25507304  1  0  0.060211  0  0.937975  0  0  0.075644  0  0.9978  0  0  0.07617  0  0.998495  0  0  0.093979  0.07523  0  0.997422  0
H  H41  1  0.41579444  0.83435450  0.74492631  1  0  0.060182  0  0.938014  0  0  0.075649  0  0.997812  0  0  0.076177  0  0.9985  0  0  0.093972  0.075233  0  0.997432  0
H  H42  1  0.87726211  0.98501317  0.19489206  1  0  0.066916  0  0.956681  0  0  0.087155  0  1.018516  0  0  0.087398  0  1.01988  0  0  0.085311  0.086969  0  1.017619  0
H  H43  1  0.12273859  0.01498759  0.80510981  1  0  0.066868  0  0.956731  0  0  0.087123  0  1.01856  0  0  0.087365  0  1.019927  0  0  0.08531  0.086938  0  1.017663  0
H  H44  1  0.67278096  0.95896656  0.18326567  1  0  0.05861  0  1.007887  0  0  0.065858  0  1.091252  0  0  0.067645  0  1.09041  0  0  0.070191  0.064608  0  1.091783  0
H  H45  1  0.32722094  0.04103318  0.81673351  1  0  0.058618  0  1.007846  0  0  0.065867  0  1.09121  0  0  0.067653  0  1.09037  0  0  0.070201  0.064617  0  1.091742  0
H  H46  1  0.72940672  0.81965736  0.39227765  1  0  0.055268  0  0.960488  0  0  0.07145  0  1.030557  0  0  0.072071  0  1.030944  0  0  0.082706  0.070823  0  1.030807  0
H  H47  1  0.27059272  0.18034138  0.60772310  1  0  0.055288  0  0.960519  0  0  0.071459  0  1.030571  0  0  0.072079  0  1.030957  0  0  0.082707  0.070834  0  1.030817  0
H  H48  1  0.57654924  0.94047328  0.41910604  1  0  0.056331  0  0.94849  0  0  0.075877  0  1.011989  0  0  0.076548  0  1.012382  0  0  0.082747  0.075269  0  1.011949  0
H  H49  1  0.42344774  0.05952546  0.58089331  1  0  0.056376  0  0.948526  0  0  0.075907  0  1.012006  0  0  0.076576  0  1.012404  0  0  0.082766  0.075301  0  1.011963  0
H  H50  1  0.78273494  0.93790569  0.55545525  1  0  0.061765  0  0.965731  0  0  0.077109  0  1.034521  0  0  0.077924  0  1.035313  0  0  0.077631  0.076498  0  1.034009  0
H  H51  1  0.21726204  0.06209306  0.44454592  1  0  0.061772  0  0.96577  0  0  0.077125  0  1.034524  0  0  0.077942  0  1.035315  0  0  0.07763  0.076515  0  1.034014  0
H  H52  1  0.94243995  0.96762611  0.41494703  1  0  0.059448  0  0.946926  0  0  0.078498  0  1.011064  0  0  0.079025  0  1.011943  0  0  0.082093  0.078098  0  1.010355  0
H  H53  1  0.05755579  0.03237164  0.58505550  1  0  0.059453  0  0.946887  0  0  0.078509  0  1.011011  0  0  0.079034  0  1.011894  0  0  0.082091  0.078107  0  1.010306  0
H  H54  1  0.86676972  0.18144617  0.47869244  1  0  0.059423  0  0.945587  0  0  0.078062  0  1.007404  0  0  0.07893  0  1.007717  0  0  0.08438  0.077379  0  1.007313  0
H  H55  1  0.13322970  0.81855156  0.52130857  1  0  0.059406  0  0.945601  0  0  0.078047  0  1.007411  0  0  0.078915  0  1.007726  0  0  0.084373  0.077362  0  1.00732  0
H  H56  1  0.65980727  0.15915718  0.47668488  1  0  0.051296  0  0.95268  0  0  0.069321  0  1.019071  0  0  0.070019  0  1.019204  0  0  0.08073  0.068843  0  1.018981  0
H  H57  1  0.34019095  0.84084257  0.52331674  1  0  0.051286  0  0.95272  0  0  0.069287  0  1.019145  0  0  0.069984  0  1.019279  0  0  0.080706  0.068804  0  1.019057  0
H  H58  1  0.79137120  0.32155579  0.27366279  1  0  0.060101  0  0.965093  0  0  0.076941  0  1.030722  0  0  0.077627  0  1.031346  0  0  0.081858  0.076449  0  1.030208  0
H  H59  1  0.20863069  0.67844294  0.72633846  1  0  0.060054  0  0.965102  0  0  0.07692  0  1.030714  0  0  0.077606  0  1.031338  0  0  0.081841  0.076425  0  1.030199  0
H  H60  1  0.95042702  0.20580960  0.24287252  1  0  0.068645  0  0.941542  0  0  0.085951  0  1.006263  0  0  0.087045  0  1.006442  0  0  0.083421  0.085153  0  1.006058  0
H  H61  1  0.04957361  0.79418712  0.75712943  1  0  0.068616  0  0.941577  0  0  0.08594  0  1.006281  0  0  0.087036  0  1.006458  0  0  0.083417  0.08514  0  1.006071  0
C  C62  1  0.51497246  0.44785972  0.72951850  1  0  0.004634  0  3.59415  0  0  0.008167  0  3.840598  0  0  0.00811  0  3.857646  0  0  -0.077185  0.008429  0  3.828488  0
C  C63  1  0.48502458  0.55214307  0.27048258  1  0  0.004682  0  3.594084  0  0  0.00815  0  3.840651  0  0  0.008096  0  3.857699  0  0  -0.077204  0.008403  0  3.828553  0
C  C64  1  0.64218290  0.39787989  0.62828612  1  0  -0.137148  0  3.68325  0  0  -0.17983  0  3.940104  0  0  -0.181615  0  3.95493  0  0  -0.168249  -0.178501  0  3.929867  0
C  C65  1  0.35781656  0.60212086  0.37171231  1  0  -0.13709  0  3.683132  0  0  -0.179787  0  3.939979  0  0  -0.181577  0  3.954813  0  0  -0.168232  -0.178469  0  3.929772  0
C  C66  1  0.74491722  0.51503643  0.53178931  1  0  -0.10082  0  3.675323  0  0  -0.139914  0  3.935595  0  0  -0.140948  0  3.950491  0  0  -0.167854  -0.138998  0  3.925336  0
C  C67  1  0.25508226  0.48496533  0.46820978  1  0  -0.100805  0  3.675211  0  0  -0.139936  0  3.935542  0  0  -0.140969  0  3.950439  0  0  -0.167853  -0.139021  0  3.92528  0
C  C68  1  0.82353140  0.59872885  0.60013693  1  0  -0.106348  0  3.68094  0  0  -0.143947  0  3.936014  0  0  -0.145039  0  3.950919  0  0  -0.168694  -0.14319  0  3.925802  0
C  C69  1  0.17646685  0.40127293  0.39986419  1  0  -0.106289  0  3.680856  0  0  -0.143866  0  3.935945  0  0  -0.144958  0  3.950852  0  0  -0.168683  -0.143111  0  3.925737  0
C  C70  1  0.69385968  0.64868131  0.69939224  1  0  -0.100494  0  3.677793  0  0  -0.13661  0  3.934462  0  0  -0.137877  0  3.94901  0  0  -0.169602  -0.135712  0  3.924401  0
C  C71  1  0.30614227  0.35132146  0.30060801  1  0  -0.100516  0  3.677781  0  0  -0.136646  0  3.93447  0  0  -0.137913  0  3.949021  0  0  -0.169593  -0.135751  0  3.924416  0
C  C72  1  0.59437198  0.53067903  0.79779876  1  0  -0.141203  0  3.67832  0  0  -0.185412  0  3.930902  0  0  -0.18701  0  3.946349  0  0  -0.171979  -0.183875  0  3.919861  0
C  C73  1  0.40562869  0.46931970  0.20220179  1  0  -0.141282  0  3.678257  0  0  -0.185491  0  3.93092  0  0  -0.187081  0  3.94635  0  0  -0.172012  -0.183948  0  3.919877  0
C  C74  1  0.23084624  0.37649130  0.92934149  1  0  -0.143825  0  3.618587  0  0  -0.179018  0  3.876009  0  0  -0.179653  0  3.887797  0  0  -0.157733  -0.178186  0  3.868207  0
C  C75  1  0.76915564  0.62350743  0.07065794  1  0  -0.143877  0  3.618653  0  0  -0.179073  0  3.876069  0  0  -0.179708  0  3.887856  0  0  -0.157759  -0.178242  0  3.868254  0
C  C76  1  0.08609660  0.40753413  0.86243423  1  0  -0.104233  0  3.703744  0  0  -0.148101  0  3.967276  0  0  -0.149337  0  3.982655  0  0  -0.170863  -0.146985  0  3.956314  0
C  C77  1  0.91390529  0.59246460  0.13756611  1  0  -0.104211  0  3.703846  0  0  -0.148065  0  3.967379  0  0  -0.149302  0  3.982759  0  0  -0.170853  -0.146946  0  3.956421  0
C  C78  1  0.01100841  0.28230410  0.84582075  1  0  -0.107191  0  3.69618  0  0  -0.1458  0  3.950492  0  0  -0.147106  0  3.965447  0  0  -0.173647  -0.144787  0  3.940169  0
C  C79  1  0.98899348  0.71769463  0.15417868  1  0  -0.107107  0  3.696168  0  0  -0.145771  0  3.950523  0  0  -0.14708  0  3.965477  0  0  -0.173602  -0.144756  0  3.940192  0
C  C80  1  0.93512379  0.18170017  0.97212460  1  0  -0.134431  0  3.610916  0  0  -0.167662  0  3.861828  0  0  -0.168396  0  3.873824  0  0  -0.157783  -0.166906  0  3.853783  0
C  C81  1  0.06487810  0.81829855  0.02787483  1  0  -0.134452  0  3.610954  0  0  -0.167615  0  3.861815  0  0  -0.168347  0  3.873809  0  0  -0.157781  -0.166861  0  3.853771  0
C  C82  1  0.71576754  0.15112208  0.21699868  1  0  0.014193  0  3.594471  0  0  0.018803  0  3.833697  0  0  0.019091  0  3.850651  0  0  -0.075435  0.018592  0  3.82228  0
C  C83  1  0.28423435  0.84887665  0.78300166  1  0  0.014193  0  3.594468  0  0  0.018749  0  3.833784  0  0  0.019039  0  3.85074  0  0  -0.07545  0.018538  0  3.822361  0
C  C84  1  0.74696483  0.00042427  0.23547282  1  0  -0.149562  0  3.697842  0  0  -0.188778  0  3.939596  0  0  -0.19111  0  3.955643  0  0  -0.179345  -0.186971  0  3.928459  0
C  C85  1  0.25303463  0.99957648  0.76452562  1  0  -0.149445  0  3.697877  0  0  -0.188699  0  3.939642  0  0  -0.191027  0  3.95568  0  0  -0.179309  -0.186896  0  3.928511  0
C  C86  1  0.70834641  0.92876467  0.37946794  1  0  -0.102129  0  3.689075  0  0  -0.142186  0  3.951025  0  0  -0.143059  0  3.965391  0  0  -0.171212  -0.141369  0  3.94132  0
C  C87  1  0.29165181  0.07123509  0.62053368  1  0  -0.102283  0  3.689333  0  0  -0.142286  0  3.951189  0  0  -0.14316  0  3.965559  0  0  -0.171263  -0.141473  0  3.941487  0
C  C88  1  0.81192637  0.98728761  0.45145234  1  0  -0.117045  0  3.691349  0  0  -0.155244  0  3.949317  0  0  -0.156579  0  3.963959  0  0  -0.174241  -0.154169  0  3.939056  0
C  C89  1  0.18806939  0.01271114  0.54854904  1  0  -0.117081  0  3.691425  0  0  -0.155263  0  3.949303  0  0  -0.156599  0  3.963948  0  0  -0.174256  -0.154185  0  3.939043  0
C  C90  1  0.78693545  0.13979083  0.43048050  1  0  -0.096873  0  3.681451  0  0  -0.134859  0  3.940349  0  0  -0.135854  0  3.955153  0  0  -0.166044  -0.134114  0  3.930166  0
C  C91  1  0.21306399  0.86020892  0.56951909  1  0  -0.0968  0  3.681475  0  0  -0.134794  0  3.940379  0  0  -0.135784  0  3.955173  0  0  -0.166004  -0.134044  0  3.930191  0
C  C92  1  0.81909202  0.21356071  0.28650175  1  0  -0.138013  0  3.677699  0  0  -0.179313  0  3.929873  0  0  -0.181234  0  3.945516  0  0  -0.169593  -0.177808  0  3.918976  0
C  C93  1  0.18090989  0.78643904  0.71350016  1  0  -0.137956  0  3.677667  0  0  -0.179301  0  3.929898  0  0  -0.181221  0  3.945536  0  0  -0.169581  -0.177793  0  3.91899  0
S  S94  1  0.40059577  0.29897564  0.83785825  1  0  0.009983  0  2.762577  0  0  0.032649  0  3.187775  0  0  0.033387  0  3.174242  0  0  -0.0323  0.031259  0  3.196822  0
S  S95  1  0.59940491  0.70102410  0.16214114  1  0  0.009973  0  2.762537  0  0  0.032647  0  3.18778  0  0  0.033383  0  3.174254  0  0  -0.032302  0.031264  0  3.196817  0
S  S96  1  0.73839107  0.24223049  0.04670640  1  0  -0.008343  0  2.747054  0  0  0.014546  0  3.171534  0  0  0.014573  0  3.157076  0  0  -0.037094  0.013597  0  3.182519  0
S  S97  1  0.26161331  0.75777025  0.95329394  1  0  -0.00832  0  2.747083  0  0  0.014563  0  3.171554  0  0  0.014588  0  3.157099  0  0  -0.037083  0.013621  0  3.182524  0
I  I98  1  0.31299166  0.01907905  0.16156709  1  0  -0.424043  0  1.406954  0  0  -0.363851  0  1.802306  0  0  -0.379658  0  1.768269  0  0  -0.196141  -0.352377  0  1.824476  0
I  I99  1  0.68701027  0.98092270  0.83843068  1  0  -0.424022  0  1.40696  0  0  -0.363825  0  1.802312  0  0  -0.379633  0  1.768279  0  0  -0.196135  -0.352352  0  1.824476  0
