# generated using pymatgen
data_NiH8C9NO5
_symmetry_space_group_name_H-M   'P 1'
_cell_length_a   6.74154702
_cell_length_b   7.57670206
_cell_length_c   22.32112593
_cell_angle_alpha   90.00033273
_cell_angle_beta   90.00021183
_cell_angle_gamma   90.00034558
_symmetry_Int_Tables_number   1
_chemical_formula_structural   NiH8C9NO5
_chemical_formula_sum   'Ni4 H32 C36 N4 O20'
_cell_volume   1140.13394426
_cell_formula_units_Z   4
loop_
 _symmetry_equiv_pos_site_id
 _symmetry_equiv_pos_as_xyz
  1  'x, y, z'
loop_
 _atom_site_type_symbol
 _atom_site_label
 _atom_site_symmetry_multiplicity
 _atom_site_fract_x
 _atom_site_fract_y
 _atom_site_fract_z
 _atom_site_occupancy
 _atom_site_pbe_bader_charge
 _atom_site_pbe_bader_spin_density
 _atom_site_pbe_cm5_charge
 _atom_site_pbe_ddec_charge
 _atom_site_pbe_ddec_spin_density
 _atom_site_pbe_ddec_sum_bond_order
 _atom_site_pbe_magmom
Ni  Ni0  1  0.55420013  0.75005553  0.71042624  1  1.200233  1.583928  0.62939  0.829628  1.780652  2.309837  1.572
Ni  Ni1  1  0.44579812  0.75004240  0.28957330  1  1.200305  1.583929  0.629422  0.829778  1.780653  2.309671  1.572
Ni  Ni2  1  0.05419944  0.24995205  0.78957380  1  1.200108  1.583938  0.629321  0.82968  1.780679  2.310235  1.572
Ni  Ni3  1  0.94580433  0.24994158  0.21042699  1  1.200211  1.583932  0.629307  0.829613  1.780681  2.310159  1.572
H  H4  1  0.62624802  0.61638430  0.88739661  1  0.068823  -0.00036  0.102755  0.124271  -0.000368  0.998151  0.0
H  H5  1  0.83853207  0.75218006  0.88279629  1  0.081854  0.000143  0.108014  0.135137  3.5e-05  0.965161  0.0
H  H6  1  0.52145402  0.91930725  0.87315115  1  0.054846  0.002848  0.106826  0.064918  0.001345  0.974112  0.002
H  H7  1  0.32778860  0.87173254  0.78850607  1  0.656155  0.000186  0.297347  0.346492  0.000317  0.989269  0.0
H  H8  1  0.97405877  0.66852881  0.67664315  1  0.164448  0.001925  0.129131  0.11468  0.00065  0.99241  0.002
H  H9  1  0.18400220  0.67894733  0.58504877  1  0.134875  0.001086  0.111783  0.123777  0.000567  1.021051  0.0
H  H10  1  0.67385130  0.88198604  0.48984706  1  0.066923  0.00099  0.106559  0.110809  0.000484  1.035864  0.0
H  H11  1  0.48834102  0.86923149  0.58787112  1  0.101961  0.002181  0.116175  0.088119  0.000851  1.049913  0.002
H  H12  1  0.37374637  0.61637832  0.11260222  1  0.068815  -0.00036  0.102717  0.124243  -0.000368  0.998174  0.0
H  H13  1  0.16146175  0.75217434  0.11720415  1  0.08185  0.000143  0.108016  0.135109  3.5e-05  0.96519  0.0
H  H14  1  0.47854538  0.91930076  0.12685051  1  0.054932  0.002848  0.106806  0.064901  0.001345  0.974046  0.002
H  H15  1  0.67221048  0.87172325  0.21149415  1  0.653496  0.000189  0.297394  0.346582  0.000317  0.989135  0.0
H  H16  1  0.02593745  0.66852721  0.32335623  1  0.164411  0.001925  0.129123  0.114679  0.00065  0.992435  0.002
H  H17  1  0.81599409  0.67895153  0.41494973  1  0.134851  0.001086  0.111781  0.123765  0.000567  1.02102  0.0
H  H18  1  0.32615230  0.88198396  0.51015229  1  0.065912  0.00099  0.106561  0.110803  0.000484  1.035795  0.0
H  H19  1  0.51166249  0.86922345  0.41212731  1  0.10198  0.002181  0.116182  0.088135  0.00085  1.049871  0.002
H  H20  1  0.12624756  0.38362631  0.61260664  1  0.068813  -0.000361  0.102709  0.12417  -0.000368  0.998214  0.0
H  H21  1  0.33853223  0.24783037  0.61720720  1  0.081939  0.000142  0.107983  0.135049  3.4e-05  0.965071  0.0
H  H22  1  0.02145465  0.08069883  0.62685064  1  0.054874  0.002845  0.106779  0.064838  0.001344  0.974076  0.002
H  H23  1  0.82778805  0.12826727  0.71149561  1  0.656177  0.000185  0.297392  0.346595  0.000316  0.989103  0.0
H  H24  1  0.47405459  0.33147574  0.82335736  1  0.164507  0.001924  0.129092  0.114649  0.00065  0.992518  0.002
H  H25  1  0.68400396  0.32105831  0.91495007  1  0.134876  0.001087  0.111796  0.123792  0.000567  1.021042  0.0
H  H26  1  0.17384928  0.11802420  0.01015293  1  0.067021  0.00099  0.106578  0.110826  0.000484  1.035793  0.0
H  H27  1  0.98833997  0.13077842  0.91212806  1  0.101971  0.002181  0.116186  0.088152  0.00085  1.04991  0.002
H  H28  1  0.87375414  0.38362243  0.38739351  1  0.068819  -0.000361  0.102709  0.124163  -0.000368  0.998237  0.0
H  H29  1  0.66147152  0.24782527  0.38279358  1  0.081924  0.000142  0.107925  0.134972  3.4e-05  0.965139  0.0
H  H30  1  0.97854352  0.08069396  0.37315116  1  0.054828  0.002845  0.106789  0.064824  0.001344  0.974136  0.002
H  H31  1  0.17221340  0.12825794  0.28850628  1  0.655963  0.000185  0.297328  0.346517  0.000316  0.989251  0.0
H  H32  1  0.52594528  0.33146508  0.17664449  1  0.164488  0.001924  0.129135  0.114667  0.00065  0.992515  0.002
H  H33  1  0.31600177  0.32105683  0.08504952  1  0.134917  0.001087  0.111797  0.123784  0.000567  1.021087  0.0
H  H34  1  0.82615062  0.11801980  0.98984671  1  0.065901  0.00099  0.106583  0.110874  0.000484  1.035817  0.0
H  H35  1  0.01166151  0.13076744  0.08787249  1  0.101922  0.002182  0.116176  0.088152  0.000851  1.049849  0.002
C  C36  1  0.80196078  0.57645116  0.80875502  1  1.578685  -0.002043  0.217948  0.653029  -0.002246  4.100263  -0.002
C  C37  1  0.71402173  0.69853215  0.85670071  1  -0.068322  0.007763  -0.163609  -0.347491  0.004438  3.906566  0.006
C  C38  1  0.58448656  0.84944556  0.83420774  1  0.467595  0.008878  -0.006826  0.10496  0.005366  3.903704  0.006
C  C39  1  0.71039262  0.98391571  0.79937099  1  1.600931  0.000227  0.213294  0.551014  -0.000431  4.142307  -0.001
C  C40  1  0.91470731  0.71556326  0.63414396  1  0.432285  -0.004649  0.057949  0.105299  -0.005531  3.892348  -0.003
C  C41  1  0.02962826  0.72096913  0.58232754  1  -0.040286  0.005198  -0.07902  -0.173211  0.002812  3.930263  0.004
C  C42  1  0.94378922  0.77698362  0.52833576  1  -0.007145  -0.007214  0.007663  0.098247  -0.008083  3.99613  -0.004
C  C43  1  0.74514955  0.83172724  0.53008964  1  -0.03669  0.00468  -0.087722  -0.181884  0.002507  3.967301  0.004
C  C44  1  0.64153565  0.82542388  0.58369709  1  0.469317  -0.004352  0.04502  0.086341  -0.0051  3.951285  -0.003
C  C45  1  0.19803185  0.57644162  0.19124417  1  1.57881  -0.002042  0.218168  0.65334  -0.002247  4.099834  -0.002
C  C46  1  0.28597617  0.69852491  0.14329918  1  -0.068261  0.007763  -0.163569  -0.347474  0.004438  3.906527  0.006
C  C47  1  0.41551089  0.84944071  0.16579334  1  0.467723  0.008877  -0.006748  0.105054  0.005366  3.903565  0.006
C  C48  1  0.28960574  0.98390947  0.20063035  1  1.600114  0.000229  0.213311  0.550989  -0.000431  4.142211  -0.001
C  C49  1  0.08528774  0.71556006  0.36585371  1  0.432802  -0.004651  0.057972  0.105378  -0.005532  3.892321  -0.003
C  C50  1  0.97036683  0.72096893  0.41767150  1  -0.040874  0.0052  -0.079075  -0.173197  0.002812  3.930165  0.004
C  C51  1  0.05621218  0.77698339  0.47166294  1  0.032736  -0.007165  0.007712  0.098167  -0.008084  3.996205  -0.004
C  C52  1  0.25485074  0.83172673  0.46990916  1  -0.036726  0.00468  -0.087712  -0.181829  0.002507  3.967219  0.004
C  C53  1  0.35846608  0.82541773  0.41630260  1  0.469234  -0.004352  0.044999  0.086366  -0.0051  3.951226  -0.003
C  C54  1  0.30198084  0.42357095  0.69123946  1  1.578683  -0.002035  0.218007  0.653216  -0.002243  4.099983  -0.002
C  C55  1  0.21402109  0.30147761  0.64330354  1  -0.068262  0.00776  -0.163564  -0.347402  0.004436  3.906409  0.006
C  C56  1  0.08448517  0.15055955  0.66579412  1  0.467428  0.008881  -0.006854  0.10502  0.005367  3.903349  0.006
C  C57  1  0.21040706  0.01607951  0.70062339  1  1.600568  0.000229  0.213271  0.550871  -0.000429  4.142333  -0.001
C  C58  1  0.41471223  0.28444229  0.86585469  1  0.432146  -0.00465  0.057883  0.105322  -0.005532  3.891948  -0.003
C  C59  1  0.52962977  0.27903700  0.91767292  1  -0.04033  0.0052  -0.079087  -0.173254  0.002813  3.930277  0.004
C  C60  1  0.44378908  0.22302077  0.97166292  1  -0.007171  -0.007216  0.007666  0.0982  -0.008086  3.996133  -0.004
C  C61  1  0.24514753  0.16827873  0.96990971  1  -0.036724  0.004681  -0.087737  -0.181866  0.002508  3.967189  0.004
C  C62  1  0.14153006  0.17458152  0.91630260  1  0.469211  -0.004352  0.045009  0.086419  -0.0051  3.951081  -0.003
C  C63  1  0.69802114  0.42355687  0.30876122  1  1.578757  -0.002036  0.217998  0.653056  -0.002243  4.100236  -0.002
C  C64  1  0.78598006  0.30147141  0.35669735  1  -0.068324  0.00776  -0.163531  -0.347282  0.004436  3.906656  0.006
C  C65  1  0.91551496  0.15055498  0.33420737  1  0.467428  0.008881  -0.006834  0.105087  0.005367  3.903597  0.006
C  C66  1  0.78959809  0.01606707  0.29937693  1  1.600572  0.00023  0.213311  0.550929  -0.000429  4.14257  -0.001
C  C67  1  0.58529325  0.28443518  0.13414572  1  0.432169  -0.004649  0.057865  0.105241  -0.00553  3.892039  -0.003
C  C68  1  0.47037419  0.27903366  0.08232793  1  -0.040355  0.0052  -0.079083  -0.173299  0.002813  3.93037  0.004
C  C69  1  0.55621451  0.22301829  0.02833736  1  0.032732  -0.007166  0.007703  0.098318  -0.008084  3.996088  -0.004
C  C70  1  0.75485272  0.16827470  0.03009002  1  -0.036746  0.004681  -0.087771  -0.18203  0.002508  3.967315  0.004
C  C71  1  0.85846726  0.17457370  0.08369805  1  0.469324  -0.004352  0.045025  0.086313  -0.005099  3.951145  -0.003
N  N72  1  0.72344575  0.76612829  0.63485399  1  -1.182988  0.071169  -0.319529  -0.202628  0.040832  3.558267  0.063
N  N73  1  0.27655558  0.76612215  0.36514468  1  -1.182891  0.071171  -0.319521  -0.202801  0.040833  3.558323  0.063
N  N74  1  0.22343845  0.23387887  0.86514309  1  -1.182751  0.071192  -0.319468  -0.202793  0.040845  3.557827  0.063
N  N75  1  0.77656224  0.23386620  0.13485722  1  -1.182954  0.071192  -0.319473  -0.202446  0.040844  3.557706  0.063
O  O76  1  0.76989073  0.59774614  0.75327709  1  -1.145747  0.070421  -0.300837  -0.541179  0.038349  2.313741  0.065
O  O77  1  0.90881579  0.45368318  0.83068083  1  -1.137474  0.079773  -0.317454  -0.55712  0.044005  2.323678  0.073
O  O78  1  0.42804574  0.77627447  0.79869772  1  -1.136706  0.057407  -0.381813  -0.472394  0.032305  2.377986  0.051
O  O79  1  0.68902330  0.98633970  0.74235504  1  -1.176156  0.056642  -0.296792  -0.527251  0.03107  2.370981  0.052
O  O80  1  0.82647882  0.08090862  0.82900890  1  -1.166702  0.063198  -0.29615  -0.533497  0.035188  2.341964  0.057
O  O81  1  0.23010353  0.59773640  0.24672214  1  -1.145789  0.07042  -0.300942  -0.541334  0.03835  2.313718  0.065
O  O82  1  0.09118194  0.45367401  0.16931723  1  -1.13759  0.079771  -0.317568  -0.557278  0.044005  2.323414  0.073
O  O83  1  0.57194973  0.77626580  0.20130321  1  -1.13406  0.057403  -0.381882  -0.472514  0.032303  2.377908  0.051
O  O84  1  0.31096914  0.98632795  0.25764675  1  -1.175621  0.056643  -0.296841  -0.527264  0.031071  2.370913  0.052
O  O85  1  0.17352528  0.08090256  0.17099200  1  -1.166622  0.063196  -0.296145  -0.533507  0.035186  2.342088  0.057
O  O86  1  0.26988164  0.40225336  0.74673438  1  -1.145208  0.070435  -0.301026  -0.541524  0.03836  2.312855  0.065
O  O87  1  0.40880230  0.54631047  0.66932319  1  -1.138236  0.079689  -0.317306  -0.556947  0.043961  2.32428  0.073
O  O88  1  0.92805017  0.22373247  0.70130676  1  -1.136757  0.057384  -0.381825  -0.472463  0.032293  2.377808  0.051
O  O89  1  0.18902358  0.01367388  0.75765097  1  -1.175444  0.056643  -0.296933  -0.52738  0.031072  2.370189  0.052
O  O90  1  0.32646045  0.91911626  0.67099502  1  -1.166871  0.063152  -0.296004  -0.533244  0.035163  2.342887  0.057
O  O91  1  0.73012315  0.40224114  0.25326626  1  -1.144821  0.070433  -0.301025  -0.541464  0.038359  2.313003  0.065
O  O92  1  0.59119013  0.54629486  0.33067639  1  -1.13859  0.079695  -0.317304  -0.556901  0.043962  2.324253  0.073
O  O93  1  0.07195639  0.22372541  0.29869577  1  -1.136551  0.057386  -0.381789  -0.472451  0.032293  2.37794  0.051
O  O94  1  0.81098748  0.01366322  0.24234936  1  -1.175465  0.056642  -0.296926  -0.527368  0.031072  2.370339  0.052
O  O95  1  0.67353895  0.91910635  0.32900440  1  -1.166965  0.063153  -0.296047  -0.53335  0.035162  2.342942  0.057
