# generated using pymatgen
data_Cu2H11C7N5
_symmetry_space_group_name_H-M   'P 1'
_cell_length_a   8.05024591
_cell_length_b   10.84686902
_cell_length_c   12.26689208
_cell_angle_alpha   80.03515578
_cell_angle_beta   70.83328491
_cell_angle_gamma   68.22458519
_symmetry_Int_Tables_number   1
_chemical_formula_structural   Cu2H11C7N5
_chemical_formula_sum   'Cu8 H44 C28 N20'
_cell_volume   937.96852256
_cell_formula_units_Z   4
loop_
 _symmetry_equiv_pos_site_id
 _symmetry_equiv_pos_as_xyz
  1  'x, y, z'
loop_
 _atom_site_type_symbol
 _atom_site_label
 _atom_site_symmetry_multiplicity
 _atom_site_fract_x
 _atom_site_fract_y
 _atom_site_fract_z
 _atom_site_occupancy
 _atom_site_hle17_bader_spin_density
 _atom_site_hle17_ddec_charge
 _atom_site_hle17_ddec_spin_density
 _atom_site_hle17_ddec_sum_bond_order
 _atom_site_hle17_magmom
 _atom_site_hse06_10hf_bader_spin_density
 _atom_site_hse06_10hf_ddec_charge
 _atom_site_hse06_10hf_ddec_spin_density
 _atom_site_hse06_10hf_ddec_sum_bond_order
 _atom_site_hse06_10hf_magmom
 _atom_site_hse06_bader_spin_density
 _atom_site_hse06_ddec_charge
 _atom_site_hse06_ddec_spin_density
 _atom_site_hse06_ddec_sum_bond_order
 _atom_site_hse06_magmom
 _atom_site_pbe_bader_spin_density
 _atom_site_pbe_cm5_charge
 _atom_site_pbe_ddec_charge
 _atom_site_pbe_ddec_spin_density
 _atom_site_pbe_ddec_sum_bond_order
 _atom_site_pbe_magmom
Cu  Cu0  1  0.85844582  0.56047416  0.58623320  1  0  0.301668  0  2.57369  0  0  0.240747  0  3.065997  0  0  0.227676  0  3.022598  0  0  0.431691  0.252353  0  3.092983  0
Cu  Cu1  1  0.50572294  0.93925184  0.91363074  1  0  0.305235  0  2.56946  0  0  0.244552  0  3.06147  0  0  0.231458  0  3.018116  0  0  0.433275  0.255918  0  3.088734  0
Cu  Cu2  1  0.14155178  0.43952368  0.41377306  1  0  0.301675  0  2.573755  0  0  0.240752  0  3.06608  0  0  0.227682  0  3.022682  0  0  0.431699  0.252363  0  3.093068  0
Cu  Cu3  1  0.49427920  0.06073701  0.08636665  1  0  0.305105  0  2.569542  0  0  0.2444  0  3.061553  0  0  0.231299  0  3.018208  0  0  0.433265  0.255761  0  3.088818  0
Cu  Cu4  1  0.27880218  0.83239706  0.46866112  1  0  0.384899  0  2.457739  0  0  0.32167  0  2.926942  0  0  0.309029  0  2.890836  0  0  0.543946  0.333201  0  2.948789  0
Cu  Cu5  1  0.08009304  0.66751022  0.03142375  1  0  0.384827  0  2.459271  0  0  0.322332  0  2.927699  0  0  0.309622  0  2.891678  0  0  0.543998  0.333978  0  2.949603  0
Cu  Cu6  1  0.72119970  0.16760572  0.53133838  1  0  0.384942  0  2.4577  0  0  0.321711  0  2.926945  0  0  0.309046  0  2.890808  0  0  0.543947  0.333238  0  2.948787  0
Cu  Cu7  1  0.91990570  0.33248264  0.96858138  1  0  0.38482  0  2.459066  0  0  0.322292  0  2.927513  0  0  0.309595  0  2.891485  0  0  0.543967  0.333925  0  2.949428  0
H  H8  1  0.01824090  0.04625690  0.57543554  1  0  0.22304  0  0.952743  0  0  0.208894  0  1.030095  0  0  0.216119  0  1.022188  0  0  0.271811  0.203566  0  1.035989  0
H  H9  1  0.14035324  0.45372852  0.92452838  1  0  0.223785  0  0.953406  0  0  0.209823  0  1.030226  0  0  0.217043  0  1.022341  0  0  0.272701  0.204562  0  1.036024  0
H  H10  1  0.98176366  0.95374588  0.42456262  1  0  0.223015  0  0.952801  0  0  0.208923  0  1.030063  0  0  0.216144  0  1.022162  0  0  0.271824  0.203598  0  1.035953  0
H  H11  1  0.85964180  0.54626928  0.07546875  1  0  0.223861  0  0.953416  0  0  0.209892  0  1.030247  0  0  0.217105  0  1.022366  0  0  0.27272  0.204633  0  1.036033  0
H  H12  1  0.39527075  0.97945258  0.59754175  1  0  0.074427  0  0.933019  0  0  0.088612  0  0.998452  0  0  0.088715  0  0.99933  0  0  0.106439  0.088449  0  0.997988  0
H  H13  1  0.47270498  0.52062454  0.90218092  1  0  0.07411  0  0.933777  0  0  0.088734  0  0.999058  0  0  0.088826  0  0.999991  0  0  0.106556  0.088565  0  0.998576  0
H  H14  1  0.60473541  0.02054722  0.40245768  1  0  0.07442  0  0.932983  0  0  0.088587  0  0.998424  0  0  0.088693  0  0.9993  0  0  0.106442  0.088424  0  0.997963  0
H  H15  1  0.52729113  0.47937131  0.09782265  1  0  0.074055  0  0.933749  0  0  0.088651  0  0.99906  0  0  0.088744  0  0.999994  0  0  0.106524  0.088482  0  0.998583  0
H  H16  1  0.29214423  0.10324644  0.50132924  1  0  0.088106  0  0.926119  0  0  0.104572  0  0.984602  0  0  0.104093  0  0.986234  0  0  0.111781  0.104879  0  0.983467  0
H  H17  1  0.39718459  0.39687126  0.99857943  1  0  0.08803  0  0.92701  0  0  0.104699  0  0.985439  0  0  0.104216  0  0.987118  0  0  0.111407  0.104954  0  0.9844  0
H  H18  1  0.70786315  0.89675337  0.49867159  1  0  0.088167  0  0.926154  0  0  0.104627  0  0.984616  0  0  0.104151  0  0.986249  0  0  0.111818  0.104936  0  0.983476  0
H  H19  1  0.60281150  0.60312257  0.00141873  1  0  0.088083  0  0.926895  0  0  0.104738  0  0.985339  0  0  0.104255  0  0.987021  0  0  0.11144  0.104995  0  0.984303  0
H  H20  1  0.28800110  0.19892254  0.67455826  1  0  0.085718  0  0.944543  0  0  0.100711  0  1.0063  0  0  0.100606  0  1.007857  0  0  0.11097  0.100615  0  1.00541  0
H  H21  1  0.66167763  0.30098828  0.82528267  1  0  0.08496  0  0.94377  0  0  0.09965  0  1.006175  0  0  0.099567  0  1.007671  0  0  0.110439  0.09963  0  1.005233  0
H  H22  1  0.71200824  0.80107528  0.32544297  1  0  0.085774  0  0.944558  0  0  0.10073  0  1.00637  0  0  0.100627  0  1.00792  0  0  0.111028  0.100637  0  1.005479  0
H  H23  1  0.33831779  0.69900954  0.17471667  1  0  0.084923  0  0.943745  0  0  0.099586  0  1.006186  0  0  0.099506  0  1.007687  0  0  0.110413  0.099562  0  1.005241  0
H  H24  1  0.05854518  0.23524502  0.66430500  1  0  0.086276  0  0.956379  0  0  0.100333  0  1.017607  0  0  0.099662  0  1.0205  0  0  0.108152  0.100725  0  1.015664  0
H  H25  1  0.45806827  0.26487440  0.83565463  1  0  0.088049  0  0.954132  0  0  0.101923  0  1.015508  0  0  0.101198  0  1.018456  0  0  0.108817  0.102372  0  1.013541  0
H  H26  1  0.94146347  0.76475776  0.33569433  1  0  0.086289  0  0.956411  0  0  0.100364  0  1.017623  0  0  0.099676  0  1.020527  0  0  0.108146  0.100756  0  1.01568  0
H  H27  1  0.54192867  0.73512637  0.16433909  1  0  0.088068  0  0.954127  0  0  0.101909  0  1.015551  0  0  0.101189  0  1.018503  0  0  0.108838  0.102356  0  1.013583  0
H  H28  1  0.24575725  0.02694960  0.81879755  1  0  0.273732  0  0.879241  0  0  0.253199  0  0.948434  0  0  0.261244  0  0.942424  0  0  0.297537  0.247543  0  0.952592  0
H  H29  1  0.59185462  0.47306693  0.68113535  1  0  0.274871  0  0.880159  0  0  0.254348  0  0.949117  0  0  0.26241  0  0.943114  0  0  0.298058  0.248673  0  0.953289  0
H  H30  1  0.75424459  0.97304722  0.18120250  1  0  0.273762  0  0.879207  0  0  0.253228  0  0.948404  0  0  0.261275  0  0.942386  0  0  0.297555  0.24757  0  0.952564  0
H  H31  1  0.40814579  0.52693587  0.31886687  1  0  0.274865  0  0.880193  0  0  0.254334  0  0.949171  0  0  0.262402  0  0.943152  0  0  0.298084  0.24866  0  0.953343  0
H  H32  1  0.06570476  0.16645927  0.85544155  1  0  0.25561  0  0.918544  0  0  0.227128  0  1.005968  0  0  0.238865  0  0.994414  0  0  0.283519  0.218691  0  1.014191  0
H  H33  1  0.58778771  0.33364448  0.64445471  1  0  0.25611  0  0.918014  0  0  0.227679  0  1.005042  0  0  0.239486  0  0.993433  0  0  0.283535  0.219372  0  1.013047  0
H  H34  1  0.93429956  0.83354054  0.14455840  1  0  0.255622  0  0.918532  0  0  0.22711  0  1.005984  0  0  0.238868  0  0.994417  0  0  0.283525  0.218676  0  1.014197  0
H  H35  1  0.41220849  0.66636128  0.35554235  1  0  0.256058  0  0.91807  0  0  0.227623  0  1.005114  0  0  0.239429  0  0.993506  0  0  0.283531  0.219317  0  1.013118  0
H  H36  1  0.96896349  0.97241413  0.89163628  1  0  0.095049  0  0.944304  0  0  0.109787  0  1.002108  0  0  0.108815  0  1.005821  0  0  0.11227  0.110408  0  0.999649  0
H  H37  1  0.33342333  0.52785518  0.60834664  1  0  0.096273  0  0.942548  0  0  0.111465  0  1.000372  0  0  0.110485  0  1.004105  0  0  0.113534  0.112113  0  0.997838  0
H  H38  1  0.03103646  0.02758667  0.10836355  1  0  0.095049  0  0.944341  0  0  0.109788  0  1.002145  0  0  0.10882  0  1.005853  0  0  0.112285  0.110428  0  0.999661  0
H  H39  1  0.66657868  0.47215856  0.39165482  1  0  0.096355  0  0.942469  0  0  0.111479  0  1.000353  0  0  0.110499  0  1.004087  0  0  0.113517  0.112127  0  0.997819  0
H  H40  1  0.86560951  0.09631814  0.79516618  1  0  0.081786  0  0.935231  0  0  0.097631  0  0.997107  0  0  0.097672  0  0.998397  0  0  0.11113  0.097483  0  0.996361  0
H  H41  1  0.25727754  0.40393854  0.70470495  1  0  0.081006  0  0.933543  0  0  0.097365  0  0.99559  0  0  0.097361  0  0.996976  0  0  0.111027  0.097212  0  0.994859  0
H  H42  1  0.13439218  0.90368464  0.20483221  1  0  0.081818  0  0.935211  0  0  0.097595  0  0.997153  0  0  0.097638  0  0.998442  0  0  0.111129  0.097447  0  0.996409  0
H  H43  1  0.74271879  0.59607218  0.29528940  1  0  0.081011  0  0.933551  0  0  0.097355  0  0.995622  0  0  0.097354  0  0.997006  0  0  0.111077  0.097204  0  0.99489  0
H  H44  1  0.98129083  0.87257947  0.71779084  1  0  0.093536  0  0.909936  0  0  0.112041  0  0.964136  0  0  0.111757  0  0.965904  0  0  0.115641  0.112193  0  0.96296  0
H  H45  1  0.07200491  0.62752138  0.78227086  1  0  0.094055  0  0.909947  0  0  0.112202  0  0.963898  0  0  0.111897  0  0.965697  0  0  0.115403  0.11232  0  0.9628  0
H  H46  1  0.01870965  0.12742330  0.28220616  1  0  0.093493  0  0.909917  0  0  0.112005  0  0.964122  0  0  0.111725  0  0.965891  0  0  0.115619  0.112159  0  0.962945  0
H  H47  1  0.92799445  0.37248539  0.21773034  1  0  0.094055  0  0.909914  0  0  0.112234  0  0.963905  0  0  0.111931  0  0.965704  0  0  0.115414  0.112345  0  0.962813  0
H  H48  1  0.20776193  0.84441428  0.72818628  1  0  0.072098  0  0.946895  0  0  0.087804  0  1.010298  0  0  0.088073  0  1.011048  0  0  0.106079  0.087468  0  1.010031  0
H  H49  1  0.28072479  0.65569336  0.77186562  1  0  0.072406  0  0.949959  0  0  0.087374  0  1.013452  0  0  0.087679  0  1.014152  0  0  0.106072  0.087085  0  1.013072  0
H  H50  1  0.79223838  0.15558751  0.27181268  1  0  0.072061  0  0.946938  0  0  0.087798  0  1.010301  0  0  0.088068  0  1.011049  0  0  0.10609  0.087449  0  1.010053  0
H  H51  1  0.71927371  0.34430946  0.22814235  1  0  0.072428  0  0.949948  0  0  0.087428  0  1.013466  0  0  0.087737  0  1.014166  0  0  0.106082  0.087136  0  1.013086  0
C  C52  1  0.04701861  0.64172360  0.51643965  1  0  -0.071906  0  3.49547  0  0  -0.079089  0  3.870242  0  0  -0.057067  0  3.853316  0  0  -0.053151  -0.095369  0  3.882497  0
C  C53  1  0.70538258  0.85797469  0.98359952  1  0  -0.075474  0  3.495444  0  0  -0.083024  0  3.870788  0  0  -0.06098  0  3.85386  0  0  -0.055182  -0.099241  0  3.883155  0
C  C54  1  0.95297772  0.35827919  0.48356141  1  0  -0.071963  0  3.495425  0  0  -0.079145  0  3.870193  0  0  -0.057123  0  3.853264  0  0  -0.053219  -0.095425  0  3.882448  0
C  C55  1  0.29460921  0.14202011  0.01639329  1  0  -0.075267  0  3.495942  0  0  -0.082774  0  3.871185  0  0  -0.060751  0  3.854282  0  0  -0.055007  -0.098982  0  3.883543  0
C  C56  1  0.62323780  0.65318398  0.55906340  1  0  -0.111999  0  3.484611  0  0  -0.114494  0  3.847342  0  0  -0.099309  0  3.840184  0  0  -0.05202  -0.125414  0  3.852093  0
C  C57  1  0.33571330  0.84676882  0.94066266  1  0  -0.111532  0  3.484506  0  0  -0.113913  0  3.847048  0  0  -0.098768  0  3.83987  0  0  -0.052337  -0.124832  0  3.85201  0
C  C58  1  0.37675764  0.34681884  0.44094369  1  0  -0.111983  0  3.484391  0  0  -0.114473  0  3.847122  0  0  -0.099287  0  3.839959  0  0  -0.052027  -0.125391  0  3.851876  0
C  C59  1  0.66428202  0.15322498  0.05933108  1  0  -0.11148  0  3.484478  0  0  -0.113841  0  3.846998  0  0  -0.098693  0  3.839817  0  0  -0.052341  -0.124759  0  3.851963  0
C  C60  1  0.35923326  0.91932303  0.32571818  1  0  -0.131109  0  3.496403  0  0  -0.140886  0  3.868328  0  0  -0.121707  0  3.859615  0  0  -0.054123  -0.154515  0  3.873872  0
C  C61  1  0.10464047  0.58055889  0.17430848  1  0  -0.130066  0  3.494955  0  0  -0.139869  0  3.866577  0  0  -0.120715  0  3.857971  0  0  -0.05313  -0.153554  0  3.872399  0
C  C62  1  0.64076236  0.08067479  0.67428226  1  0  -0.131051  0  3.49639  0  0  -0.140844  0  3.868353  0  0  -0.121656  0  3.859622  0  0  -0.054114  -0.154467  0  3.873884  0
C  C63  1  0.89536081  0.41943993  0.82569367  1  0  -0.129975  0  3.495091  0  0  -0.139779  0  3.866737  0  0  -0.120632  0  3.85814  0  0  -0.053067  -0.153467  0  3.872564  0
C  C64  1  0.26295785  0.05285639  0.58734489  1  0  -0.003246  0  3.635891  0  0  -0.057682  0  3.891569  0  0  -0.054711  0  3.904337  0  0  -0.075534  -0.059731  0  3.883061  0
C  C65  1  0.40353118  0.44721519  0.91254128  1  0  -0.00468  0  3.638434  0  0  -0.059724  0  3.894889  0  0  -0.056874  0  3.907857  0  0  -0.076224  -0.0616  0  3.886091  0
C  C66  1  0.73704803  0.94714441  0.41265559  1  0  -0.003355  0  3.636056  0  0  -0.057742  0  3.891692  0  0  -0.054776  0  3.904461  0  0  -0.075593  -0.059792  0  3.883184  0
C  C67  1  0.59646316  0.55277965  0.08746066  1  0  -0.004627  0  3.638221  0  0  -0.059622  0  3.894641  0  0  -0.056774  0  3.907626  0  0  -0.076196  -0.061514  0  3.885861  0
C  C68  1  0.18367434  0.15559369  0.67719820  1  0  -0.003748  0  3.549843  0  0  -0.059795  0  3.791779  0  0  -0.058172  0  3.807626  0  0  -0.066922  -0.060739  0  3.780978  0
C  C69  1  0.51663380  0.34441324  0.82271742  1  0  -0.003697  0  3.546754  0  0  -0.059183  0  3.788604  0  0  -0.057446  0  3.804345  0  0  -0.067409  -0.060239  0  3.777829  0
C  C70  1  0.81633296  0.84440413  0.32280244  1  0  -0.003819  0  3.549928  0  0  -0.059893  0  3.791907  0  0  -0.058244  0  3.807754  0  0  -0.067029  -0.060839  0  3.781107  0
C  C71  1  0.48336226  0.65558457  0.17728000  1  0  -0.003645  0  3.546732  0  0  -0.05908  0  3.788565  0  0  -0.057369  0  3.804348  0  0  -0.06738  -0.060122  0  3.777774  0
C  C72  1  0.99646795  0.02131725  0.80511939  1  0  0.001817  0  3.538688  0  0  -0.054657  0  3.781992  0  0  -0.052994  0  3.798093  0  0  -0.063759  -0.055651  0  3.771016  0
C  C73  1  0.32317577  0.47885216  0.69483953  1  0  0.003957  0  3.534714  0  0  -0.054876  0  3.780528  0  0  -0.053262  0  3.796758  0  0  -0.064574  -0.055845  0  3.769434  0
C  C74  1  0.00353468  0.97868354  0.19487911  1  0  0.001815  0  3.538656  0  0  -0.054633  0  3.781999  0  0  -0.052971  0  3.798101  0  0  -0.063763  -0.05564  0  3.771017  0
C  C75  1  0.67682365  0.52115758  0.30515878  1  0  0.003982  0  3.534759  0  0  -0.054734  0  3.780527  0  0  -0.053118  0  3.796755  0  0  -0.064532  -0.05571  0  3.769439  0
C  C76  1  0.08155536  0.92100580  0.71263411  1  0  0.00157  0  3.622943  0  0  -0.056033  0  3.883043  0  0  -0.053235  0  3.89541  0  0  -0.074073  -0.057973  0  3.874717  0
C  C77  1  0.21556046  0.57910711  0.78738443  1  0  2.2e-05  0  3.627181  0  0  -0.05513  0  3.885719  0  0  -0.052325  0  3.898101  0  0  -0.07257  -0.057008  0  3.877358  0
C  C78  1  0.91844310  0.07899599  0.28736537  1  0  0.001693  0  3.622896  0  0  -0.055932  0  3.882984  0  0  -0.053135  0  3.895351  0  0  -0.074059  -0.057864  0  3.874672  0
C  C79  1  0.78443783  0.42089669  0.21261936  1  0  -9.7e-05  0  3.627304  0  0  -0.055449  0  3.886106  0  0  -0.052656  0  3.898495  0  0  -0.072689  -0.057315  0  3.877743  0
N  N80  1  0.12500284  0.71994936  0.49731410  1  0  -0.411095  0  3.23953  0  0  -0.350123  0  3.5587  0  0  -0.362388  0  3.558219  0  0  -0.4324  -0.342568  0  3.559358  0
N  N81  1  0.84243096  0.77982352  0.00284205  1  0  -0.409713  0  3.239697  0  0  -0.348549  0  3.558376  0  0  -0.360881  0  3.558021  0  0  -0.431483  -0.34104  0  3.55905  0
N  N82  1  0.87499575  0.28004946  0.50268938  1  0  -0.411106  0  3.239465  0  0  -0.350126  0  3.558629  0  0  -0.362384  0  3.558137  0  0  -0.432376  -0.342567  0  3.55929  0
N  N83  1  0.15758502  0.22016036  0.99715471  1  0  -0.409748  0  3.240298  0  0  -0.348595  0  3.558948  0  0  -0.360931  0  3.558589  0  0  -0.431601  -0.341087  0  3.559625  0
N  N84  1  0.48541109  0.71920717  0.53454954  1  0  -0.389263  0  3.236987  0  0  -0.334384  0  3.554147  0  0  -0.345823  0  3.558733  0  0  -0.421767  -0.327267  0  3.550984  0
N  N85  1  0.23932741  0.78076877  0.96521059  1  0  -0.391463  0  3.237292  0  0  -0.336875  0  3.554818  0  0  -0.348323  0  3.559435  0  0  -0.422751  -0.329804  0  3.551704  0
N  N86  1  0.51458905  0.28079663  0.46545373  1  0  -0.389294  0  3.236811  0  0  -0.334408  0  3.553956  0  0  -0.345842  0  3.558531  0  0  -0.42176  -0.32729  0  3.550794  0
N  N87  1  0.76066580  0.21923104  0.03479247  1  0  -0.391526  0  3.237276  0  0  -0.336961  0  3.554851  0  0  -0.34841  0  3.559463  0  0  -0.422781  -0.32989  0  3.551742  0
N  N88  1  0.41812914  0.97161217  0.23630728  1  0  -0.382626  0  3.302094  0  0  -0.323886  0  3.63118  0  0  -0.337324  0  3.63238  0  0  -0.437538  -0.315214  0  3.629892  0
N  N89  1  0.12625873  0.52829017  0.26373790  1  0  -0.382758  0  3.301271  0  0  -0.323924  0  3.630283  0  0  -0.337444  0  3.631754  0  0  -0.43799  -0.315359  0  3.629096  0
N  N90  1  0.58187510  0.02837965  0.76368781  1  0  -0.382683  0  3.302185  0  0  -0.323945  0  3.631267  0  0  -0.337399  0  3.632501  0  0  -0.43752  -0.315285  0  3.630008  0
N  N91  1  0.87373914  0.47170967  0.73626965  1  0  -0.382816  0  3.301501  0  0  -0.323984  0  3.630537  0  0  -0.337497  0  3.631996  0  0  -0.43806  -0.315408  0  3.629325  0
N  N92  1  0.13676136  0.98001336  0.59465996  1  0  -0.369041  0  3.261678  0  0  -0.306987  0  3.529835  0  0  -0.319228  0  3.532974  0  0  -0.502992  -0.298552  0  3.527538  0
N  N93  1  0.21178809  0.51999079  0.90532416  1  0  -0.368088  0  3.262229  0  0  -0.307519  0  3.532441  0  0  -0.319472  0  3.535015  0  0  -0.503667  -0.299142  0  3.530148  0
N  N94  1  0.86324154  0.01998943  0.40533983  1  0  -0.369048  0  3.26183  0  0  -0.307064  0  3.530053  0  0  -0.319295  0  3.533173  0  0  -0.502966  -0.29863  0  3.527753  0
N  N95  1  0.78820808  0.48000802  0.09467653  1  0  -0.368257  0  3.262281  0  0  -0.307597  0  3.532485  0  0  -0.319551  0  3.535081  0  0  -0.503706  -0.299168  0  3.530079  0
N  N96  1  0.12837635  0.09250370  0.79558126  1  0  -0.245687  0  3.346917  0  0  -0.175564  0  3.548705  0  0  -0.190768  0  3.558291  0  0  -0.476485  -0.165028  0  3.542197  0
N  N97  1  0.51670707  0.40758084  0.70434749  1  0  -0.249874  0  3.347294  0  0  -0.179124  0  3.549932  0  0  -0.194347  0  3.559213  0  0  -0.477699  -0.168681  0  3.543609  0
N  N98  1  0.87162611  0.90749611  0.20441921  1  0  -0.245705  0  3.346911  0  0  -0.175474  0  3.548538  0  0  -0.190739  0  3.558193  0  0  -0.476476  -0.16494  0  3.542032  0
N  N99  1  0.48329009  0.59242195  0.29565275  1  0  -0.249779  0  3.347313  0  0  -0.179028  0  3.549917  0  0  -0.194237  0  3.559204  0  0  -0.47772  -0.168593  0  3.543594  0
