# generated using pymatgen
data_CuH8C12N2O5
_symmetry_space_group_name_H-M   'P 1'
_cell_length_a   8.88765136
_cell_length_b   11.75075803
_cell_length_c   12.11273681
_cell_angle_alpha   68.01771471
_cell_angle_beta   68.48885751
_cell_angle_gamma   67.78456957
_symmetry_Int_Tables_number   1
_chemical_formula_structural   CuH8C12N2O5
_chemical_formula_sum   'Cu4 H32 C48 N8 O20'
_cell_volume   1047.95302407
_cell_formula_units_Z   4
loop_
 _symmetry_equiv_pos_site_id
 _symmetry_equiv_pos_as_xyz
  1  'x, y, z'
loop_
 _atom_site_type_symbol
 _atom_site_label
 _atom_site_symmetry_multiplicity
 _atom_site_fract_x
 _atom_site_fract_y
 _atom_site_fract_z
 _atom_site_occupancy
 _atom_site_hle17_ddec_charge
 _atom_site_hle17_ddec_spin_density
 _atom_site_hle17_ddec_sum_bond_order
 _atom_site_hle17_magmom
 _atom_site_hse06_10hf_ddec_charge
 _atom_site_hse06_10hf_ddec_spin_density
 _atom_site_hse06_10hf_ddec_sum_bond_order
 _atom_site_hse06_10hf_magmom
 _atom_site_hse06_ddec_charge
 _atom_site_hse06_ddec_spin_density
 _atom_site_hse06_ddec_sum_bond_order
 _atom_site_hse06_magmom
 _atom_site_pbe_cm5_charge
 _atom_site_pbe_ddec_charge
 _atom_site_pbe_ddec_spin_density
 _atom_site_pbe_ddec_sum_bond_order
 _atom_site_pbe_magmom
Cu  Cu0  1  0.42095018  0.49901427  0.27590064  1  0.887858  -0.733754  1.773136  -0.517  0.864063  -0.81429  2.167464  -0.631  0.953107  -0.890152  2.099756  -0.718  0.743663  0.809602  -0.758213  2.215399  -0.573
Cu  Cu1  1  0.19596919  0.00096870  0.22409102  1  0.888691  -0.733911  1.772514  -0.518  0.863952  -0.81489  2.167813  -0.631  0.953462  -0.890702  2.099399  -0.718  0.744457  0.809515  -0.758813  2.215619  -0.573
Cu  Cu2  1  0.57905902  0.50099079  0.72408521  1  0.887726  0.733767  1.773396  0.517  0.864114  0.814298  2.167521  0.631  0.95307  0.89016  2.099948  0.718  0.743712  0.809659  0.758213  2.215456  0.573
Cu  Cu3  1  0.80403966  0.99902458  0.77592082  1  0.88879  0.73393  1.772511  0.518  0.864048  0.814906  2.167799  0.631  0.953565  0.890713  2.099363  0.718  0.744543  0.809622  0.75883  2.215591  0.574
H  H4  1  0.42440241  0.61748959  0.46251621  1  0.101284  -0.001441  0.927361  -0.002  0.110063  -0.001202  0.985966  -0.002  0.111887  -0.000846  0.984148  -0.002  0.1262  0.108459  -0.001495  0.987625  -0.002
H  H5  1  0.50440614  0.88261373  0.03726601  1  0.102894  -0.001436  0.927028  -0.002  0.111699  -0.001198  0.985468  -0.002  0.113495  -0.000844  0.983704  -0.002  0.127128  0.110138  -0.001489  0.987077  -0.002
H  H6  1  0.57559485  0.38252427  0.53745303  1  0.101398  0.001441  0.927286  0.002  0.110149  0.001202  0.985868  0.002  0.111976  0.000846  0.98405  0.002  0.126263  0.108546  0.001495  0.987526  0.002
H  H7  1  0.49558900  0.11737648  0.96276035  1  0.102969  0.001436  0.92702  0.002  0.111745  0.001199  0.985472  0.002  0.113541  0.000844  0.983709  0.002  0.127176  0.110188  0.00149  0.987074  0.002
H  H8  1  0.20341453  0.73846420  0.60892833  1  0.130696  -0.00041  0.94109  0.0  0.136827  -0.000397  1.003533  0.0  0.140841  -0.000296  1.000708  0.0  0.118544  0.133784  -0.000463  1.005941  -0.001
H  H9  1  0.55059059  0.76168052  0.89092105  1  0.130451  -0.000409  0.941202  0.0  0.136582  -0.000397  1.003726  0.0  0.140589  -0.000296  1.000919  0.0  0.117918  0.133551  -0.000463  1.006105  -0.001
H  H10  1  0.79659486  0.26153887  0.39106345  1  0.130615  0.000412  0.94118  0.0  0.13678  0.000397  1.003546  0.0  0.140793  0.000296  1.000726  0.0  0.118578  0.133741  0.000463  1.005957  0.001
H  H11  1  0.44940981  0.23831854  0.10908593  1  0.130377  0.000411  0.941227  0.0  0.136551  0.000397  1.003692  0.0  0.140555  0.000296  1.000885  0.0  0.117882  0.133519  0.000463  1.006068  0.001
H  H12  1  0.83188375  0.72084668  0.47133777  1  0.113094  -0.000676  1.005512  -0.001  0.122037  -0.000525  1.069665  -0.001  0.125427  -0.000358  1.067871  -0.001  0.109205  0.119577  -0.000658  1.070897  -0.001
H  H13  1  0.02394861  0.77930329  0.02857107  1  0.11357  -0.000674  1.006034  -0.001  0.122047  -0.000523  1.070413  -0.001  0.125477  -0.000358  1.068664  -0.001  0.109283  0.119519  -0.000655  1.071715  -0.001
H  H14  1  0.16812826  0.27913820  0.52866158  1  0.112977  0.000676  1.00561  0.001  0.121955  0.000525  1.069722  0.001  0.125333  0.000358  1.067927  0.001  0.109184  0.119495  0.000658  1.070953  0.001
H  H15  1  0.97604422  0.22072946  0.97140898  1  0.113603  0.000677  1.005902  0.001  0.122024  0.000524  1.07039  0.001  0.125472  0.000358  1.068589  0.001  0.109249  0.119497  0.000655  1.071692  0.001
H  H16  1  0.78962385  0.63863246  0.36733784  1  0.127558  -0.000771  0.946349  -0.001  0.137476  -0.000652  1.005201  -0.001  0.14083  -0.000446  1.003779  -0.001  0.11292  0.134936  -0.000824  1.006391  -0.001
H  H17  1  0.79569029  0.86116439  0.13270080  1  0.12865  -0.00077  0.945198  -0.001  0.138246  -0.000653  1.00435  -0.001  0.141646  -0.000447  1.002953  -0.001  0.113284  0.135698  -0.000826  1.005528  -0.001
H  H18  1  0.21037337  0.36137450  0.63264794  1  0.127605  0.00077  0.946189  0.001  0.137459  0.000652  1.005118  0.001  0.140818  0.000446  1.003689  0.001  0.112946  0.134925  0.000825  1.006302  0.001
H  H19  1  0.20429742  0.13883848  0.86730563  1  0.128637  0.000771  0.945149  0.001  0.138266  0.000653  1.004251  0.001  0.141656  0.000447  1.002877  0.001  0.113289  0.135718  0.000826  1.005428  0.001
H  H20  1  0.03533728  0.45296245  0.07466152  1  0.116194  -0.000312  0.979242  0.0  0.124063  -0.000322  1.042723  0.0  0.12774  -0.000234  1.040842  0.0  0.113571  0.121279  -0.000389  1.044458  0.0
H  H21  1  0.56330695  0.04661190  0.42559197  1  0.115445  -0.00031  0.980492  0.0  0.122986  -0.000322  1.044325  0.0  0.126687  -0.000234  1.04237  0.0  0.112951  0.120187  -0.000388  1.0461  0.0
H  H22  1  0.96466388  0.54702533  0.92533356  1  0.116152  0.000312  0.979435  0.0  0.124081  0.000322  1.042815  0.0  0.127757  0.000234  1.040959  0.0  0.113575  0.121296  0.000389  1.044549  0.0
H  H23  1  0.43669089  0.95337548  0.57443344  1  0.115501  0.00031  0.980375  0.0  0.123018  0.000322  1.044242  0.0  0.126717  0.000234  1.042289  0.0  0.112903  0.120217  0.000388  1.046019  0.0
H  H24  1  0.48223107  0.23845624  0.48355809  1  0.414727  1.5e-05  0.893117  0.0  0.390255  2.9e-05  0.948833  0.0  0.401915  3e-05  0.93191  0.0  0.281352  0.382382  2.7e-05  0.960208  0.0
H  H25  1  0.20433090  0.26174132  0.01628127  1  0.41474  1.1e-05  0.893322  0.0  0.390266  2.6e-05  0.948904  0.0  0.401906  2.8e-05  0.932026  0.0  0.281621  0.382405  2.2e-05  0.960258  0.0
H  H26  1  0.51777678  0.76153813  0.51644314  1  0.414657  -1.5e-05  0.893207  0.0  0.390154  -2.9e-05  0.948953  0.0  0.401812  -3e-05  0.932036  0.0  0.281251  0.382284  -2.7e-05  0.960321  0.0
H  H27  1  0.79567257  0.73825306  0.98371949  1  0.414702  -1e-05  0.89337  0.0  0.390239  -2.6e-05  0.948938  0.0  0.401879  -2.8e-05  0.932062  0.0  0.281607  0.382375  -2.2e-05  0.960295  0.0
H  H28  1  0.37584257  0.26124096  0.39231064  1  0.409476  8.5e-05  0.90156  0.0  0.381366  7e-05  0.963802  0.0  0.392681  5.9e-05  0.947347  0.0  0.280447  0.373595  7.4e-05  0.975075  0.0
H  H29  1  0.02953563  0.23884888  0.10763006  1  0.410552  8.4e-05  0.90051  0.0  0.382576  6.9e-05  0.962497  0.0  0.393901  5.9e-05  0.946035  0.0  0.281017  0.374792  7.3e-05  0.973794  0.0
H  H30  1  0.62417687  0.73874964  0.60768736  1  0.409477  -8.5e-05  0.901557  0.0  0.381368  -7e-05  0.963791  0.0  0.392684  -6e-05  0.947337  0.0  0.280417  0.3736  -7.4e-05  0.97506  0.0
H  H31  1  0.97046577  0.76114645  0.89237097  1  0.410537  -8.5e-05  0.900524  0.0  0.382573  -6.9e-05  0.962493  0.0  0.393898  -5.9e-05  0.946031  0.0  0.28103  0.374786  -7.3e-05  0.973794  0.0
H  H32  1  0.31156202  0.42932056  0.10248419  1  0.104392  -0.001446  0.954453  -0.003  0.110705  -0.001112  1.018183  -0.002  0.113822  -0.000719  1.014694  -0.002  0.125269  0.108318  -0.001464  1.020736  -0.003
H  H33  1  0.84357186  0.07069773  0.39749499  1  0.104604  -0.001446  0.954964  -0.003  0.110508  -0.00111  1.018893  -0.002  0.113541  -0.000717  1.015615  -0.002  0.125402  0.108176  -0.001461  1.021359  -0.003
H  H34  1  0.68843006  0.57067578  0.89751222  1  0.104231  0.001444  0.954582  0.003  0.110668  0.001112  1.01819  0.002  0.11378  0.000719  1.01471  0.002  0.125286  0.108281  0.001464  1.020744  0.003
H  H35  1  0.15642647  0.92929080  0.60251585  1  0.104712  0.001447  0.954935  0.003  0.110575  0.00111  1.018885  0.002  0.113611  0.000717  1.015601  0.002  0.125388  0.108241  0.001461  1.021351  0.003
C  C36  1  0.29171363  0.64275596  0.46711073  1  0.168241  0.007602  3.636861  0.008  0.136037  0.0014  3.903614  0.002  0.147757  0.002383  3.916619  0.004  0.062022  0.127988  0.000685  3.895947  0.002
C  C37  1  0.40148547  0.85738164  0.03274902  1  0.16771  0.007567  3.63738  0.008  0.135135  0.001389  3.904931  0.002  0.146829  0.002373  3.918045  0.004  0.061995  0.127079  0.000672  3.89727  0.002
C  C38  1  0.70828606  0.35725775  0.53286953  1  0.16818  -0.007588  3.636948  -0.008  0.136022  -0.0014  3.903657  -0.002  0.147744  -0.002383  3.916656  -0.004  0.062047  0.127973  -0.000685  3.895989  -0.002
C  C39  1  0.59851235  0.14261352  0.96726423  1  0.167554  -0.007533  3.637534  -0.008  0.135032  -0.001387  3.90509  -0.002  0.146723  -0.002372  3.918204  -0.004  0.061882  0.126982  -0.00067  3.897423  -0.002
C  C40  1  0.16753466  0.71280230  0.54668839  1  -0.082524  -0.010046  3.629608  -0.011  -0.107875  -0.004431  3.883828  -0.006  -0.110382  -0.003998  3.897356  -0.005  -0.061947  -0.106799  -0.004796  3.875816  -0.006
C  C41  1  0.42684268  0.78736073  0.95317012  1  -0.079632  -0.010045  3.629763  -0.011  -0.105156  -0.004444  3.884095  -0.006  -0.107732  -0.004005  3.897709  -0.005  -0.060577  -0.104026  -0.004816  3.876044  -0.006
C  C42  1  0.83247050  0.28721134  0.45329612  1  -0.082456  0.010025  3.629614  0.011  -0.107793  0.004431  3.883786  0.006  -0.110293  0.003996  3.897294  0.005  -0.062033  -0.106719  0.004795  3.875778  0.006
C  C43  1  0.57315953  0.21264026  0.04683504  1  -0.079561  0.009999  3.629799  0.011  -0.1051  0.004444  3.884118  0.006  -0.107668  0.004006  3.897726  0.005  -0.060494  -0.103966  0.004815  3.876081  0.006
C  C44  1  0.99933499  0.74503765  0.54718880  1  -0.001276  0.018897  3.691591  0.019  0.015887  0.008797  3.926536  0.01  0.014328  0.006852  3.944377  0.008  0.005235  0.016597  0.010594  3.914927  0.011
C  C45  1  0.29137729  0.75506465  0.95276072  1  -0.004574  0.018899  3.691076  0.019  0.013225  0.008794  3.925658  0.01  0.011705  0.006844  3.943482  0.008  0.004636  0.01393  0.010597  3.914059  0.011
C  C46  1  0.00065784  0.25496437  0.45281059  1  -0.001233  -0.018879  3.691544  -0.019  0.015883  -0.008798  3.926487  -0.01  0.014323  -0.00685  3.944324  -0.008  0.005205  0.016591  -0.010594  3.914887  -0.011
C  C47  1  0.70862319  0.24494888  0.04723222  1  -0.004534  -0.01886  3.691193  -0.019  0.013263  -0.008794  3.925829  -0.01  0.011731  -0.006844  3.94365  -0.008  0.00467  0.013968  -0.010597  3.91424  -0.011
C  C48  1  0.96190773  0.70102530  0.47070241  1  -0.143588  -0.00546  3.691104  -0.005  -0.17556  -0.001862  3.936943  -0.002  -0.181415  -0.001987  3.958925  -0.002  -0.080404  -0.171545  -0.001796  3.922194  -0.002
C  C49  1  0.13351200  0.79909827  0.02925444  1  -0.142291  -0.005428  3.691402  -0.005  -0.173722  -0.001836  3.936307  -0.002  -0.179644  -0.001971  3.958197  -0.002  -0.079997  -0.169662  -0.001759  3.921602  -0.002
C  C50  1  0.03809424  0.29897292  0.52929623  1  -0.14348  0.005442  3.691035  0.005  -0.175509  0.001862  3.936898  0.002  -0.181343  0.001985  3.958856  0.002  -0.080349  -0.171496  0.001796  3.922147  0.002
C  C51  1  0.86648310  0.20092201  0.97073239  1  -0.142341  0.005388  3.691271  0.005  -0.173788  0.001835  3.93622  0.002  -0.179709  0.001971  3.958126  0.002  -0.079974  -0.169726  0.001758  3.921515  0.002
C  C52  1  0.09109659  0.63006321  0.39511463  1  0.163628  0.003641  3.780839  0.004  0.161116  -0.000315  4.031023  0.0  0.16699  0.00062  4.053231  0.001  0.109258  0.157334  -0.000953  4.016126  -0.001
C  C53  1  0.11625852  0.86999654  0.10486336  1  0.161328  0.003649  3.784157  0.004  0.159456  -0.000301  4.0332  0.0  0.165258  0.000627  4.05552  0.001  0.108581  0.155737  -0.000928  4.018236  -0.001
C  C54  1  0.90890159  0.36993984  0.60487870  1  0.163526  -0.003629  3.78108  -0.004  0.161129  0.000315  4.031134  0.0  0.167006  -0.000619  4.053338  -0.001  0.109303  0.157354  0.000952  4.016236  0.001
C  C55  1  0.88373317  0.13000446  0.89514023  1  0.161344  -0.003619  3.784288  -0.004  0.159553  0.0003  4.033263  0.0  0.165353  -0.000629  4.055589  -0.001  0.108702  0.155839  0.000926  4.018298  0.001
C  C56  1  0.06223441  0.58031643  0.31250276  1  0.172389  0.001707  3.78161  0.002  0.170358  -0.000881  4.02823  0.0  0.178542  0.000142  4.049734  0.001  0.114886  0.165028  -0.001743  4.013818  -0.001
C  C57  1  0.95506355  0.91970754  0.18747420  1  0.173142  0.001701  3.780872  0.002  0.170772  -0.000878  4.027285  0.0  0.179042  0.000147  4.04875  0.001  0.11642  0.165411  -0.001737  4.0129  -0.001
C  C58  1  0.93776285  0.41968858  0.68748664  1  0.172399  -0.001707  3.781642  -0.002  0.170319  0.00088  4.028287  0.0  0.17849  -0.000143  4.049809  -0.001  0.114878  0.164978  0.001742  4.013907  0.001
C  C59  1  0.04492865  0.08028770  0.81253250  1  0.173256  -0.00172  3.78082  -0.002  0.17084  0.000876  4.027309  0.0  0.179111  -0.000147  4.048777  -0.001  0.116373  0.165472  0.001736  4.012926  0.001
C  C60  1  0.90237674  0.59441243  0.30515332  1  -0.153326  -0.004535  3.657061  -0.004  -0.179232  -0.002443  3.89802  -0.002  -0.185747  -0.00217  3.917905  -0.002  -0.075732  -0.174937  -0.002681  3.884977  -0.002
C  C61  1  0.80202535  0.90550347  0.19481343  1  -0.154837  -0.004564  3.659838  -0.004  -0.180658  -0.002449  3.900729  -0.002  -0.187335  -0.002178  3.920611  -0.002  -0.077145  -0.176292  -0.002686  3.887744  -0.002
C  C62  1  0.09761957  0.40558870  0.69484069  1  -0.15339  0.004534  3.657071  0.004  -0.1792  0.002442  3.898113  0.002  -0.185712  0.00217  3.917995  0.002  -0.075759  -0.174902  0.002681  3.885074  0.002
C  C63  1  0.19795929  0.09450233  0.80518818  1  -0.154869  0.004584  3.659682  0.004  -0.180643  0.002449  3.900644  0.002  -0.187324  0.002178  3.920524  0.002  -0.077075  -0.176279  0.002686  3.887656  0.002
C  C64  1  0.88988414  0.55031646  0.21756551  1  0.021494  -0.003331  3.698287  -0.004  0.042318  -0.002636  3.927568  -0.003  0.043642  -0.000912  3.942981  -0.001  0.013809  0.040977  -0.004117  3.917757  -0.005
C  C65  1  0.65796871  0.94946103  0.28252258  1  0.019985  -0.00332  3.698121  -0.004  0.041444  -0.002626  3.926867  -0.003  0.042809  -0.000903  3.942273  -0.001  0.013659  0.040062  -0.004105  3.917081  -0.005
C  C66  1  0.11012120  0.44967895  0.78242907  1  0.021492  0.003332  3.698109  0.004  0.04217  0.002634  3.927604  0.003  0.043499  0.00091  3.943019  0.001  0.013758  0.040836  0.004115  3.91778  0.005
C  C67  1  0.34202725  0.05054369  0.71748775  1  0.020158  0.003296  3.697813  0.004  0.041487  0.002625  3.926778  0.003  0.042856  0.000901  3.942172  0.001  0.013761  0.040109  0.004102  3.916987  0.005
C  C68  1  0.03847957  0.49025357  0.14295611  1  -0.117094  -0.00873  3.65294  -0.01  -0.142259  -0.004973  3.902229  -0.006  -0.148381  -0.004042  3.919206  -0.005  -0.075708  -0.138768  -0.005727  3.891933  -0.007
C  C69  1  0.67196071  0.00944491  0.35719361  1  -0.113449  -0.008777  3.651705  -0.01  -0.138507  -0.004986  3.900507  -0.006  -0.144566  -0.004053  3.917372  -0.005  -0.073189  -0.135023  -0.005747  3.890219  -0.007
C  C70  1  0.96151825  0.50973419  0.85704113  1  -0.117176  0.008735  3.653146  0.01  -0.142317  0.004974  3.902486  0.006  -0.148428  0.004044  3.919411  0.005  -0.075707  -0.138824  0.005728  3.89218  0.007
C  C71  1  0.32802599  0.99056558  0.64281269  1  -0.113472  0.008801  3.651531  0.01  -0.13849  0.004987  3.900383  0.006  -0.14455  0.004053  3.917252  0.005  -0.073209  -0.135006  0.005748  3.890088  0.007
C  C72  1  0.85765894  0.82464856  0.62786892  1  0.647747  -0.003056  3.880419  -0.007  0.603404  0.001066  4.180345  -0.001  0.640547  0.000591  4.173386  -0.001  0.216258  0.578293  0.001572  4.184001  -0.002
C  C73  1  0.30998838  0.67541413  0.87211944  1  0.650316  -0.00306  3.874884  -0.007  0.605572  0.001066  4.175407  -0.001  0.642685  0.000595  4.168448  -0.001  0.218942  0.580462  0.00157  4.179045  -0.002
C  C74  1  0.14234150  0.17533706  0.37214527  1  0.647707  0.003053  3.880287  0.007  0.603494  -0.001065  4.180121  0.001  0.640637  -0.00059  4.173155  0.001  0.216233  0.578387  -0.001571  4.183783  0.002
C  C75  1  0.69001193  0.32459750  0.12787367  1  0.650268  0.003053  3.875358  0.007  0.605503  -0.001067  4.175897  0.001  0.642642  -0.000596  4.1689  0.001  0.218859  0.580395  -0.001571  4.179546  0.002
C  C76  1  0.72251495  0.56863640  0.19882791  1  0.652123  0.002361  3.898514  0.006  0.60313  -0.001106  4.204157  0.001  0.641409  -0.000497  4.193146  0.001  0.214832  0.577186  -0.001783  4.210632  0.001
C  C77  1  0.49014923  0.93115570  0.30133767  1  0.652885  0.00232  3.895002  0.005  0.6034  -0.001129  4.201343  0.001  0.641588  -0.000514  4.190528  0.001  0.215941  0.577519  -0.001817  4.207715  0.001
C  C78  1  0.27749343  0.43136864  0.80115876  1  0.652095  -0.002361  3.898419  -0.006  0.603133  0.001106  4.204113  -0.001  0.641409  0.000498  4.193088  -0.001  0.214844  0.577181  0.001783  4.210591  -0.001
C  C79  1  0.50985211  0.06883750  0.69867934  1  0.653383  -0.002322  3.895133  -0.005  0.603898  0.001128  4.20152  -0.001  0.642091  0.000514  4.190695  -0.001  0.216196  0.578  0.001816  4.207914  -0.001
C  C80  1  0.19284392  0.47540247  0.15822922  1  0.160398  0.004363  3.653486  0.005  0.129996  0.000195  3.914216  0.001  0.14123  0.00133  3.928476  0.003  0.05885  0.122517  -0.000798  3.905382  0.0
C  C81  1  0.82662192  0.02459836  0.34175575  1  0.157131  0.004368  3.65649  0.005  0.127351  0.000193  3.916643  0.001  0.138556  0.00133  3.930956  0.003  0.056182  0.119871  -0.0008  3.907782  0.0
C  C82  1  0.80715104  0.52459771  0.84176553  1  0.160716  -0.004368  3.65328  -0.005  0.130209  -0.000196  3.914055  -0.001  0.141446  -0.001331  3.928315  -0.003  0.058962  0.122736  0.000796  3.905228  0.0
C  C83  1  0.17336835  0.97539780  0.65825352  1  0.156847  -0.004387  3.656729  -0.005  0.127169  -0.000194  3.916784  -0.001  0.138374  -0.001331  3.931106  -0.003  0.056176  0.119688  0.000798  3.907916  0.0
N  N84  1  0.25502947  0.60359924  0.39205906  1  -0.328061  -0.082546  3.293653  -0.102  -0.291573  -0.059846  3.596218  -0.079  -0.32122  -0.049319  3.614922  -0.069  -0.337061  -0.274001  -0.065623  3.5858  -0.083
N  N85  1  0.25067875  0.89645497  0.10790190  1  -0.329837  -0.082544  3.295135  -0.102  -0.293185  -0.059766  3.597722  -0.079  -0.322928  -0.04927  3.61649  -0.069  -0.338731  -0.275618  -0.065513  3.58727  -0.083
N  N86  1  0.74497116  0.39640384  0.60793179  1  -0.328089  0.082541  3.293998  0.102  -0.29168  0.059851  3.596531  0.079  -0.321311  0.049322  3.615241  0.069  -0.337158  -0.274109  0.065629  3.586106  0.083
N  N87  1  0.74931562  0.10354301  0.89211427  1  -0.329784  0.082522  3.295392  0.101  -0.293168  0.059771  3.597945  0.079  -0.322912  0.049273  3.616718  0.069  -0.338784  -0.275602  0.065518  3.587492  0.083
N  N88  1  0.20452755  0.51971490  0.24097172  1  -0.334928  -0.072349  3.301971  -0.089  -0.294072  -0.05407  3.598178  -0.071  -0.323224  -0.04502  3.616577  -0.062  -0.341664  -0.276878  -0.05885  3.58796  -0.074
N  N89  1  0.96526596  0.98035505  0.25895221  1  -0.33343  -0.072428  3.299385  -0.089  -0.292217  -0.054073  3.594949  -0.071  -0.321498  -0.045023  3.613358  -0.063  -0.340685  -0.275039  -0.058851  3.584753  -0.074
N  N90  1  0.79547065  0.48029875  0.75901251  1  -0.334857  0.072361  3.30165  0.089  -0.2941  0.054072  3.598074  0.071  -0.323229  0.045022  3.616468  0.062  -0.341787  -0.276929  0.058854  3.58789  0.074
N  N91  1  0.03473324  0.01962764  0.74106749  1  -0.333367  0.072441  3.299592  0.089  -0.292199  0.054069  3.595208  0.071  -0.321482  0.045019  3.613617  0.063  -0.340716  -0.275023  0.058846  3.585013  0.074
O  O92  1  0.90607887  0.89877212  0.65477967  1  -0.584594  0.093399  2.111438  0.122  -0.561873  0.055253  2.406466  0.079  -0.606289  0.040883  2.398393  0.062  -0.316608  -0.531681  0.065317  2.411496  0.09
O  O93  1  0.45946438  0.60132059  0.84526160  1  -0.584653  0.093298  2.107937  0.122  -0.562487  0.055157  2.403234  0.079  -0.606819  0.04079  2.395262  0.062  -0.316755  -0.532227  0.065219  2.408237  0.09
O  O94  1  0.09392041  0.10120667  0.34524727  1  -0.584457  -0.0934  2.111394  -0.122  -0.561883  -0.055257  2.406473  -0.079  -0.606303  -0.040885  2.398408  -0.062  -0.316588  -0.531682  -0.065319  2.411498  -0.09
O  O95  1  0.54054017  0.39869689  0.15472111  1  -0.584741  -0.093299  2.108222  -0.122  -0.562486  -0.055161  2.403499  -0.079  -0.606847  -0.040794  2.395502  -0.062  -0.316723  -0.532224  -0.065217  2.408506  -0.09
O  O96  1  0.71163726  0.81375994  0.65952740  1  -0.59299  0.001508  1.969091  0.003  -0.542349  0.00073  2.19022  0.002  -0.568721  -0.000104  2.183973  0.0  -0.299329  -0.523913  0.00172  2.193936  0.003
O  O97  1  0.18481017  0.68625648  0.84039726  1  -0.593474  0.001465  1.967721  0.003  -0.543103  0.000709  2.189922  0.001  -0.569516  -0.000116  2.183706  0.0  -0.30052  -0.524587  0.001687  2.193598  0.003
O  O98  1  0.28836634  0.18621903  0.34048534  1  -0.592964  -0.001508  1.968853  -0.003  -0.542413  -0.000731  2.18995  -0.002  -0.568773  0.000102  2.18369  0.0  -0.299287  -0.523975  -0.001722  2.19367  -0.003
O  O99  1  0.81518563  0.31375129  0.15959916  1  -0.593463  -0.001462  1.96786  -0.003  -0.543068  -0.000709  2.190012  -0.001  -0.56949  0.000114  2.183779  0.0  -0.300515  -0.524553  -0.001688  2.193693  -0.003
O  O100  1  0.61557737  0.52448121  0.29565417  1  -0.588778  -0.083418  2.092735  -0.109  -0.563923  -0.049466  2.387417  -0.071  -0.60722  -0.037376  2.378491  -0.056  -0.314818  -0.534377  -0.057245  2.392992  -0.078
O  O101  1  0.43577849  0.97533068  0.20454986  1  -0.589649  -0.083149  2.092303  -0.109  -0.564602  -0.049306  2.387526  -0.07  -0.60787  -0.037286  2.378456  -0.056  -0.315886  -0.535139  -0.05702  2.393122  -0.078
O  O102  1  0.38443094  0.47552473  0.70433688  1  -0.588682  0.083398  2.092854  0.109  -0.563801  0.049456  2.387407  0.071  -0.607091  0.037369  2.378533  0.056  -0.314799  -0.53427  0.057235  2.393008  0.078
O  O103  1  0.56422832  0.02466636  0.79546531  1  -0.589901  0.083144  2.092177  0.109  -0.564921  0.049303  2.387502  0.07  -0.608189  0.037284  2.378421  0.056  -0.316087  -0.53546  0.057017  2.393117  0.078
O  O104  1  0.70066881  0.62379586  0.09285741  1  -0.609724  -0.000546  1.995734  -0.002  -0.563543  -0.00021  2.230834  -0.001  -0.591408  0.00044  2.222191  0.0  -0.297529  -0.543845  -0.000929  2.236069  -0.002
O  O105  1  0.41749493  0.87606917  0.40736855  1  -0.60932  -0.000506  1.993593  -0.002  -0.563256  -0.000191  2.229379  -0.001  -0.591185  0.00045  2.220964  0.0  -0.298097  -0.543525  -0.000895  2.23448  -0.002
O  O106  1  0.29934244  0.37620154  0.90713120  1  -0.609794  0.000545  1.995626  0.002  -0.563603  0.000209  2.230704  0.001  -0.591473  -0.000441  2.222075  0.0  -0.297577  -0.543909  0.000928  2.235955  0.002
O  O107  1  0.58250471  0.12392403  0.59264896  1  -0.609663  0.000504  1.993952  0.002  -0.563569  0.000191  2.229748  0.001  -0.591496  -0.00045  2.221325  0.0  -0.298251  -0.543832  0.000894  2.234861  0.002
O  O108  1  0.41230964  0.30604603  0.42898763  1  -0.855197  0.000881  1.867065  0.0  -0.817133  0.000518  2.054048  0.0  -0.838918  0.000781  2.0182  0.0  -0.606196  -0.801601  0.00021  2.0788  -0.001
O  O109  1  0.14751441  0.19414044  0.07096023  1  -0.856208  0.000888  1.865591  0.0  -0.818068  0.000527  2.052815  0.0  -0.839907  0.000783  2.016885  0.0  -0.607185  -0.802452  0.000229  2.077428  -0.001
O  O110  1  0.58771064  0.69394653  0.57100707  1  -0.855117  -0.00088  1.867154  0.0  -0.817072  -0.000518  2.054259  0.0  -0.8388  -0.000782  2.018322  0.0  -0.606042  -0.801545  -0.00021  2.078999  0.001
O  O111  1  0.85248465  0.80585678  0.92904198  1  -0.856154  -0.000889  1.865647  0.0  -0.818037  -0.000528  2.052851  0.0  -0.839871  -0.000783  2.016909  0.0  -0.607188  -0.802413  -0.00023  2.077453  0.001
