# generated using pymatgen
data_CuH18C16(NO)4
_symmetry_space_group_name_H-M   'P 1'
_cell_length_a   5.83820173
_cell_length_b   8.30461749
_cell_length_c   8.61410828
_cell_angle_alpha   89.78984855
_cell_angle_beta   101.57646549
_cell_angle_gamma   93.99306322
_symmetry_Int_Tables_number   1
_chemical_formula_structural   CuH18C16(NO)4
_chemical_formula_sum   'Cu1 H18 C16 N4 O4'
_cell_volume   408.13491751
_cell_formula_units_Z   1
loop_
 _symmetry_equiv_pos_site_id
 _symmetry_equiv_pos_as_xyz
  1  'x, y, z'
loop_
 _atom_site_type_symbol
 _atom_site_label
 _atom_site_symmetry_multiplicity
 _atom_site_fract_x
 _atom_site_fract_y
 _atom_site_fract_z
 _atom_site_occupancy
 _atom_site_hle17_ddec_charge
 _atom_site_hle17_ddec_spin_density
 _atom_site_hle17_ddec_sum_bond_order
 _atom_site_hle17_magmom
 _atom_site_hse06_10hf_ddec_charge
 _atom_site_hse06_10hf_ddec_spin_density
 _atom_site_hse06_10hf_ddec_sum_bond_order
 _atom_site_hse06_10hf_magmom
 _atom_site_hse06_ddec_charge
 _atom_site_hse06_ddec_spin_density
 _atom_site_hse06_ddec_sum_bond_order
 _atom_site_hse06_magmom
 _atom_site_pbe_cm5_charge
 _atom_site_pbe_ddec_charge
 _atom_site_pbe_ddec_spin_density
 _atom_site_pbe_ddec_sum_bond_order
 _atom_site_pbe_magmom
Cu  Cu0  1  0.16062872  0.96184698  0.75653672  1  0.779109  -0.665303  1.916289  -0.494  0.748698  -0.759901  2.333499  -0.608  0.836273  -0.822831  2.264795  -0.691  0.705235  0.696181  -0.717498  2.381228  -0.557
H  H1  1  0.57753806  0.30566817  0.40202932  1  0.08794  1.2e-05  0.94555  0.0  0.096543  -1e-06  1.008416  0.0  0.099683  -1e-06  1.005673  0.0  0.113645  0.093809  -8e-06  1.011027  0.0
H  H2  1  0.64633174  0.57646459  0.28677335  1  0.107971  -2e-06  0.946636  0.0  0.11933  -1.7e-05  1.005935  0.0  0.122759  -3e-06  1.004525  0.0  0.107182  0.116616  -3.7e-05  1.007569  0.0
H  H3  1  0.36868849  0.57589272  0.52839042  1  0.107662  3.6e-05  0.980806  0.0  0.117685  2.2e-05  1.04153  0.0  0.120272  1.4e-05  1.042145  0.0  0.105977  0.115431  2.8e-05  1.04196  0.0
H  H4  1  0.26669923  0.31302771  0.64491850  1  0.058079  0.00059  0.943082  0.0  0.062861  0.000816  1.018001  0.0  0.066408  0.000747  1.012972  0.0  0.106217  0.059735  0.000825  1.022176  0.0
H  H5  1  0.89980440  0.79100151  0.23928934  1  0.092965  4.9e-05  0.921497  0.0  0.109803  -6.8e-05  0.978884  0.0  0.111977  -4.9e-05  0.977085  0.0  0.100713  0.108052  -0.000126  0.980382  0.0
H  H6  1  0.19119382  0.74022780  0.24329783  1  0.100166  -0.000702  0.945986  -0.001  0.112917  -0.000452  1.013411  -0.001  0.113757  -0.00027  1.013761  0.0  0.103319  0.11234  -0.000547  1.012536  -0.001
H  H7  1  0.19692296  0.00414071  0.35038143  1  0.087188  -0.000761  0.950279  -0.002  0.099687  -0.000509  1.004969  -0.001  0.101579  -0.000309  1.004794  -0.001  0.118134  0.098091  -0.00085  1.005389  -0.001
H  H8  1  0.72392916  0.69608541  0.71126017  1  0.076248  0.000147  0.975234  0.0  0.080152  0.000105  1.048223  0.0  0.084006  0.000113  1.044484  0.0  0.109546  0.077199  8.6e-05  1.050963  0.0
H  H9  1  0.59866252  0.43664022  0.82755609  1  0.098539  -3e-05  0.958401  0.0  0.111278  -6.3e-05  1.017668  0.0  0.113994  -4.8e-05  1.017607  0.0  0.102439  0.108912  -7.1e-05  1.018561  0.0
H  H10  1  0.29681752  0.43248037  0.10944707  1  0.114309  9.2e-05  0.964391  0.0  0.12619  6.2e-05  1.021643  0.0  0.129783  5.4e-05  1.021035  0.0  0.107002  0.123386  6.4e-05  1.022671  0.0
H  H11  1  0.39323913  0.69506190  0.98363231  1  0.075088  0.00012  0.929206  0.0  0.084409  0.000144  0.990934  0.0  0.087643  0.000129  0.987999  0.0  0.112838  0.081556  0.000145  0.993913  0.0
H  H12  1  0.67575764  0.23766790  0.03259342  1  0.105455  2e-06  0.951876  0.0  0.117421  -0.000258  1.01744  0.0  0.120577  -0.000179  1.015066  0.0  0.096852  0.115017  -0.000321  1.019448  0.0
H  H13  1  0.93161525  0.26570135  0.18288112  1  0.101679  -0.001034  0.945203  -0.002  0.114232  -0.00078  1.010809  -0.001  0.115452  -0.000495  1.01132  -0.001  0.100995  0.113911  -0.001014  1.009053  -0.001
H  H14  1  0.88833831  0.00167368  0.05388790  1  0.076836  0.000149  0.893978  0.0  0.093553  0.000113  0.944579  0.0  0.094822  6.9e-05  0.944283  0.0  0.121941  0.092566  0.000127  0.945104  0.0
H  H15  1  0.84721957  0.88043447  0.51094271  1  0.309752  0.001554  0.948809  0.002  0.298943  0.000281  1.00625  0.001  0.30778  0.000573  1.000582  0.001  0.286048  0.292713  2.3e-05  1.010439  0.0
H  H16  1  0.95768815  0.06829183  0.50714919  1  0.281405  0.001452  0.952415  0.002  0.265152  5.3e-05  1.02335  0.0  0.27324  0.000476  1.018119  0.001  0.282649  0.259079  -0.000154  1.027849  0.0
H  H17  1  0.89349702  0.18118239  0.76096629  1  0.280108  0.001805  0.935072  0.002  0.263592  0.000364  1.009957  0.0  0.27015  0.000717  1.006668  0.001  0.284071  0.259524  7e-05  1.01135  0.0
H  H18  1  0.74020989  0.01332884  0.79129020  1  0.31901  0.001229  0.905971  0.002  0.309398  -7.6e-05  0.961012  0.0  0.317718  0.000294  0.955639  0.001  0.292969  0.303742  -0.000423  0.964861  0.0
C  C19  1  0.74901471  0.37189833  0.43234633  1  0.119464  0.000316  3.729488  0.0  0.090747  2.1e-05  3.989279  0.0  0.097294  6.6e-05  4.004961  0.0  0.041734  0.087454  -0.000156  3.977701  0.0
C  C20  1  0.78936031  0.52141960  0.36515696  1  -0.162483  -0.000341  3.702224  0.0  -0.182502  -0.000215  3.953399  0.0  -0.18952  -0.000137  3.974356  0.0  -0.08365  -0.17807  -0.000425  3.938179  0.0
C  C21  1  0.01356008  0.60080156  0.39739161  1  0.159977  1.7e-05  3.687436  0.0  0.178534  -5.3e-05  3.922125  0.0  0.182684  7e-05  3.945542  0.0  0.013262  0.176568  -6.2e-05  3.903702  0.0
C  C22  1  0.18898675  0.52343501  0.50051652  1  -0.174237  -0.000202  3.702069  0.0  -0.191917  -0.000192  3.945386  0.0  -0.200364  -0.000139  3.970169  0.0  -0.089838  -0.186678  -0.00036  3.928435  0.0
C  C23  1  0.13259573  0.37566173  0.56452807  1  0.112877  0.000143  3.774813  0.0  0.085027  0.000277  4.03698  0.0  0.089925  0.000353  4.056857  0.0  0.035092  0.082161  0.000335  4.023005  0.0
C  C24  1  0.06225811  0.75798998  0.31773729  1  -0.196759  -0.001701  3.674159  -0.002  -0.246917  -0.001473  3.921893  -0.001  -0.248099  -0.001049  3.93298  -0.001  -0.153567  -0.245513  -0.001846  3.913091  -0.002
C  C25  1  0.16272461  0.90238135  0.42739699  1  0.055429  0.002024  3.612173  0.003  0.045885  -0.000631  3.848385  0.001  0.045645  0.000393  3.86278  0.002  -0.005374  0.045705  -0.000979  3.839566  0.001
C  C26  1  0.40536893  0.87447850  0.52540007  1  0.629992  0.001408  3.84292  0.0  0.582108  -0.00137  4.149275  -0.002  0.615704  -0.000463  4.144009  -0.001  0.20841  0.559177  -0.001622  4.151812  -0.002
C  C27  1  0.84669943  0.63380776  0.79970753  1  0.126275  0.000922  3.725604  0.001  0.102627  0.000697  3.982852  0.0  0.109805  0.000657  4.001058  0.0  0.038864  0.098221  0.000633  3.970221  0.0
C  C28  1  0.77823681  0.48858978  0.86457898  1  -0.184201  -0.000319  3.721774  0.0  -0.199521  -0.000236  3.960226  0.0  -0.207645  -0.000195  3.981769  0.0  -0.092149  -0.194298  -0.00032  3.945485  0.0
C  C29  1  0.93832490  0.41160251  0.97889819  1  0.156008  0.000778  3.722338  0.001  0.176284  0.000257  3.952049  0.0  0.181897  0.000255  3.974422  0.0  0.008464  0.173314  0.000221  3.934366  0.0
C  C30  1  0.16548464  0.48688645  0.02064277  1  -0.187246  -0.000368  3.710109  0.0  -0.202643  -8.2e-05  3.950279  0.0  -0.210961  -7.2e-05  3.971625  0.0  -0.091995  -0.197251  -8.9e-05  3.934519  0.0
C  C31  1  0.21930991  0.63228096  0.95064694  1  0.118663  0.000555  3.755669  0.0  0.092542  0.00031  4.018482  0.0  0.099624  0.000353  4.036727  0.0  0.038563  0.089083  0.000272  4.00564  0.0
C  C32  1  0.86738979  0.25725608  0.05412059  1  -0.21589  -0.00383  3.684951  -0.004  -0.262725  -0.002987  3.927709  -0.003  -0.265015  -0.002097  3.93743  -0.002  -0.162654  -0.261029  -0.003489  3.920338  -0.003
C  C33  1  0.96565689  0.10575839  0.99762562  1  0.075983  0.003484  3.591929  0.004  0.061355  0.000491  3.836804  0.002  0.062077  0.001123  3.851322  0.002  0.00246  0.060599  0.000129  3.827928  0.001
C  C34  1  0.23442391  0.10278165  0.05615929  1  0.604567  0.005921  3.870457  0.004  0.561673  0.001022  4.18327  0.0  0.595242  0.001257  4.179329  0.0  0.196896  0.538916  0.000446  4.184914  0.0
N  N35  1  0.91755385  0.29901379  0.53183818  1  -0.345566  0.000803  3.171365  0.0  -0.29013  0.000545  3.426455  0.0  -0.30332  0.000598  3.442522  0.0  -0.324622  -0.281272  0.000361  3.41347  0.0
N  N36  1  0.00446906  0.95117797  0.52899231  1  -0.618741  -0.095796  3.180291  -0.121  -0.606588  -0.063858  3.463339  -0.084  -0.639835  -0.050659  3.46267  -0.073  -0.654743  -0.587344  -0.07013  3.466545  -0.088
N  N37  1  0.06353698  0.70634742  0.84216547  1  -0.34002  0.002213  3.232053  0.0  -0.298156  0.001696  3.52377  0.0  -0.318603  0.00203  3.542257  0.0  -0.336294  -0.285645  0.001435  3.510857  0.0
N  N38  1  0.90146773  0.07634142  0.82538920  1  -0.610551  -0.092688  3.157735  -0.119  -0.593886  -0.064366  3.433556  -0.086  -0.62554  -0.051067  3.433566  -0.074  -0.638265  -0.575016  -0.071851  3.435021  -0.091
O  O39  1  0.44655288  0.91362428  0.67432596  1  -0.611093  -0.056461  2.060509  -0.08  -0.568277  -0.042691  2.333087  -0.064  -0.605439  -0.033497  2.320462  -0.055  -0.332652  -0.543432  -0.049414  2.341537  -0.071
O  O40  1  0.55281670  0.81854174  0.45689233  1  -0.591484  -0.015507  1.978582  -0.02  -0.547505  -0.009171  2.204006  -0.013  -0.572414  -0.00489  2.19667  -0.007  -0.311205  -0.528859  -0.013388  2.207928  -0.018
O  O41  1  0.32635094  0.15750291  0.19058015  1  -0.582722  -0.019964  1.927701  -0.026  -0.551763  -0.009641  2.154629  -0.014  -0.57612  -0.004688  2.147028  -0.007  -0.318983  -0.533512  -0.015289  2.158364  -0.02
O  O42  1  0.34919274  0.03811917  0.96133471  1  -0.59775  -0.070814  2.040537  -0.099  -0.566097  -0.048184  2.321848  -0.073  -0.604893  -0.0372  2.309475  -0.061  -0.345527  -0.541135  -0.054733  2.330766  -0.078
