# generated using pymatgen
data_Zn4H49C80N22F
_symmetry_space_group_name_H-M   'P 1'
_cell_length_a   18.64798922
_cell_length_b   18.92777088
_cell_length_c   21.36104437
_cell_angle_alpha   110.53680634
_cell_angle_beta   103.32458388
_cell_angle_gamma   112.53395704
_symmetry_Int_Tables_number   1
_chemical_formula_structural   Zn4H49C80N22F
_chemical_formula_sum   'Zn4 H49 C80 N22 F1'
_cell_volume   5912.69792239
_cell_formula_units_Z   1
loop_
 _symmetry_equiv_pos_site_id
 _symmetry_equiv_pos_as_xyz
  1  'x, y, z'
loop_
 _atom_site_type_symbol
 _atom_site_label
 _atom_site_symmetry_multiplicity
 _atom_site_fract_x
 _atom_site_fract_y
 _atom_site_fract_z
 _atom_site_occupancy
 _atom_site_pbe_bader_charge
 _atom_site_pbe_bader_spin_density
 _atom_site_pbe_cm5_charge
 _atom_site_pbe_ddec_charge
 _atom_site_pbe_ddec_spin_density
 _atom_site_pbe_ddec_sum_bond_order
 _atom_site_pbe_magmom
Zn  Zn0  1  0.14067935  0.11950469  0.52601278  1  1.18443  0  0.734966  0.62286  0  2.421403  0
Zn  Zn1  1  0.91040357  0.89672769  0.50500871  1  1.189026  0  0.742987  0.605583  0  2.463722  0
Zn  Zn2  1  0.02864329  0.90887259  0.41430304  1  1.178985  0  0.748939  0.612418  0  2.499685  0
Zn  Zn3  1  0.01051447  0.10975944  0.60767383  1  1.192207  0  0.741852  0.623427  0  2.399532  0
H  H4  1  0.08968785  0.16478707  0.39929019  1  0.070837  0  0.117086  0.106005  0  1.004958  0
H  H5  1  0.24215502  0.67498894  0.49369285  1  0.061885  0  0.100313  0.101881  0  0.994957  0
H  H6  1  0.74781114  0.86878577  0.38073060  1  0.100511  0  0.112635  0.105524  0  1.025593  0
H  H7  1  0.23868675  0.54342037  0.49446077  1  0.039188  0  0.098904  0.100984  0  0.997513  0
H  H8  1  0.18966926  0.43006042  0.53070201  1  0.043794  0  0.097287  0.10111  0  1.032969  0
H  H9  1  0.10042846  0.46738932  0.70266136  1  0.034359  0  0.096075  0.099044  0  1.013536  0
H  H10  1  0.08043797  0.59489003  0.75378302  1  0.048033  0  0.099212  0.100542  0  0.997143  0
H  H11  1  0.07992982  0.72360358  0.75039501  1  0.054301  0  0.10138  0.103921  0  0.994496  0
H  H12  1  0.41234754  0.16830962  0.42819689  1  0.026598  0  0.095984  0.098949  0  1.010975  0
H  H13  1  0.27009606  0.88548232  0.32088151  1  0.068217  0  0.09727  0.101661  0  1.033346  0
H  H14  1  0.33363014  0.80048781  0.26885024  1  0.059842  0  0.101108  0.103211  0  0.993206  0
H  H15  1  0.01425724  0.86483525  0.62590439  1  0.095695  0  0.114035  0.099465  0  1.023767  0
H  H16  1  0.46526070  0.79557300  0.27343749  1  0.079314  0  0.101939  0.106397  0  1.002483  0
H  H17  1  0.90604198  0.70482979  0.26789185  1  0.059803  0  0.116583  0.102393  0  1.005383  0
H  H18  1  0.77103345  0.15587002  0.44876839  1  0.044312  0  0.102455  0.107782  0  1.002167  0
H  H19  1  0.69678330  0.24169500  0.45412471  1  0.062075  0  0.101627  0.103833  0  0.992942  0
H  H20  1  0.56490878  0.24623311  0.44741628  1  0.054604  0  0.098675  0.100804  0  0.998054  0
H  H21  1  0.79454542  0.57159402  0.16879187  1  0.066566  0  0.098088  0.096983  0  1.004592  0
H  H22  1  0.67300449  0.43113989  0.06182640  1  0.101031  0  0.103721  0.104171  0  1.017748  0
H  H23  1  0.51680998  0.22087306  0.87311605  1  0.067605  0  0.105028  0.107103  0  0.995879  0
H  H24  1  0.39165170  0.14010961  0.75170011  1  0.046245  0  0.099843  0.101466  0  0.998391  0
H  H25  1  0.65104966  0.54865956  0.30015678  1  0.057434  0  0.098375  0.098475  0  1.005061  0
H  H26  1  0.98473120  0.11718537  0.75965566  1  0.0588  0  0.118951  0.105811  0  0.993463  0
H  H27  1  0.36267270  0.26890199  0.98490784  1  0.101808  0  0.103084  0.103406  0  1.018502  0
H  H28  1  0.52898710  0.40949274  0.19155971  1  0.09611  0  0.10507  0.107663  0  0.994845  0
H  H29  1  0.03283129  0.30942411  0.65189464  1  0.072954  0  0.115008  0.101939  0  0.997885  0
H  H30  1  0.23803009  0.19136874  0.86472453  1  0.050801  0  0.096876  0.096288  0  1.008288  0
H  H31  1  0.04571393  0.08988597  0.85872852  1  0.04225  0  0.09688  0.094857  0  1.007619  0
H  H32  1  0.05324202  0.07960965  0.97285054  1  0.110355  0  0.104486  0.104573  0  1.019599  0
H  H33  1  0.11822926  0.11683046  0.16680230  1  0.06624  0  0.105847  0.108441  0  0.995656  0
H  H34  1  0.11791439  0.12945599  0.28709099  1  0.072984  0  0.100039  0.10281  0  0.999508  0
H  H35  1  0.81898607  0.83270995  0.72947394  1  0.048644  0  0.09887  0.100286  0  0.999404  0
H  H36  1  0.85991408  0.89914415  0.05198245  1  0.106995  0  0.104402  0.106666  0  1.013554  0
H  H37  1  0.86115501  0.83613941  0.62394434  1  0.045147  0  0.118246  0.10478  0  0.994613  0
H  H38  1  0.82860071  0.82289042  0.84442440  1  0.084712  0  0.105105  0.108106  0  0.994991  0
H  H39  1  0.85699444  0.91350090  0.17177547  1  0.068168  0  0.101012  0.104259  0  0.994403  0
H  H40  1  0.74773394  0.69297092  0.38813037  1  0.069948  0  0.119475  0.105907  0  0.998793  0
H  H41  1  0.88736479  0.15258229  0.51082441  1  0.061378  0  0.116043  0.102369  0  1.011424  0
H  H42  1  0.90085908  0.88691807  0.27871262  1  0.119386  0  0.115637  0.104082  0  1.003986  0
H  H43  1  0.29252312  0.12428234  0.64488898  1  0.081202  0  0.117222  0.103872  0  1.001316  0
H  H44  1  0.06922196  0.86304310  0.27439000  1  0.433713  0  0.302522  0.294485  0  0.948425  0
H  H45  1  0.15923279  0.88101539  0.26364693  1  0.434002  0  0.307125  0.303991  0  0.941124  0
H  H46  1  0.26981836  0.39503466  0.57435813  1  0.413357  0  0.302617  0.296505  0  0.955901  0
H  H47  1  0.26889438  0.30176383  0.55887012  1  0.398895  0  0.30008  0.288941  0  0.954344  0
H  H48  1  0.32580735  0.15481969  0.50383871  1  0.0707  0  0.113472  0.101884  0  1.001951  0
H  H49  1  0.12210938  0.11775497  0.75360487  1  0.065147  0  0.111607  0.093773  0  1.041217  0
H  H50  1  0.17172042  0.88311121  0.50462237  1  0.090761  0  0.119733  0.110487  0  0.992159  0
H  H51  1  0.09179683  0.81443157  0.68832875  1  0.033063  0  0.100136  0.105019  0  1.004596  0
H  H52  1  0.19481919  0.78213244  0.52561466  1  0.039464  0  0.097934  0.099004  0  1.015374  0
C  C53  1  0.04603974  0.09624035  0.38054998  1  0.403648  0  0.012204  -0.036649  0  3.937204  0
C  C54  1  0.27009350  0.09151530  0.46180163  1  0.435614  0  0.001775  -0.049296  0  4.054343  0
C  C55  1  0.15429583  0.11776977  0.71728499  1  0.425107  0  0.008294  -0.044844  0  3.966414  0
C  C56  1  0.79257203  0.93776229  0.41924072  1  0.444851  0  0.007631  -0.046842  0  3.961238  0
C  C57  1  0.12671360  0.88377702  0.52895034  1  0.403277  0  0.00856  -0.046896  0  3.960765  0
C  C58  1  0.23706056  0.13114438  0.72930645  1  -0.014917  0  -0.034631  -0.042816  0  4.07124  0
C  C59  1  0.11094190  0.85718465  0.58058183  1  -9.3e-05  0  -0.034445  -0.037303  0  4.056967  0
C  C60  1  0.26335532  0.02838303  0.39755077  1  0.005362  0  -0.050867  -0.158669  0  4.063799  0
C  C61  1  0.92492103  0.97216081  0.72037480  1  -0.003421  0  -0.037031  -0.043873  0  4.098012  0
C  C62  1  0.11895944  0.78250173  0.65635201  1  -0.028938  0  -0.093127  -0.189838  0  3.93191  0
C  C63  1  0.13942176  0.80474008  0.60397613  1  0.032347  0  -0.011413  0.091744  0  4.079759  0
C  C64  1  0.78477074  0.01148624  0.42727475  1  0.000389  0  -0.036561  -0.024314  0  4.05538  0
C  C65  1  0.17768516  0.76531493  0.56601595  1  -0.062059  0  -0.093261  -0.188426  0  3.944899  0
C  C66  1  0.18777895  0.69870538  0.57341986  1  -0.007904  0  -0.011466  0.080191  0  4.062574  0
C  C67  1  0.15985004  0.67111163  0.62197732  1  0.005233  0  -0.001792  -0.002758  0  3.924903  0
C  C68  1  0.87705898  0.71575911  0.30634000  1  0.458134  0  0.008005  -0.054699  0  3.994209  0
C  C69  1  0.12809763  0.71623290  0.66592089  1  -0.005326  0  -0.011122  0.079095  0  4.056138  0
C  C70  1  0.21897168  0.65230333  0.52938879  1  -0.047038  0  -0.094076  -0.135353  0  4.027313  0
C  C71  1  0.21708117  0.57966331  0.52984075  1  -0.034484  0  -0.096699  -0.14166  0  4.033036  0
C  C72  1  0.18543470  0.54808669  0.57545450  1  -0.004662  0  -0.01308  0.08302  0  4.0683  0
C  C73  1  0.15924045  0.59645941  0.62330865  1  0.001176  0  -0.001618  -0.003359  0  3.924395  0
C  C74  1  0.12835693  0.56645971  0.66972431  1  -0.058515  0  -0.012378  0.080906  0  4.060936  0
C  C75  1  0.79821693  0.65908087  0.30211082  1  0.047583  0  -0.03634  -0.042978  0  4.09631  0
C  C76  1  0.10208513  0.61635951  0.71693527  1  -0.007889  0  -0.095686  -0.139332  0  4.025934  0
C  C77  1  0.10189771  0.68778599  0.71510015  1  -0.078189  0  -0.092785  -0.135481  0  4.022041  0
C  C78  1  0.17646923  0.46977754  0.57233197  1  -0.074183  0  -0.103794  -0.213608  0  3.951159  0
C  C79  1  0.14513313  0.43886070  0.61699172  1  0.013945  0  -0.015695  0.108091  0  4.09723  0
C  C80  1  0.07646945  0.29977003  0.62853816  1  0.440342  0  0.003887  -0.04466  0  4.045509  0
C  C81  1  0.12318210  0.48924247  0.66641475  1  -0.009391  0  -0.097691  -0.198359  0  3.940613  0
C  C82  1  0.40856386  0.10536339  0.40096048  1  -0.019531  0  -0.098314  -0.198967  0  3.939846  0
C  C83  1  0.33243266  0.02732024  0.37672885  1  0.014326  0  -0.015621  0.107637  0  4.096901  0
C  C84  1  0.32746499  0.94686879  0.33852389  1  -0.105775  0  -0.102649  -0.212347  0  3.950569  0
C  C85  1  0.39821231  0.94284754  0.32971547  1  -0.042739  0  -0.012176  0.084485  0  4.066019  0
C  C86  1  0.13259781  0.35504074  0.61016385  1  0.002903  0  -0.05045  -0.156163  0  4.065983  0
C  C87  1  0.47770403  0.02246376  0.36123028  1  0.006032  0  -0.001232  -0.004143  0  3.914567  0
C  C88  1  0.48163823  0.10465818  0.39481511  1  -0.036945  0  -0.010382  0.085402  0  4.051353  0
C  C89  1  0.39534559  0.86109880  0.29541273  1  -0.042905  0  -0.092464  -0.134397  0  4.014667  0
C  C90  1  0.46794367  0.85813070  0.29787424  1  -0.023041  0  -0.093866  -0.117687  0  4.025511  0
C  C91  1  0.54956606  0.93750362  0.33571517  1  0.099118  0  -0.020889  -0.037009  0  4.079993  0
C  C92  1  0.79680748  0.70945785  0.36790818  1  0.411161  0  0.009633  -0.052076  0  3.991195  0
C  C93  1  0.55352348  0.01992162  0.36472360  1  0.021404  0  -0.000318  0.017885  0  3.941671  0
C  C94  1  0.63460082  0.09929118  0.40220702  1  -0.028152  0  -0.015934  0.062203  0  4.068484  0
C  C95  1  0.63554037  0.18087089  0.42874837  1  -0.046295  0  -0.092597  -0.130185  0  4.019951  0
C  C96  1  0.56244974  0.18343565  0.42505139  1  -0.0478  0  -0.09708  -0.144561  0  4.025073  0
C  C97  1  0.24087893  0.12003843  0.66153047  1  0.439057  0  0.010615  -0.04574  0  3.95634  0
C  C98  1  0.62712375  0.93841146  0.35125472  1  0.398909  0  0.098545  0.186159  0  3.983108  0
C  C99  1  0.70817908  0.01453722  0.39559650  1  0.027762  0  -0.018257  -0.019305  0  4.084813  0
C  C100  1  0.70947062  0.09466331  0.41652635  1  0.010963  0  -0.088724  -0.169432  0  3.941504  0
C  C101  1  0.30587170  0.16207945  0.79873714  1  0.022455  0  -0.002896  0.096664  0  4.025739  0
C  C102  1  0.29843951  0.19574362  0.86595135  1  -0.009259  0  -0.093251  -0.125676  0  3.986593  0
C  C103  1  0.36757840  0.23922240  0.93337414  1  -0.056869  0  -0.086742  -0.133745  0  3.96863  0
C  C104  1  0.17157934  0.30814073  0.58174309  1  0.896529  0  0.189123  0.336756  0  4.099825  0
C  C105  1  0.44789711  0.25101921  0.93618296  1  0.338426  0  0.079777  0.162265  0  4.060418  0
C  C106  1  0.45458811  0.21237802  0.86995848  1  -0.029993  0  -0.084464  -0.137586  0  3.983735  0
C  C107  1  0.38461575  0.16805846  0.80248182  1  -0.028548  0  -0.096184  -0.134298  0  3.990934  0
C  C108  1  0.04659362  0.87500566  0.59093812  1  0.390184  0  0.008385  -0.042342  0  3.947053  0
C  C109  1  0.66977415  0.45726662  0.11472108  1  -0.031889  0  -0.08721  -0.13435  0  3.96828  0
C  C110  1  0.73710250  0.53562878  0.17472009  1  -0.064008  0  -0.095188  -0.128713  0  3.997938  0
C  C111  1  0.59326793  0.41207599  0.12006557  1  0.351972  0  0.081155  0.164186  0  4.062049  0
C  C112  1  0.73136625  0.57182838  0.24223459  1  -0.049001  0  -0.007003  0.091019  0  4.042284  0
C  C113  1  0.65657309  0.52335641  0.24818681  1  -0.046175  0  -0.097627  -0.13737  0  3.999627  0
C  C114  1  0.58835990  0.44530347  0.18803366  1  -0.046143  0  -0.08514  -0.137173  0  3.984337  0
C  C115  1  0.98739357  0.02260206  0.23826305  1  0.050518  0  -0.004933  0.094415  0  4.032189  0
C  C116  1  0.86389873  0.08270270  0.48529972  1  0.429316  0  0.010103  -0.040686  0  3.946877  0
C  C117  1  0.91494980  0.95742348  0.17086805  1  -0.111678  0  -0.093736  -0.131676  0  3.987428  0
C  C118  1  0.91587191  0.94901709  0.10393559  1  -0.01978  0  -0.086733  -0.135331  0  3.964458  0
C  C119  1  0.17688665  0.96019120  0.36517030  1  0.89519  0  0.191988  0.339669  0  4.103413  0
C  C120  1  0.98979226  0.00681413  0.10238494  1  0.36488  0  0.078839  0.161192  0  4.068594  0
C  C121  1  0.06166192  0.07280214  0.16916691  1  -0.008007  0  -0.08472  -0.138214  0  3.988908  0
C  C122  1  0.06062967  0.08017486  0.23587145  1  -0.108152  0  -0.096874  -0.135263  0  3.996157  0
C  C123  1  0.00250324  0.02622053  0.91913067  1  -0.061579  0  -0.085929  -0.13132  0  3.967275  0
C  C124  1  0.99726341  0.03158711  0.85546139  1  0.022835  0  -0.094091  -0.127875  0  3.995751  0
C  C125  1  0.94056919  0.95098732  0.91545326  1  0.317681  0  0.079743  0.164744  0  4.053989  0
C  C126  1  0.93061873  0.96285730  0.78595612  1  -0.021057  0  -0.00598  0.092475  0  4.040602  0
C  C127  1  0.87110808  0.88658963  0.78255587  1  -0.040835  0  -0.097129  -0.137146  0  3.997581  0
C  C128  1  0.94871795  0.95492640  0.31905994  1  0.336741  0  0.001545  -0.064345  0  3.984637  0
C  C129  1  0.87588638  0.88076010  0.84636365  1  -0.027021  0  -0.08501  -0.138667  0  3.981306  0
C  C130  1  0.95538156  0.05007821  0.71611961  1  0.46601  0  0.006078  -0.057711  0  4.003914  0
C  C131  1  0.99049069  0.02614636  0.30823214  1  0.042073  0  -0.034937  -0.040629  0  4.079411  0
C  C132  1  0.89095915  0.90676210  0.64690759  1  0.418916  0  0.006684  -0.056126  0  4.002269  0
N  N133  1  0.03884868  0.06759168  0.42956788  1  -0.774942  0  -0.277541  -0.179491  0  3.566595  0
N  N134  1  0.51706032  0.34086310  0.05947913  1  -0.498509  0  -0.164669  -0.15538  0  3.305247  0
N  N135  1  0.99715789  0.00735263  0.03860453  1  -0.518705  0  -0.160916  -0.149126  0  3.324054  0
N  N136  1  0.86880240  0.96402231  0.46956759  1  -0.792583  0  -0.281919  -0.174074  0  3.662553  0
N  N137  1  0.93576548  0.94304778  0.97776271  1  -0.4848  0  -0.164445  -0.159562  0  3.293182  0
N  N138  1  0.91844065  0.79277811  0.36915623  1  -0.843691  0  -0.271183  -0.17178  0  3.554339  0
N  N139  1  0.08083446  0.22679097  0.61249421  1  -0.81615  0  -0.281026  -0.187424  0  3.572461  0
N  N140  1  0.86841432  0.78876969  0.40750412  1  -0.755541  0  -0.268515  -0.164821  0  3.54224  0
N  N141  1  0.14038928  0.23194267  0.58300206  1  -0.818994  0  -0.287964  -0.290526  0  3.469438  0
N  N142  1  0.91276249  0.05287260  0.51012904  1  -0.777166  0  -0.279896  -0.178169  0  3.629866  0
N  N143  1  0.97947201  0.98001286  0.39174039  1  -0.770936  0  -0.290289  -0.199655  0  3.575379  0
N  N144  1  0.02489735  0.90734219  0.54745770  1  -0.755739  0  -0.280422  -0.182227  0  3.616059  0
N  N145  1  0.16698991  0.10326340  0.61456495  1  -0.779578  0  -0.277295  -0.171853  0  3.630583  0
N  N146  1  0.13159061  0.88090100  0.29948840  1  -1.221096  0  -0.602229  -0.645233  0  3.268543  0
N  N147  1  0.23211978  0.32933402  0.55327649  1  -1.165058  0  -0.600136  -0.641256  0  3.28328  0
N  N148  1  0.13801768  0.98051103  0.40861269  1  -0.820384  0  -0.288433  -0.284311  0  3.493549  0
N  N149  1  0.94134353  0.03250183  0.64621812  1  -0.786557  0  -0.267363  -0.180322  0  3.501981  0
N  N150  1  0.90156081  0.94294274  0.60317094  1  -0.797272  0  -0.273935  -0.176471  0  3.543459  0
N  N151  1  0.19587568  0.06334963  0.46867346  1  -0.812434  0  -0.284566  -0.199024  0  3.574861  0
N  N152  1  0.11378516  0.10168960  0.64878862  1  -0.802245  0  -0.279522  -0.178806  0  3.627015  0
N  N153  1  0.07446034  0.91294762  0.50963817  1  -0.805096  0  -0.288903  -0.189193  0  3.662321  0
N  N154  1  0.52506107  0.30796520  0.00014984  1  -0.496363  0  -0.16373  -0.155238  0  3.309583  0
F  F155  1  0.62178040  0.85840761  0.32565887  1  -0.632228  0  -0.099227  -0.142194  0  1.361984  0
