# generated using pymatgen
data_KPH3C2N3O4
_symmetry_space_group_name_H-M   'P 1'
_cell_length_a   5.37052304
_cell_length_b   7.62282743
_cell_length_c   16.64389440
_cell_angle_alpha   89.99986833
_cell_angle_beta   89.99946253
_cell_angle_gamma   99.93230052
_symmetry_Int_Tables_number   1
_chemical_formula_structural   KPH3C2N3O4
_chemical_formula_sum   'K4 P4 H12 C8 N12 O16'
_cell_volume   671.16492596
_cell_formula_units_Z   4
loop_
 _symmetry_equiv_pos_site_id
 _symmetry_equiv_pos_as_xyz
  1  'x, y, z'
loop_
 _atom_site_type_symbol
 _atom_site_label
 _atom_site_symmetry_multiplicity
 _atom_site_fract_x
 _atom_site_fract_y
 _atom_site_fract_z
 _atom_site_occupancy
 _atom_site_hle17_bader_spin_density
 _atom_site_hle17_ddec_charge
 _atom_site_hle17_ddec_spin_density
 _atom_site_hle17_ddec_sum_bond_order
 _atom_site_hle17_magmom
 _atom_site_hse06_10hf_bader_spin_density
 _atom_site_hse06_10hf_ddec_charge
 _atom_site_hse06_10hf_ddec_spin_density
 _atom_site_hse06_10hf_ddec_sum_bond_order
 _atom_site_hse06_10hf_magmom
 _atom_site_hse06_bader_spin_density
 _atom_site_hse06_ddec_charge
 _atom_site_hse06_ddec_spin_density
 _atom_site_hse06_ddec_sum_bond_order
 _atom_site_hse06_magmom
 _atom_site_pbe_bader_spin_density
 _atom_site_pbe_cm5_charge
 _atom_site_pbe_ddec_charge
 _atom_site_pbe_ddec_spin_density
 _atom_site_pbe_ddec_sum_bond_order
 _atom_site_pbe_magmom
K  K0  1  0.45651078  0.13003810  0.31814083  1  0  0.936629  0  0.427226  0  0  0.896149  0  0.589439  0  0  0.908993  0  0.568691  0  0  0.79595  0.886052  0  0.604749  0
K  K1  1  0.54345743  0.36997147  0.81814295  1  0  0.93663  0  0.427236  0  0  0.896166  0  0.589436  0  0  0.909016  0  0.568676  0  0  0.795955  0.886055  0  0.604751  0
K  K2  1  0.54347810  0.86996848  0.68186086  1  0  0.936635  0  0.42721  0  0  0.896159  0  0.589425  0  0  0.909014  0  0.568662  0  0  0.79594  0.886056  0  0.60473  0
K  K3  1  0.45650713  0.63004109  0.18186353  1  0  0.936661  0  0.4272  0  0  0.896199  0  0.589381  0  0  0.909026  0  0.568647  0  0  0.79596  0.886083  0  0.604703  0
P  P4  1  0.96012865  0.73425261  0.33538815  1  0  1.591538  0  4.853842  0  0  1.420793  0  5.370814  0  0  1.475382  0  5.327907  0  0  0.45202  1.382898  0  5.399624  0
P  P5  1  0.03987743  0.76574327  0.83538637  1  0  1.591588  0  4.853765  0  0  1.420801  0  5.370771  0  0  1.475393  0  5.327868  0  0  0.452044  1.382906  0  5.399587  0
P  P6  1  0.03987940  0.26574947  0.66461473  1  0  1.591519  0  4.853814  0  0  1.420755  0  5.370791  0  0  1.475346  0  5.327888  0  0  0.452029  1.382854  0  5.399603  0
P  P7  1  0.96012828  0.23425083  0.16461351  1  0  1.591629  0  4.853608  0  0  1.420885  0  5.370573  0  0  1.475474  0  5.327668  0  0  0.452084  1.382988  0  5.399386  0
H  H8  1  0.05815578  0.44865168  0.31004221  1  0  0.362741  0  0.906882  0  0  0.340699  0  0.972374  0  0  0.351017  0  0.962716  0  0  0.316923  0.333463  0  0.979124  0
H  H9  1  0.94187639  0.05134942  0.81003863  1  0  0.362745  0  0.906896  0  0  0.340691  0  0.972394  0  0  0.351014  0  0.962738  0  0  0.316915  0.333438  0  0.979166  0
H  H10  1  0.94185928  0.55134888  0.68996127  1  0  0.362749  0  0.906841  0  0  0.340696  0  0.972357  0  0  0.35102  0  0.962692  0  0  0.316919  0.333456  0  0.979109  0
H  H11  1  0.05814792  0.94865091  0.18995704  1  0  0.362792  0  0.906829  0  0  0.340761  0  0.972293  0  0  0.35108  0  0.962635  0  0  0.316948  0.333523  0  0.979046  0
H  H12  1  0.42393464  0.62773675  0.51598389  1  0  0.337534  0  0.917717  0  0  0.311821  0  0.987963  0  0  0.322347  0  0.978697  0  0  0.31444  0.304449  0  0.994465  0
H  H13  1  0.57606919  0.87227188  0.01598101  1  0  0.337505  0  0.9177  0  0  0.311743  0  0.988014  0  0  0.322276  0  0.978742  0  0  0.314432  0.304373  0  0.994517  0
H  H14  1  0.57605862  0.37226570  0.48401839  1  0  0.337504  0  0.917686  0  0  0.311797  0  0.987923  0  0  0.32231  0  0.978684  0  0  0.314439  0.304431  0  0.994426  0
H  H15  1  0.42392826  0.12773851  0.98401347  1  0  0.337573  0  0.917628  0  0  0.311812  0  0.987943  0  0  0.322346  0  0.978661  0  0  0.314451  0.304432  0  0.994446  0
H  H16  1  0.92535439  0.94165491  0.43871060  1  0  0.352462  0  0.921301  0  0  0.331032  0  0.9846  0  0  0.341263  0  0.975494  0  0  0.314612  0.323832  0  0.991039  0
H  H17  1  0.07464499  0.55834177  0.93870847  1  0  0.352398  0  0.921442  0  0  0.330977  0  0.984722  0  0  0.341208  0  0.975617  0  0  0.314642  0.323776  0  0.991154  0
H  H18  1  0.07464549  0.05834470  0.56128928  1  0  0.352437  0  0.921407  0  0  0.331009  0  0.984689  0  0  0.341239  0  0.975585  0  0  0.31462  0.323808  0  0.991124  0
H  H19  1  0.92534417  0.44165945  0.06129021  1  0  0.352489  0  0.921227  0  0  0.331055  0  0.984528  0  0  0.341287  0  0.975425  0  0  0.31465  0.323855  0  0.990964  0
C  C20  1  0.18110123  0.79689893  0.48400241  1  0  0.82214  0  3.836767  0  0  0.748646  0  4.144241  0  0  0.785975  0  4.136043  0  0  0.356029  0.723368  0  4.149106  0
C  C21  1  0.81891065  0.70311572  0.98400063  1  0  0.821951  0  3.83679  0  0  0.748388  0  4.144366  0  0  0.785719  0  4.136177  0  0  0.355967  0.72312  0  4.149227  0
C  C22  1  0.81890703  0.20311655  0.51600047  1  0  0.822223  0  3.836434  0  0  0.748618  0  4.144044  0  0  0.785946  0  4.135852  0  0  0.356046  0.723355  0  4.148907  0
C  C23  1  0.18109644  0.29689577  0.01599865  1  0  0.822047  0  3.836857  0  0  0.748571  0  4.144313  0  0  0.785881  0  4.13614  0  0  0.355989  0.723282  0  4.149184  0
C  C24  1  0.23290545  0.51791589  0.41503911  1  0  0.831252  0  3.813818  0  0  0.756644  0  4.122656  0  0  0.793761  0  4.115009  0  0  0.354385  0.731456  0  4.127287  0
C  C25  1  0.76709938  0.98208020  0.91503166  1  0  0.83115  0  3.813772  0  0  0.756429  0  4.122788  0  0  0.793562  0  4.115126  0  0  0.354324  0.731223  0  4.127443  0
C  C26  1  0.76710609  0.48207270  0.58496497  1  0  0.831386  0  3.813715  0  0  0.756685  0  4.122689  0  0  0.793819  0  4.115015  0  0  0.35438  0.731463  0  4.127374  0
C  C27  1  0.23291120  0.01791779  0.08495920  1  0  0.831186  0  3.814007  0  0  0.756551  0  4.122898  0  0  0.793661  0  4.115266  0  0  0.354321  0.731351  0  4.127528  0
N  N28  1  0.28571557  0.64590378  0.47413706  1  0  -0.593127  0  3.229052  0  0  -0.528186  0  3.47726  0  0  -0.554994  0  3.475786  0  0  -0.395087  -0.510037  0  3.477981  0
N  N29  1  0.71428935  0.85409611  0.97413742  1  0  -0.592952  0  3.228892  0  0  -0.527928  0  3.477165  0  0  -0.554748  0  3.475686  0  0  -0.395013  -0.509795  0  3.477909  0
N  N30  1  0.71428167  0.35409321  0.52586282  1  0  -0.593079  0  3.229082  0  0  -0.52808  0  3.477318  0  0  -0.554884  0  3.47586  0  0  -0.395061  -0.509953  0  3.478082  0
N  N31  1  0.28571763  0.14590868  0.02586185  1  0  -0.593103  0  3.229038  0  0  -0.528142  0  3.477301  0  0  -0.554945  0  3.475827  0  0  -0.395105  -0.509959  0  3.477994  0
N  N32  1  0.06325960  0.54063564  0.35715418  1  0  -0.763996  0  3.114039  0  0  -0.687759  0  3.368227  0  0  -0.714955  0  3.360853  0  0  -0.429877  -0.669221  0  3.373095  0
N  N33  1  0.93675421  0.95936180  0.85715162  1  0  -0.763931  0  3.114136  0  0  -0.687642  0  3.368346  0  0  -0.714848  0  3.360969  0  0  -0.429788  -0.669087  0  3.373252  0
N  N34  1  0.93674280  0.45935987  0.64284630  1  0  -0.763928  0  3.114174  0  0  -0.687652  0  3.368369  0  0  -0.714853  0  3.360992  0  0  -0.429801  -0.669101  0  3.373254  0
N  N35  1  0.06325744  0.04063349  0.14284285  1  0  -0.763941  0  3.113984  0  0  -0.687716  0  3.36821  0  0  -0.714908  0  3.360841  0  0  -0.429828  -0.669174  0  3.373076  0
N  N36  1  0.02530283  0.83819047  0.42542941  1  0  -0.780335  0  3.157766  0  0  -0.70305  0  3.413205  0  0  -0.73002  0  3.40497  0  0  -0.440986  -0.684579  0  3.418499  0
N  N37  1  0.97469283  0.66180336  0.92542977  1  0  -0.780175  0  3.157867  0  0  -0.702842  0  3.413296  0  0  -0.729819  0  3.405076  0  0  -0.440991  -0.684374  0  3.41859  0
N  N38  1  0.97470142  0.16180500  0.57457227  1  0  -0.780389  0  3.157585  0  0  -0.703038  0  3.413031  0  0  -0.730012  0  3.404807  0  0  -0.441054  -0.684563  0  3.418318  0
N  N39  1  0.02529214  0.33818991  0.07457011  1  0  -0.780436  0  3.157632  0  0  -0.703114  0  3.41303  0  0  -0.730081  0  3.404807  0  0  -0.441081  -0.684648  0  3.418335  0
O  O40  1  0.68195462  0.70652923  0.32021884  1  0  -0.880799  0  1.845443  0  0  -0.822926  0  2.097164  0  0  -0.847066  0  2.077486  0  0  -0.459167  -0.805649  0  2.110122  0
O  O41  1  0.31805098  0.79344358  0.82021062  1  0  -0.880863  0  1.8455  0  0  -0.822975  0  2.097245  0  0  -0.847122  0  2.077563  0  0  -0.459261  -0.805703  0  2.110204  0
O  O42  1  0.31805771  0.29346202  0.67978344  1  0  -0.880809  0  1.845547  0  0  -0.822929  0  2.097268  0  0  -0.847075  0  2.077589  0  0  -0.459201  -0.805657  0  2.110226  0
O  O43  1  0.68195217  0.20652912  0.17978626  1  0  -0.88079  0  1.845464  0  0  -0.822919  0  2.097193  0  0  -0.847064  0  2.077511  0  0  -0.459157  -0.805646  0  2.110153  0
O  O44  1  0.13078542  0.83058092  0.27091135  1  0  -0.927259  0  1.93504  0  0  -0.860904  0  2.191571  0  0  -0.886545  0  2.171174  0  0  -0.465933  -0.842442  0  2.204966  0
O  O45  1  0.86920495  0.66941010  0.77091919  1  0  -0.927298  0  1.935007  0  0  -0.860927  0  2.191539  0  0  -0.886574  0  2.171145  0  0  -0.465909  -0.842465  0  2.204931  0
O  O46  1  0.86920111  0.16941768  0.72908372  1  0  -0.927257  0  1.934941  0  0  -0.860894  0  2.191463  0  0  -0.886542  0  2.171071  0  0  -0.465909  -0.842428  0  2.204853  0
O  O47  1  0.13078372  0.33058308  0.22908609  1  0  -0.927306  0  1.935005  0  0  -0.860955  0  2.191544  0  0  -0.886593  0  2.171146  0  0  -0.465971  -0.842493  0  2.204939  0
O  O48  1  0.23206622  0.88880961  0.54642838  1  0  -0.643317  0  1.898958  0  0  -0.601058  0  2.127465  0  0  -0.622108  0  2.115743  0  0  -0.346582  -0.586397  0  2.13509  0
O  O49  1  0.76792347  0.61119996  0.04643212  1  0  -0.643348  0  1.898734  0  0  -0.601072  0  2.12728  0  0  -0.622119  0  2.115557  0  0  -0.346631  -0.586392  0  2.134863  0
O  O50  1  0.76792900  0.11119950  0.45356970  1  0  -0.643437  0  1.898555  0  0  -0.60113  0  2.127105  0  0  -0.62218  0  2.115384  0  0  -0.346645  -0.586464  0  2.13471  0
O  O51  1  0.23206132  0.38880539  0.95357076  1  0  -0.643263  0  1.899002  0  0  -0.601042  0  2.127527  0  0  -0.622085  0  2.115811  0  0  -0.346556  -0.586381  0  2.135159  0
O  O52  1  0.33570655  0.38243723  0.41792377  1  0  -0.645475  0  1.922708  0  0  -0.601935  0  2.158983  0  0  -0.623073  0  2.147472  0  0  -0.366731  -0.587211  0  2.166535  0
O  O53  1  0.66427323  0.11755384  0.91791006  1  0  -0.645453  0  1.922704  0  0  -0.601841  0  2.158992  0  0  -0.622993  0  2.147467  0  0  -0.366705  -0.58711  0  2.166554  0
O  O54  1  0.66428728  0.61755448  0.58207972  1  0  -0.645548  0  1.922464  0  0  -0.601987  0  2.158795  0  0  -0.623139  0  2.14727  0  0  -0.366691  -0.587248  0  2.166362  0
O  O55  1  0.33571253  0.88244210  0.08207479  1  0  -0.645479  0  1.92277  0  0  -0.60189  0  2.15902  0  0  -0.623026  0  2.147506  0  0  -0.366693  -0.587168  0  2.166578  0
