# generated using pymatgen
data_CaH32(C19O4)2
_symmetry_space_group_name_H-M   'P 1'
_cell_length_a   5.21237221
_cell_length_b   10.63110161
_cell_length_c   15.06874766
_cell_angle_alpha   83.23040758
_cell_angle_beta   83.70941425
_cell_angle_gamma   81.36507285
_symmetry_Int_Tables_number   1
_chemical_formula_structural   CaH32(C19O4)2
_chemical_formula_sum   'Ca1 H32 C38 O8'
_cell_volume   816.19076662
_cell_formula_units_Z   1
loop_
 _symmetry_equiv_pos_site_id
 _symmetry_equiv_pos_as_xyz
  1  'x, y, z'
loop_
 _atom_site_type_symbol
 _atom_site_label
 _atom_site_symmetry_multiplicity
 _atom_site_fract_x
 _atom_site_fract_y
 _atom_site_fract_z
 _atom_site_occupancy
 _atom_site_hle17_bader_spin_density
 _atom_site_hle17_ddec_charge
 _atom_site_hle17_ddec_spin_density
 _atom_site_hle17_ddec_sum_bond_order
 _atom_site_hle17_magmom
 _atom_site_hse06_10hf_bader_spin_density
 _atom_site_hse06_10hf_ddec_charge
 _atom_site_hse06_10hf_ddec_spin_density
 _atom_site_hse06_10hf_ddec_sum_bond_order
 _atom_site_hse06_10hf_magmom
 _atom_site_hse06_bader_spin_density
 _atom_site_hse06_ddec_charge
 _atom_site_hse06_ddec_spin_density
 _atom_site_hse06_ddec_sum_bond_order
 _atom_site_hse06_magmom
 _atom_site_pbe_bader_spin_density
 _atom_site_pbe_cm5_charge
 _atom_site_pbe_ddec_charge
 _atom_site_pbe_ddec_spin_density
 _atom_site_pbe_ddec_sum_bond_order
 _atom_site_pbe_magmom
Ca  Ca0  1  0.99999110  0.00000342  0.99999973  1  0  1.560707  0  1.142526  0  0  1.427347  0  1.512326  0  0  1.470615  0  1.464666  0  0  0.918192  1.39503  0  1.545799  0
H  H1  1  0.96610684  0.73577832  0.47870789  1  0  0.099455  0  0.950061  0  0  0.112275  0  1.01045  0  0  0.115014  0  1.009424  0  0  0.105025  0.110288  0  1.011266  0
H  H2  1  0.03385506  0.26421871  0.52128055  1  0  0.099569  0  0.9499  0  0  0.112267  0  1.010404  0  0  0.115003  0  1.009385  0  0  0.105032  0.110279  0  1.011221  0
H  H3  1  0.54658038  0.25407759  0.59354527  1  0  0.091864  0  0.958642  0  0  0.103966  0  1.019289  0  0  0.106473  0  1.019118  0  0  0.097981  0.10214  0  1.01957  0
H  H4  1  0.45342693  0.74593558  0.40644520  1  0  0.091806  0  0.958722  0  0  0.103901  0  1.019406  0  0  0.106404  0  1.019238  0  0  0.097922  0.102075  0  1.019689  0
H  H5  1  0.70500399  0.14174989  0.73682791  1  0  0.1001  0  0.940628  0  0  0.112142  0  0.997432  0  0  0.115583  0  0.995223  0  0  0.107524  0.109708  0  0.999013  0
H  H6  1  0.29499314  0.85827678  0.26317032  1  0  0.100107  0  0.940506  0  0  0.112026  0  0.997437  0  0  0.115466  0  0.995228  0  0  0.107461  0.109594  0  0.999013  0
H  H7  1  0.02052920  0.31837993  0.88455212  1  0  0.09861  0  0.964269  0  0  0.10501  0  1.031991  0  0  0.108287  0  1.029679  0  0  0.110742  0.102537  0  1.033819  0
H  H8  1  0.97946434  0.68163424  0.11543864  1  0  0.098502  0  0.964361  0  0  0.104909  0  1.032075  0  0  0.108189  0  1.029754  0  0  0.110691  0.102436  0  1.033905  0
H  H9  1  0.87121831  0.43773128  0.74362783  1  0  0.091939  0  0.965537  0  0  0.104534  0  1.025379  0  0  0.106857  0  1.025288  0  0  0.100991  0.102863  0  1.02552  0
H  H10  1  0.12875746  0.56227052  0.25636314  1  0  0.091964  0  0.965649  0  0  0.104597  0  1.025434  0  0  0.106922  0  1.025339  0  0  0.100992  0.102927  0  1.025571  0
H  H11  1  0.53970715  0.51073849  0.64732508  1  0  0.093414  0  0.974024  0  0  0.102194  0  1.038949  0  0  0.104302  0  1.039897  0  0  0.099567  0.100653  0  1.038416  0
H  H12  1  0.46025390  0.48926627  0.35267069  1  0  0.093516  0  0.973784  0  0  0.10228  0  1.038745  0  0  0.10439  0  1.039691  0  0  0.099611  0.100735  0  1.038211  0
H  H13  1  0.66489615  0.62221273  0.76882964  1  0  0.100096  0  0.957803  0  0  0.109681  0  1.019859  0  0  0.112697  0  1.017934  0  0  0.107698  0.107498  0  1.021204  0
H  H14  1  0.33506048  0.37777869  0.23117070  1  0  0.100059  0  0.957863  0  0  0.109702  0  1.019809  0  0  0.112763  0  1.017824  0  0  0.107692  0.107459  0  1.021234  0
H  H15  1  0.97758365  0.89805122  0.74752830  1  0  0.103687  0  0.941117  0  0  0.112644  0  1.001699  0  0  0.116415  0  0.998556  0  0  0.111912  0.10989  0  1.004018  0
H  H16  1  0.02238421  0.10194670  0.25245525  1  0  0.103794  0  0.94103  0  0  0.112713  0  1.001627  0  0  0.116487  0  0.998478  0  0  0.111938  0.109957  0  1.00395  0
H  H17  1  0.84803593  0.78674399  0.62645596  1  0  0.091687  0  0.962976  0  0  0.104563  0  1.021262  0  0  0.10666  0  1.021947  0  0  0.101643  0.103012  0  1.020955  0
H  H18  1  0.15195230  0.21325581  0.37353086  1  0  0.091548  0  0.96266  0  0  0.104403  0  1.020996  0  0  0.106495  0  1.021685  0  0  0.101584  0.102846  0  1.020683  0
H  H19  1  0.62728887  0.81906802  0.93619490  1  0  0.407925  0  0.882654  0  0  0.37436  0  0.96456  0  0  0.388112  0  0.949318  0  0  0.312286  0.364646  0  0.974875  0
H  H20  1  0.37267343  0.18094144  0.06379379  1  0  0.408009  0  0.882705  0  0  0.374387  0  0.964671  0  0  0.388163  0  0.949284  0  0  0.312224  0.364671  0  0.974987  0
H  H21  1  0.41360122  0.87137738  0.54284668  1  0  0.080568  0  0.975269  0  0  0.099343  0  1.042972  0  0  0.099822  0  1.044916  0  0  0.07648  0.098944  0  1.041687  0
H  H22  1  0.58636275  0.12862633  0.45714113  1  0  0.080455  0  0.975274  0  0  0.099256  0  1.04296  0  0  0.099737  0  1.044906  0  0  0.076472  0.098859  0  1.041676  0
H  H23  1  0.20702986  0.00003506  0.49100863  1  0  0.077395  0  0.971602  0  0  0.09969  0  1.03347  0  0  0.100716  0  1.033621  0  0  0.078329  0.099  0  1.033273  0
H  H24  1  0.79293764  0.99996290  0.50897891  1  0  0.077322  0  0.971739  0  0  0.099642  0  1.03358  0  0  0.100667  0  1.033735  0  0  0.078325  0.098954  0  1.03338  0
H  H25  1  0.33970488  0.01745177  0.59171166  1  0  0.08569  0  0.960342  0  0  0.10588  0  1.022631  0  0  0.106566  0  1.024092  0  0  0.079597  0.105404  0  1.021579  0
H  H26  1  0.66025592  0.98255002  0.40827441  1  0  0.085726  0  0.960401  0  0  0.105881  0  1.022716  0  0  0.106569  0  1.024178  0  0  0.079618  0.105406  0  1.021664  0
H  H27  1  0.77642137  0.53636501  0.97067837  1  0  0.087821  0  0.958153  0  0  0.110686  0  1.017424  0  0  0.111962  0  1.017616  0  0  0.083093  0.109694  0  1.017347  0
H  H28  1  0.22378148  0.46361867  0.02939155  1  0  0.08772  0  0.958799  0  0  0.110598  0  1.018044  0  0  0.111882  0  1.018239  0  0  0.082986  0.109625  0  1.017946  0
H  H29  1  0.69986340  0.37763251  0.99139484  1  0  0.07996  0  0.965838  0  0  0.102494  0  1.026344  0  0  0.103524  0  1.026645  0  0  0.081337  0.101685  0  1.026203  0
H  H30  1  0.30032185  0.62233506  0.00868491  1  0  0.080291  0  0.965723  0  0  0.102635  0  1.026477  0  0  0.103663  0  1.026786  0  0  0.081468  0.101823  0  1.02634  0
H  H31  1  0.66893855  0.47481024  0.08058249  1  0  0.079603  0  0.964657  0  0  0.100384  0  1.029056  0  0  0.100774  0  1.031005  0  0  0.077286  0.100112  0  1.027621  0
H  H32  1  0.33128405  0.52516106  0.91949858  1  0  0.079503  0  0.964034  0  0  0.100361  0  1.028408  0  0  0.100752  0  1.030351  0  0  0.077367  0.100091  0  1.026974  0
C  C33  1  0.97703122  0.63184125  0.48918828  1  0  -0.147906  0  3.730255  0  0  -0.176745  0  3.985811  0  0  -0.179155  0  4.005321  0  0  -0.086675  -0.174888  0  3.972498  0
C  C34  1  0.02294905  0.36815098  0.51080338  1  0  -0.148026  0  3.729968  0  0  -0.176712  0  3.985532  0  0  -0.179129  0  4.005032  0  0  -0.086551  -0.174854  0  3.97222  0
C  C35  1  0.08837227  0.56585086  0.56500298  1  0  0.016607  0  3.749636  0  0  0.024361  0  3.988687  0  0  0.023938  0  4.011161  0  0  -0.0044  0.024589  0  3.973375  0
C  C36  1  0.91161173  0.43414229  0.43498717  1  0  0.016714  0  3.749502  0  0  0.024489  0  3.988593  0  0  0.024074  0  4.011071  0  0  -0.004431  0.024715  0  3.973282  0
C  C37  1  0.10893511  0.43048260  0.57622041  1  0  0.021724  0  3.743792  0  0  0.030328  0  3.98234  0  0  0.03023  0  4.004606  0  0  -0.002921  0.030333  0  3.967187  0
C  C38  1  0.89103045  0.56951537  0.42376719  1  0  0.021402  0  3.74395  0  0  0.030075  0  3.98233  0  0  0.029955  0  4.004627  0  0  -0.002814  0.030079  0  3.967184  0
C  C39  1  0.19919651  0.35448715  0.65906078  1  0  0.058381  0  3.796142  0  0  0.073626  0  4.028231  0  0  0.074949  0  4.05183  0  0  -0.005356  0.072797  0  4.012067  0
C  C40  1  0.80078322  0.64551555  0.34092602  1  0  0.058382  0  3.796514  0  0  0.073778  0  4.028344  0  0  0.075108  0  4.051953  0  0  -0.005242  0.07295  0  4.012174  0
C  C41  1  0.43046390  0.26745925  0.65738260  1  0  -0.131653  0  3.75023  0  0  -0.148187  0  3.997525  0  0  -0.152617  0  4.018791  0  0  -0.093786  -0.145391  0  3.983293  0
C  C42  1  0.56951581  0.73254829  0.34261109  1  0  -0.131584  0  3.750195  0  0  -0.148188  0  3.997411  0  0  -0.152615  0  4.018676  0  0  -0.093822  -0.145392  0  3.983178  0
C  C43  1  0.51913507  0.20447602  0.73709520  1  0  -0.057773  0  3.741724  0  0  -0.081953  0  3.988742  0  0  -0.081123  0  4.009066  0  0  -0.080245  -0.08243  0  3.975065  0
C  C44  1  0.48084485  0.79553728  0.26289999  1  0  -0.057724  0  3.741052  0  0  -0.081775  0  3.988008  0  0  -0.080945  0  4.008328  0  0  -0.080091  -0.082251  0  3.97433  0
C  C45  1  0.37223419  0.22339421  0.81934962  1  0  -0.079513  0  3.75409  0  0  -0.056882  0  3.987702  0  0  -0.065817  0  4.010928  0  0  -0.013991  -0.050933  0  3.971577  0
C  C46  1  0.62775596  0.77661322  0.18063516  1  0  -0.079394  0  3.753909  0  0  -0.056726  0  3.987458  0  0  -0.06567  0  4.010683  0  0  -0.013953  -0.050774  0  3.971334  0
C  C47  1  0.13570308  0.30563447  0.82072708  1  0  -0.041813  0  3.728918  0  0  -0.067614  0  3.980174  0  0  -0.065568  0  3.998723  0  0  -0.071203  -0.068763  0  3.967439  0
C  C48  1  0.86428948  0.69437682  0.17926196  1  0  -0.041822  0  3.729047  0  0  -0.067628  0  3.980319  0  0  -0.065582  0  3.998875  0  0  -0.071198  -0.068784  0  3.967592  0
C  C49  1  0.05238776  0.37168156  0.74160467  1  0  -0.113896  0  3.735232  0  0  -0.132769  0  3.983884  0  0  -0.137448  0  4.005764  0  0  -0.088336  -0.129419  0  3.968749  0
C  C50  1  0.94760300  0.62832208  0.25838506  1  0  -0.113842  0  3.735504  0  0  -0.1328  0  3.984112  0  0  -0.137481  0  4.005993  0  0  -0.088356  -0.129448  0  3.968975  0
C  C51  1  0.46933806  0.16113965  0.90588538  1  0  0.696484  0  3.873028  0  0  0.642226  0  4.173274  0  0  0.677801  0  4.162807  0  0  0.238603  0.618089  0  4.179139  0
C  C52  1  0.53064968  0.83886783  0.09410478  1  0  0.696305  0  3.873226  0  0  0.642021  0  4.173503  0  0  0.677618  0  4.163  0  0  0.238573  0.617873  0  4.179382  0
C  C53  1  0.17983754  0.63817161  0.63055463  1  0  0.066013  0  3.772189  0  0  0.078941  0  4.005797  0  0  0.080973  0  4.028632  0  0  -0.000844  0.077712  0  3.990219  0
C  C54  1  0.82014312  0.36181871  0.36943851  1  0  0.066186  0  3.771849  0  0  0.078807  0  4.005833  0  0  0.080837  0  4.028664  0  0  -0.000804  0.077586  0  3.990249  0
C  C55  1  0.41471834  0.59486652  0.66962820  1  0  -0.118914  0  3.737639  0  0  -0.138446  0  3.98991  0  0  -0.143103  0  4.011948  0  0  -0.089921  -0.135413  0  3.974862  0
C  C56  1  0.58527546  0.40513906  0.33036461  1  0  -0.119038  0  3.736794  0  0  -0.138533  0  3.989187  0  0  -0.143194  0  4.011234  0  0  -0.089953  -0.135494  0  3.97412  0
C  C57  1  0.48654229  0.65726920  0.73701714  1  0  -0.059146  0  3.747899  0  0  -0.08571  0  4.002472  0  0  -0.083849  0  4.021828  0  0  -0.079666  -0.086546  0  3.989081  0
C  C58  1  0.51343277  0.34272783  0.26297492  1  0  -0.059078  0  3.747347  0  0  -0.085626  0  4.001737  0  0  -0.083798  0  4.021076  0  0  -0.079633  -0.086419  0  3.988378  0
C  C59  1  0.32652280  0.76563219  0.76623361  1  0  -0.089191  0  3.774322  0  0  -0.067578  0  4.008463  0  0  -0.077658  0  4.032164  0  0  -0.017757  -0.061257  0  3.992879  0
C  C60  1  0.67343762  0.23436294  0.23375569  1  0  -0.08951  0  3.775209  0  0  -0.067786  0  4.009166  0  0  -0.07787  0  4.032874  0  0  -0.017853  -0.061466  0  3.993573  0
C  C61  1  0.09978365  0.81368794  0.72429017  1  0  -0.041719  0  3.728461  0  0  -0.067983  0  3.979611  0  0  -0.06564  0  3.997932  0  0  -0.072748  -0.069536  0  3.967428  0
C  C62  1  0.90017516  0.18630623  0.27569859  1  0  -0.04214  0  3.729078  0  0  -0.068398  0  3.980092  0  0  -0.066057  0  3.998408  0  0  -0.072982  -0.069948  0  3.967913  0
C  C63  1  0.02880944  0.75116182  0.65677419  1  0  -0.118916  0  3.740997  0  0  -0.135525  0  3.988935  0  0  -0.140409  0  4.010465  0  0  -0.085819  -0.132388  0  3.974458  0
C  C64  1  0.97115506  0.24882471  0.34321773  1  0  -0.11849  0  3.74048  0  0  -0.134958  0  3.988409  0  0  -0.139838  0  4.009946  0  0  -0.085595  -0.131814  0  3.973919  0
C  C65  1  0.38299498  0.82634271  0.84409701  1  0  0.682273  0  3.81856  0  0  0.632017  0  4.111129  0  0  0.667274  0  4.101233  0  0  0.252448  0.608202  0  4.117401  0
C  C66  1  0.61693719  0.17366791  0.15590238  1  0  0.682705  0  3.81875  0  0  0.632327  0  4.111351  0  0  0.667583  0  4.101449  0  0  0.252468  0.608512  0  4.117629  0
C  C67  1  0.38239211  0.97580137  0.52744186  1  0  -0.249143  0  3.767887  0  0  -0.314613  0  4.012551  0  0  -0.316913  0  4.025013  0  0  -0.256439  -0.312765  0  4.003916  0
C  C68  1  0.61758979  0.02419851  0.47255109  1  0  -0.24899  0  3.767986  0  0  -0.314457  0  4.012675  0  0  -0.316754  0  4.025124  0  0  -0.25645  -0.312612  0  4.004038  0
C  C69  1  0.64112539  0.47585434  0.00922904  1  0  -0.239464  0  3.75078  0  0  -0.305292  0  3.995299  0  0  -0.307475  0  4.007954  0  0  -0.251951  -0.303536  0  3.986534  0
C  C70  1  0.35911805  0.52411600  0.99085883  1  0  -0.239767  0  3.750855  0  0  -0.30554  0  3.995443  0  0  -0.307734  0  4.008099  0  0  -0.252222  -0.3038  0  3.986658  0
O  O71  1  0.29848085  0.15342393  0.97504871  1  0  -0.725338  0  2.015039  0  0  -0.6589  0  2.25793  0  0  -0.686379  0  2.2443  0  0  -0.362083  -0.639139  0  2.266331  0
O  O72  1  0.70152044  0.84657773  0.02493692  1  0  -0.72531  0  2.015005  0  0  -0.658887  0  2.257852  0  0  -0.686362  0  2.244245  0  0  -0.362126  -0.639119  0  2.26626  0
O  O73  1  0.70894106  0.12207795  0.90783642  1  0  -0.682869  0  1.972317  0  0  -0.631151  0  2.226629  0  0  -0.656985  0  2.214443  0  0  -0.362267  -0.612832  0  2.23443  0
O  O74  1  0.29106697  0.87793235  0.09215493  1  0  -0.682788  0  1.972557  0  0  -0.631093  0  2.226954  0  0  -0.656933  0  2.214756  0  0  -0.362272  -0.612772  0  2.234758  0
O  O75  1  0.22289676  0.91207454  0.87655157  1  0  -0.653761  0  1.995356  0  0  -0.599542  0  2.237991  0  0  -0.624283  0  2.226188  0  0  -0.350185  -0.582534  0  2.245533  0
O  O76  1  0.77704890  0.08793398  0.12343235  1  0  -0.654085  0  1.995182  0  0  -0.599844  0  2.237852  0  0  -0.62459  0  2.226043  0  0  -0.35028  -0.582831  0  2.245395  0
O  O77  1  0.60754439  0.78165293  0.87633785  1  0  -0.540472  0  2.100275  0  0  -0.485955  0  2.318838  0  0  -0.509645  0  2.30476  0  0  -0.305056  -0.46937  0  2.327816  0
O  O78  1  0.39242192  0.21835465  0.12365488  1  0  -0.540513  0  2.100623  0  0  -0.485956  0  2.319354  0  0  -0.509655  0  2.305166  0  0  -0.304881  -0.469361  0  2.328311  0
