# generated using pymatgen
data_CdH8C11SN3Cl
_symmetry_space_group_name_H-M   'P 1'
_cell_length_a   7.76906585
_cell_length_b   9.30619263
_cell_length_c   9.50063227
_cell_angle_alpha   102.95186026
_cell_angle_beta   107.71919911
_cell_angle_gamma   105.29095148
_symmetry_Int_Tables_number   1
_chemical_formula_structural   CdH8C11SN3Cl
_chemical_formula_sum   'Cd2 H16 C22 S2 N6 Cl2'
_cell_volume   595.50929897
_cell_formula_units_Z   2
loop_
 _symmetry_equiv_pos_site_id
 _symmetry_equiv_pos_as_xyz
  1  'x, y, z'
loop_
 _atom_site_type_symbol
 _atom_site_label
 _atom_site_symmetry_multiplicity
 _atom_site_fract_x
 _atom_site_fract_y
 _atom_site_fract_z
 _atom_site_occupancy
 _atom_site_hle17_bader_spin_density
 _atom_site_hle17_ddec_charge
 _atom_site_hle17_ddec_spin_density
 _atom_site_hle17_ddec_sum_bond_order
 _atom_site_hle17_magmom
 _atom_site_hse06_10hf_bader_spin_density
 _atom_site_hse06_10hf_ddec_charge
 _atom_site_hse06_10hf_ddec_spin_density
 _atom_site_hse06_10hf_ddec_sum_bond_order
 _atom_site_hse06_10hf_magmom
 _atom_site_hse06_bader_spin_density
 _atom_site_hse06_ddec_charge
 _atom_site_hse06_ddec_spin_density
 _atom_site_hse06_ddec_sum_bond_order
 _atom_site_hse06_magmom
 _atom_site_pbe_bader_spin_density
 _atom_site_pbe_cm5_charge
 _atom_site_pbe_ddec_charge
 _atom_site_pbe_ddec_spin_density
 _atom_site_pbe_ddec_sum_bond_order
 _atom_site_pbe_magmom
Cd  Cd0  1  0.98212323  0.70837322  0.07998423  1  0  0.9379  0  1.997025  0  0  0.763454  0  2.465152  0  0  0.809673  0  2.426072  0  0  0.652606  0.731283  0  2.491347  0
Cd  Cd1  1  0.01787763  0.29163528  0.92001445  1  0  0.937911  0  1.996987  0  0  0.76347  0  2.465078  0  0  0.809685  0  2.426003  0  0  0.652638  0.731296  0  2.491264  0
H  H2  1  0.31202966  0.06392634  0.28114334  1  0  0.069322  0  0.967098  0  0  0.078271  0  1.032655  0  0  0.079681  0  1.031923  0  0  0.108019  0.077181  0  1.033264  0
H  H3  1  0.68797646  0.93607865  0.71886745  1  0  0.069341  0  0.967384  0  0  0.078282  0  1.032936  0  0  0.079692  0  1.032205  0  0  0.108032  0.077193  0  1.033555  0
H  H4  1  0.49581000  0.24815466  0.56005487  1  0  0.102897  0  0.970363  0  0  0.112799  0  1.031924  0  0  0.115501  0  1.031528  0  0  0.097952  0.110858  0  1.032371  0
H  H5  1  0.50419167  0.75184325  0.43995749  1  0  0.102925  0  0.970403  0  0  0.112827  0  1.031944  0  0  0.115529  0  1.031549  0  0  0.097953  0.110884  0  1.032397  0
H  H6  1  0.42521442  0.15981096  0.77271808  1  0  0.099074  0  0.950897  0  0  0.106221  0  1.018253  0  0  0.108757  0  1.016582  0  0  0.099668  0.10431  0  1.019577  0
H  H7  1  0.57478280  0.84017986  0.22728952  1  0  0.099067  0  0.950966  0  0  0.106262  0  1.018282  0  0  0.108765  0  1.016647  0  0  0.09966  0.104347  0  1.019608  0
H  H8  1  0.17134901  0.89958396  0.70212884  1  0  0.096355  0  1.010565  0  0  0.105995  0  1.075083  0  0  0.10855  0  1.074788  0  0  0.095753  0.10417  0  1.075383  0
H  H9  1  0.82864901  0.10040567  0.29787239  1  0  0.096253  0  1.010588  0  0  0.105837  0  1.075164  0  0  0.108418  0  1.074844  0  0  0.095706  0.104015  0  1.075457  0
H  H10  1  0.61312878  0.43137904  0.06988913  1  0  0.077414  0  0.944023  0  0  0.085446  0  1.01049  0  0  0.087607  0  1.008594  0  0  0.106377  0.08379  0  1.011999  0
H  H11  1  0.38687216  0.56862355  0.93010091  1  0  0.077437  0  0.944015  0  0  0.085446  0  1.0105  0  0  0.087608  0  1.0086  0  0  0.106366  0.083785  0  1.012005  0
H  H12  1  0.48813608  0.31744993  0.24846674  1  0  0.108574  0  0.960308  0  0  0.117854  0  1.020849  0  0  0.120483  0  1.020517  0  0  0.103672  0.115964  0  1.021236  0
H  H13  1  0.51185603  0.68254793  0.75151904  1  0  0.108561  0  0.960432  0  0  0.117861  0  1.02094  0  0  0.120489  0  1.020612  0  0  0.103696  0.115971  0  1.021332  0
H  H14  1  0.68058874  0.45178579  0.54403765  1  0  0.092565  0  0.975729  0  0  0.10211  0  1.039494  0  0  0.105094  0  1.037132  0  0  0.094739  0.099889  0  1.041301  0
H  H15  1  0.31939945  0.54820618  0.45594902  1  0  0.092588  0  0.975744  0  0  0.102106  0  1.039537  0  0  0.105091  0  1.037176  0  0  0.094735  0.099883  0  1.041351  0
H  H16  1  0.96644300  0.69091612  0.63774382  1  0  0.103341  0  0.971134  0  0  0.109653  0  1.039008  0  0  0.112866  0  1.038049  0  0  0.101251  0.107361  0  1.039767  0
H  H17  1  0.03354927  0.30907585  0.36224912  1  0  0.103401  0  0.971043  0  0  0.109733  0  1.038858  0  0  0.112946  0  1.037902  0  0  0.101289  0.107433  0  1.039623  0
C  C18  1  0.10341771  0.84470346  0.45300710  1  0  0.176632  0  3.750296  0  0  0.172599  0  3.991704  0  0  0.179393  0  4.012043  0  0  0.118579  0.168085  0  3.977932  0
C  C19  1  0.89658341  0.15529325  0.54699539  1  0  0.17661  0  3.750269  0  0  0.172583  0  3.991655  0  0  0.179388  0  4.011983  0  0  0.118603  0.16807  0  3.977878  0
C  C20  1  0.28343644  0.03305308  0.37808522  1  0  0.130124  0  3.721373  0  0  0.102733  0  3.969311  0  0  0.109173  0  3.988827  0  0  0.046305  0.098634  0  3.955915  0
C  C21  1  0.71656896  0.96694719  0.62192541  1  0  0.13019  0  3.721721  0  0  0.102776  0  3.969621  0  0  0.109215  0  3.989142  0  0  0.046257  0.098668  0  3.956244  0
C  C22  1  0.38554748  0.13431175  0.53195495  1  0  -0.111495  0  3.723188  0  0  -0.124383  0  3.972262  0  0  -0.13085  0  3.994168  0  0  -0.085166  -0.120247  0  3.957556  0
C  C23  1  0.61445368  0.86568498  0.46805702  1  0  -0.11167  0  3.723126  0  0  -0.124503  0  3.972183  0  0  -0.13097  0  3.99408  0  0  -0.085175  -0.120367  0  3.957489  0
C  C24  1  0.34599751  0.08524903  0.65053358  1  0  0.008084  0  3.70444  0  0  -0.012541  0  3.9594  0  0  -0.009221  0  3.977696  0  0  -0.066738  -0.01446  0  3.946938  0
C  C25  1  0.65400292  0.91474297  0.34947402  1  0  0.00801  0  3.704346  0  0  -0.012684  0  3.959316  0  0  -0.009339  0  3.977626  0  0  -0.066752  -0.014588  0  3.946842  0
C  C26  1  0.20387295  0.93910022  0.61072359  1  0  -0.134277  0  3.682367  0  0  -0.15249  0  3.926425  0  0  -0.159518  0  3.948049  0  0  -0.080822  -0.147903  0  3.911894  0
C  C27  1  0.79612611  0.06089178  0.38928052  1  0  -0.133903  0  3.682165  0  0  -0.152083  0  3.926276  0  0  -0.159132  0  3.947865  0  0  -0.080692  -0.147505  0  3.91174  0
C  C28  1  0.94077132  0.69322489  0.40365466  1  0  0.174543  0  3.754345  0  0  0.170038  0  3.994124  0  0  0.176427  0  4.014643  0  0  0.117685  0.165814  0  3.980194  0
C  C29  1  0.05922811  0.30677417  0.59634266  1  0  0.174457  0  3.754501  0  0  0.169983  0  3.994216  0  0  0.17637  0  4.014733  0  0  0.117679  0.165761  0  3.98028  0
C  C30  1  0.68580297  0.48640622  0.19679357  1  0  0.143527  0  3.70585  0  0  0.111918  0  3.961195  0  0  0.118616  0  3.979228  0  0  0.047778  0.107556  0  3.948953  0
C  C31  1  0.31419746  0.51359519  0.80319714  1  0  0.143539  0  3.705691  0  0  0.111979  0  3.960976  0  0  0.118681  0  3.979007  0  0  0.04784  0.107621  0  3.948727  0
C  C32  1  0.61878572  0.42227886  0.29772310  1  0  -0.103152  0  3.712246  0  0  -0.115923  0  3.963376  0  0  -0.122028  0  3.984444  0  0  -0.0817  -0.112011  0  3.949192  0
C  C33  1  0.38121013  0.57772137  0.70226412  1  0  -0.103191  0  3.712326  0  0  -0.115998  0  3.963453  0  0  -0.122106  0  3.98452  0  0  -0.081745  -0.112088  0  3.949275  0
C  C34  1  0.72267891  0.49665066  0.45823959  1  0  -0.009884  0  3.72272  0  0  -0.027369  0  3.970157  0  0  -0.024892  0  3.989043  0  0  -0.07103  -0.028682  0  3.957166  0
C  C35  1  0.27731083  0.50334484  0.54174825  1  0  -0.00991  0  3.722771  0  0  -0.027382  0  3.97024  0  0  -0.024909  0  3.989129  0  0  -0.071084  -0.028689  0  3.957245  0
C  C36  1  0.88522790  0.63314717  0.51208711  1  0  -0.134248  0  3.696782  0  0  -0.149636  0  3.940701  0  0  -0.156335  0  3.962264  0  0  -0.079259  -0.145245  0  3.926117  0
C  C37  1  0.11476353  0.36684599  0.48790379  1  0  -0.134365  0  3.696757  0  0  -0.149765  0  3.940664  0  0  -0.156464  0  3.962229  0  0  -0.079343  -0.145368  0  3.926072  0
C  C38  1  0.21872636  0.01837026  0.98708201  1  0  0.300076  0  3.998019  0  0  0.279033  0  4.302108  0  0  0.301153  0  4.315116  0  0  0.147992  0.263949  0  4.293203  0
C  C39  1  0.78127852  0.98165360  0.01292208  1  0  0.299701  0  3.997866  0  0  0.278658  0  4.301977  0  0  0.30078  0  4.314993  0  0  0.147801  0.263575  0  4.293068  0
S  S40  1  0.24704935  0.84889528  0.97582153  1  0  -0.335698  0  2.215935  0  0  -0.302397  0  2.555634  0  0  -0.320145  0  2.548809  0  0  -0.129133  -0.289987  0  2.560165  0
S  S41  1  0.75295900  0.15111796  0.02418531  1  0  -0.335495  0  2.216361  0  0  -0.302188  0  2.556063  0  0  -0.319943  0  2.549265  0  0  -0.129037  -0.289777  0  2.560585  0
N  N42  1  0.14673507  0.89214556  0.33961780  1  0  -0.349022  0  3.254851  0  0  -0.279739  0  3.513609  0  0  -0.299003  0  3.53404  0  0  -0.325534  -0.266567  0  3.499256  0
N  N43  1  0.85326863  0.10785706  0.66038767  1  0  -0.349072  0  3.254835  0  0  -0.279787  0  3.513604  0  0  -0.299051  0  3.53402  0  0  -0.325544  -0.26661  0  3.499247  0
N  N44  1  0.84190748  0.61757312  0.24816932  1  0  -0.347349  0  3.250143  0  0  -0.275979  0  3.506295  0  0  -0.294626  0  3.525646  0  0  -0.326027  -0.263313  0  3.492926  0
N  N45  1  0.15809433  0.38242831  0.75182700  1  0  -0.34727  0  3.25024  0  0  -0.275903  0  3.506325  0  0  -0.294552  0  3.525679  0  0  -0.325998  -0.263233  0  3.492948  0
N  N46  1  0.20419825  0.14322395  0.99553559  1  0  -0.522974  0  2.851956  0  0  -0.46875  0  3.12709  0  0  -0.488639  0  3.132491  0  0  -0.389043  -0.455172  0  3.123324  0
N  N47  1  0.79581187  0.85678102  0.00446566  1  0  -0.522821  0  2.851404  0  0  -0.468585  0  3.126535  0  0  -0.488479  0  3.131936  0  0  -0.388957  -0.455009  0  3.122772  0
Cl  Cl48  1  0.22586783  0.54442585  0.15885038  1  0  -0.572301  0  0.968193  0  0  -0.508909  0  1.249449  0  0  -0.527704  0  1.230422  0  0  -0.303934  -0.495249  0  1.262045  0
Cl  Cl49  1  0.77414060  0.45558147  0.84114676  1  0  -0.572321  0  0.968243  0  0  -0.508934  0  1.249511  0  0  -0.52773  0  1.230484  0  0  -0.303922  -0.495277  0  1.26211  0
