# generated using pymatgen
data_Cu2H10C11S(IN)2
_symmetry_space_group_name_H-M   'P 1'
_cell_length_a   7.74641026
_cell_length_b   8.15077762
_cell_length_c   11.94285710
_cell_angle_alpha   92.93200177
_cell_angle_beta   93.51765779
_cell_angle_gamma   110.03917199
_symmetry_Int_Tables_number   1
_chemical_formula_structural   Cu2H10C11S(IN)2
_chemical_formula_sum   'Cu4 H20 C22 S2 I4 N4'
_cell_volume   704.97880472
_cell_formula_units_Z   2
loop_
 _symmetry_equiv_pos_site_id
 _symmetry_equiv_pos_as_xyz
  1  'x, y, z'
loop_
 _atom_site_type_symbol
 _atom_site_label
 _atom_site_symmetry_multiplicity
 _atom_site_fract_x
 _atom_site_fract_y
 _atom_site_fract_z
 _atom_site_occupancy
 _atom_site_hle17_bader_spin_density
 _atom_site_hle17_ddec_charge
 _atom_site_hle17_ddec_spin_density
 _atom_site_hle17_ddec_sum_bond_order
 _atom_site_hle17_magmom
 _atom_site_hse06_10hf_bader_spin_density
 _atom_site_hse06_10hf_ddec_charge
 _atom_site_hse06_10hf_ddec_spin_density
 _atom_site_hse06_10hf_ddec_sum_bond_order
 _atom_site_hse06_10hf_magmom
 _atom_site_hse06_bader_spin_density
 _atom_site_hse06_ddec_charge
 _atom_site_hse06_ddec_spin_density
 _atom_site_hse06_ddec_sum_bond_order
 _atom_site_hse06_magmom
 _atom_site_pbe_bader_spin_density
 _atom_site_pbe_cm5_charge
 _atom_site_pbe_ddec_charge
 _atom_site_pbe_ddec_spin_density
 _atom_site_pbe_ddec_sum_bond_order
 _atom_site_pbe_magmom
Cu  Cu0  1  0.56996301  0.59474529  0.92045327  1  0  0.222799  0  2.242233  0  0  0.141937  0  2.736479  0  0  0.151236  0  2.683064  0  0  0.281044  0.138238  0  2.770622  0
Cu  Cu1  1  0.43003079  0.40525824  0.07954230  1  0  0.222827  0  2.242196  0  0  0.141963  0  2.736458  0  0  0.151269  0  2.683036  0  0  0.281017  0.138265  0  2.770567  0
Cu  Cu2  1  0.60729308  0.55531670  0.58923398  1  0  0.237107  0  2.227889  0  0  0.155691  0  2.71511  0  0  0.161066  0  2.666686  0  0  0.301848  0.155533  0  2.745282  0
Cu  Cu3  1  0.39270786  0.44468161  0.41076422  1  0  0.237058  0  2.22795  0  0  0.15564  0  2.715165  0  0  0.160995  0  2.666749  0  0  0.301828  0.155484  0  2.745284  0
H  H4  1  0.98010537  0.71141644  0.97780758  1  0  0.068227  0  0.959631  0  0  0.073716  0  1.032781  0  0  0.076572  0  1.030095  0  0  0.098955  0.071583  0  1.034736  0
H  H5  1  0.01988890  0.28858844  0.02219643  1  0  0.068211  0  0.959629  0  0  0.073679  0  1.03279  0  0  0.076533  0  1.030106  0  0  0.098952  0.071548  0  1.034746  0
H  H6  1  0.26021518  0.94611915  0.92430698  1  0  0.095455  0  0.987959  0  0  0.102693  0  1.057316  0  0  0.105818  0  1.056733  0  0  0.0856  0.100281  0  1.058124  0
H  H7  1  0.73978283  0.05388182  0.07569789  1  0  0.095441  0  0.987955  0  0  0.102665  0  1.057325  0  0  0.105788  0  1.056747  0  0  0.085588  0.100255  0  1.05813  0
H  H8  1  0.22281839  0.15084595  0.78237451  1  0  0.086177  0  0.981612  0  0  0.093403  0  1.052171  0  0  0.096511  0  1.049422  0  0  0.087829  0.090884  0  1.054455  0
H  H9  1  0.77718399  0.84915632  0.21762890  1  0  0.08621  0  0.981614  0  0  0.093428  0  1.052178  0  0  0.096535  0  1.04943  0  0  0.087861  0.0909  0  1.054464  0
H  H10  1  0.90182440  0.11292243  0.70184687  1  0  0.107361  0  0.949915  0  0  0.119537  0  1.008517  0  0  0.122231  0  1.008368  0  0  0.104348  0.117599  0  1.008848  0
H  H11  1  0.09817940  0.88708376  0.29815421  1  0  0.107314  0  0.949858  0  0  0.119492  0  1.008476  0  0  0.122185  0  1.008327  0  0  0.104312  0.117553  0  1.008807  0
H  H12  1  0.57877084  0.93342928  0.67889861  1  0  0.1127  0  0.960025  0  0  0.122832  0  1.027432  0  0  0.125338  0  1.02643  0  0  0.09115  0.121115  0  1.028095  0
H  H13  1  0.42123447  0.06657033  0.32109563  1  0  0.112646  0  0.95997  0  0  0.122788  0  1.027363  0  0  0.125293  0  1.02636  0  0  0.091122  0.121071  0  1.028025  0
H  H14  1  0.50671574  0.92156265  0.81975658  1  0  0.118506  0  0.942069  0  0  0.130635  0  1.006984  0  0  0.132815  0  1.00646  0  0  0.0943  0.129078  0  1.007462  0
H  H15  1  0.49328406  0.07843956  0.18023668  1  0  0.11852  0  0.942059  0  0  0.130641  0  1.006985  0  0  0.132819  0  1.006462  0  0  0.09432  0.129083  0  1.007463  0
H  H16  1  0.97476180  0.79411251  0.53314395  1  0  0.069709  0  0.964666  0  0  0.075138  0  1.036407  0  0  0.078519  0  1.033116  0  0  0.098166  0.072492  0  1.039079  0
H  H17  1  0.02524057  0.20588976  0.46685863  1  0  0.069746  0  0.964601  0  0  0.075163  0  1.036364  0  0  0.078545  0  1.033075  0  0  0.098187  0.072521  0  1.039033  0
H  H18  1  0.30356183  0.83295072  0.58137856  1  0  0.107965  0  0.995688  0  0  0.116908  0  1.059232  0  0  0.120473  0  1.057925  0  0  0.087715  0.114182  0  1.060509  0
H  H19  1  0.69643946  0.16704499  0.41862125  1  0  0.107954  0  0.995699  0  0  0.116903  0  1.059232  0  0  0.120467  0  1.057926  0  0  0.087701  0.114175  0  1.060506  0
H  H20  1  0.11741328  0.40705003  0.79786054  1  0  0.110173  0  0.957558  0  0  0.11975  0  1.022533  0  0  0.123362  0  1.020581  0  0  0.103865  0.11695  0  1.024397  0
H  H21  1  0.88258896  0.59294831  0.20214023  1  0  0.110089  0  0.957683  0  0  0.11973  0  1.022607  0  0  0.123341  0  1.020654  0  0  0.10387  0.116929  0  1.024469  0
H  H22  1  0.79430521  0.37701640  0.73280892  1  0  0.069061  0  0.989294  0  0  0.074999  0  1.062808  0  0  0.078337  0  1.059224  0  0  0.092642  0.072403  0  1.06567  0
H  H23  1  0.20569526  0.62298062  0.26719173  1  0  0.069053  0  0.989365  0  0  0.074992  0  1.062875  0  0  0.078332  0  1.059285  0  0  0.092626  0.072393  0  1.065725  0
C  C24  1  0.96866278  0.80657364  0.91941730  1  0  0.132646  0  3.694286  0  0  0.10358  0  3.941196  0  0  0.110332  0  3.959757  0  0  0.038742  0.099262  0  3.928852  0
C  C25  1  0.03133264  0.19342730  0.08058411  1  0  0.132768  0  3.694151  0  0  0.103736  0  3.941071  0  0  0.110491  0  3.959626  0  0  0.038814  0.099414  0  3.928732  0
C  C26  1  0.12418226  0.93604129  0.88798272  1  0  -0.111496  0  3.732946  0  0  -0.124192  0  3.977816  0  0  -0.132142  0  4.00115  0  0  -0.091285  -0.119149  0  3.962528  0
C  C27  1  0.87581623  0.06396099  0.11202221  1  0  -0.111522  0  3.732989  0  0  -0.124202  0  3.977847  0  0  -0.132151  0  4.001176  0  0  -0.091274  -0.119163  0  3.962555  0
C  C28  1  0.10247349  0.05057701  0.81013388  1  0  -0.005278  0  3.732815  0  0  -0.022452  0  3.979444  0  0  -0.017797  0  3.996838  0  0  -0.074554  -0.025392  0  3.967928  0
C  C29  1  0.89752725  0.94942789  0.18987122  1  0  -0.00529  0  3.732873  0  0  -0.02247  0  3.979513  0  0  -0.017809  0  3.996894  0  0  -0.074591  -0.025406  0  3.967991  0
C  C30  1  0.92499452  0.03058747  0.76597881  1  0  -0.159143  0  3.700919  0  0  -0.176337  0  3.943791  0  0  -0.184695  0  3.965982  0  0  -0.086944  -0.171004  0  3.929123  0
C  C31  1  0.07500833  0.96941609  0.23402132  1  0  -0.15901  0  3.700901  0  0  -0.176226  0  3.94374  0  0  -0.184584  0  3.965932  0  0  -0.086872  -0.170893  0  3.929059  0
C  C32  1  0.77478543  0.90027978  0.80319397  1  0  0.259294  0  3.708412  0  0  0.262567  0  3.948162  0  0  0.270791  0  3.968235  0  0  0.108232  0.256807  0  3.935133  0
C  C33  1  0.22521518  0.09972115  0.19680347  1  0  0.259187  0  3.708522  0  0  0.262546  0  3.948164  0  0  0.270768  0  3.968236  0  0  0.108231  0.25679  0  3.935121  0
C  C34  1  0.58087531  0.87203527  0.75837144  1  0  -0.221783  0  3.611928  0  0  -0.2589  0  3.85403  0  0  -0.260842  0  3.860582  0  0  -0.150342  -0.257544  0  3.849726  0
C  C35  1  0.41912917  0.12796566  0.24162532  1  0  -0.221693  0  3.611857  0  0  -0.258845  0  3.853967  0  0  -0.260781  0  3.860513  0  0  -0.15034  -0.257509  0  3.849673  0
C  C36  1  0.01251789  0.70891212  0.59005329  1  0  0.132654  0  3.678773  0  0  0.105065  0  3.924232  0  0  0.111903  0  3.940418  0  0  0.037534  0.100249  0  3.914352  0
C  C37  1  0.98748272  0.29108883  0.40994833  1  0  0.132598  0  3.678734  0  0  0.10501  0  3.924196  0  0  0.111846  0  3.940383  0  0  0.037521  0.100191  0  3.914311  0
C  C38  1  0.19604131  0.73137325  0.61842516  1  0  -0.147084  0  3.709017  0  0  -0.163591  0  3.948331  0  0  -0.170092  0  3.968899  0  0  -0.09071  -0.159785  0  3.935836  0
C  C39  1  0.80395868  0.26862246  0.38157460  1  0  -0.147065  0  3.709061  0  0  -0.163583  0  3.948353  0  0  -0.170084  0  3.968925  0  0  -0.090685  -0.159782  0  3.935854  0
C  C40  1  0.23696473  0.62106149  0.69370285  1  0  0.086392  0  3.73251  0  0  0.105488  0  3.98097  0  0  0.109891  0  4.001577  0  0  0.002641  0.101453  0  3.968378  0
C  C41  1  0.76303962  0.37893552  0.30629629  1  0  0.086398  0  3.732438  0  0  0.10554  0  3.980858  0  0  0.109941  0  4.001463  0  0  0.002665  0.101504  0  3.968251  0
C  C42  1  0.09125286  0.49133595  0.73614613  1  0  -0.156145  0  3.730861  0  0  -0.173891  0  3.975098  0  0  -0.18105  0  3.996354  0  0  -0.089914  -0.16967  0  3.962361  0
C  C43  1  0.90875101  0.50865976  0.26385295  1  0  -0.156011  0  3.730931  0  0  -0.173843  0  3.975155  0  0  -0.181013  0  3.996445  0  0  -0.089881  -0.169623  0  3.962406  0
C  C44  1  0.91161121  0.47561419  0.70105997  1  0  0.121584  0  3.691387  0  0  0.092413  0  3.939714  0  0  0.099874  0  3.954528  0  0  0.032032  0.086861  0  3.931175  0
C  C45  1  0.08839137  0.52438153  0.29894157  1  0  0.121547  0  3.691516  0  0  0.092372  0  3.939861  0  0  0.099834  0  3.95467  0  0  0.032019  0.086825  0  3.931301  0
S  S46  1  0.46444921  0.63489114  0.73527782  1  0  0.080439  0  3.136838  0  0  0.089296  0  3.613491  0  0  0.098386  0  3.584916  0  0  -0.032257  0.082483  0  3.63337  0
S  S47  1  0.53555351  0.36510848  0.26471967  1  0  0.0804  0  3.136815  0  0  0.089247  0  3.613435  0  0  0.098338  0  3.584865  0  0  -0.032281  0.082451  0  3.633256  0
I  I48  1  0.37166208  0.69599356  0.05756578  1  0  -0.405654  0  1.496653  0  0  -0.354366  0  1.918501  0  0  -0.370731  0  1.882823  0  0  -0.199153  -0.342166  0  1.941696  0
I  I49  1  0.62832770  0.30400603  0.94242866  1  0  -0.405635  0  1.496601  0  0  -0.354372  0  1.918485  0  0  -0.370734  0  1.882805  0  0  -0.199163  -0.342171  0  1.941686  0
I  I50  1  0.60157286  0.78061883  0.43809459  1  0  -0.44162  0  1.398597  0  0  -0.387542  0  1.788344  0  0  -0.405177  0  1.758231  0  0  -0.210953  -0.374211  0  1.80731  0
I  I51  1  0.39842727  0.21938081  0.56190613  1  0  -0.441601  0  1.398558  0  0  -0.387534  0  1.788329  0  0  -0.40517  0  1.758216  0  0  -0.210943  -0.374201  0  1.807301  0
N  N52  1  0.79665541  0.78958155  0.87923297  1  0  -0.309407  0  3.320863  0  0  -0.236968  0  3.594165  0  0  -0.251936  0  3.605119  0  0  -0.357489  -0.227627  0  3.587009  0
N  N53  1  0.20334084  0.21041808  0.12076676  1  0  -0.309491  0  3.321054  0  0  -0.237099  0  3.594347  0  0  -0.252074  0  3.605319  0  0  -0.357567  -0.22776  0  3.587176  0
N  N54  1  0.87067663  0.58307638  0.62976520  1  0  -0.260647  0  3.348142  0  0  -0.187398  0  3.635046  0  0  -0.198971  0  3.644245  0  0  -0.363026  -0.180886  0  3.629818  0
N  N55  1  0.12932561  0.41692196  0.37023640  1  0  -0.260641  0  3.348271  0  0  -0.187373  0  3.635135  0  0  -0.198941  0  3.644323  0  0  -0.363057  -0.180864  0  3.629882  0
