# generated using pymatgen
data_CdH14C20(NO)4
_symmetry_space_group_name_H-M   'P 1'
_cell_length_a   6.96951310
_cell_length_b   10.82844896
_cell_length_c   13.01965825
_cell_angle_alpha   98.19247421
_cell_angle_beta   100.89957798
_cell_angle_gamma   107.55066388
_symmetry_Int_Tables_number   1
_chemical_formula_structural   CdH14C20(NO)4
_chemical_formula_sum   'Cd2 H28 C40 N8 O8'
_cell_volume   898.81039261
_cell_formula_units_Z   2
loop_
 _symmetry_equiv_pos_site_id
 _symmetry_equiv_pos_as_xyz
  1  'x, y, z'
loop_
 _atom_site_type_symbol
 _atom_site_label
 _atom_site_symmetry_multiplicity
 _atom_site_fract_x
 _atom_site_fract_y
 _atom_site_fract_z
 _atom_site_occupancy
 _atom_site_hle17_bader_spin_density
 _atom_site_hle17_ddec_charge
 _atom_site_hle17_ddec_spin_density
 _atom_site_hle17_ddec_sum_bond_order
 _atom_site_hle17_magmom
 _atom_site_hse06_10hf_bader_spin_density
 _atom_site_hse06_10hf_ddec_charge
 _atom_site_hse06_10hf_ddec_spin_density
 _atom_site_hse06_10hf_ddec_sum_bond_order
 _atom_site_hse06_10hf_magmom
 _atom_site_hse06_bader_spin_density
 _atom_site_hse06_ddec_charge
 _atom_site_hse06_ddec_spin_density
 _atom_site_hse06_ddec_sum_bond_order
 _atom_site_hse06_magmom
 _atom_site_pbe_bader_spin_density
 _atom_site_pbe_cm5_charge
 _atom_site_pbe_ddec_charge
 _atom_site_pbe_ddec_spin_density
 _atom_site_pbe_ddec_sum_bond_order
 _atom_site_pbe_magmom
Cd  Cd0  1  0.33540444  0.24086413  0.74738506  1  0  1.10289  0  1.680217  0  0  0.909432  0  2.131055  0  0  0.968009  0  2.080351  0  0  0.777092  0.867761  0  2.165604  0
Cd  Cd1  1  0.66459678  0.75913541  0.25261532  1  0  1.102906  0  1.680187  0  0  0.90946  0  2.131035  0  0  0.968036  0  2.080328  0  0  0.777081  0.867789  0  2.165578  0
H  H2  1  0.87639621  0.65270149  0.76046779  1  0  0.093865  0  0.95385  0  0  0.104226  0  1.013751  0  0  0.107356  0  1.012275  0  0  0.100314  0.102084  0  1.01467  0
H  H3  1  0.12360368  0.34730103  0.23953279  1  0  0.093877  0  0.95381  0  0  0.104246  0  1.013708  0  0  0.107377  0  1.012233  0  0  0.100329  0.102103  0  1.014636  0
H  H4  1  0.06097303  0.83320424  0.68117262  1  0  0.101003  0  0.977379  0  0  0.109162  0  1.042248  0  0  0.112988  0  1.040193  0  0  0.101242  0.106418  0  1.043899  0
H  H5  1  0.93903124  0.16679827  0.31882842  1  0  0.101034  0  0.977352  0  0  0.109201  0  1.042207  0  0  0.113028  0  1.040151  0  0  0.101259  0.106448  0  1.043872  0
H  H6  1  0.82088142  0.57052026  0.36931582  1  0  0.084161  0  0.970509  0  0  0.093825  0  1.037882  0  0  0.096694  0  1.036431  0  0  0.098758  0.091884  0  1.038697  0
H  H7  1  0.17911845  0.42948226  0.63068630  1  0  0.084133  0  0.970585  0  0  0.09378  0  1.037981  0  0  0.096656  0  1.036509  0  0  0.098752  0.091836  0  1.038798  0
H  H8  1  0.64021010  0.38944100  0.45100677  1  0  0.100193  0  0.936443  0  0  0.111627  0  0.994482  0  0  0.115036  0  0.992729  0  0  0.1053  0.109082  0  0.996035  0
H  H9  1  0.35978448  0.61056252  0.54899338  1  0  0.100134  0  0.936466  0  0  0.111575  0  0.994506  0  0  0.114982  0  0.992755  0  0  0.105291  0.109026  0  0.996067  0
H  H10  1  0.38891969  0.10519535  0.47364559  1  0  0.126311  0  0.970549  0  0  0.135174  0  1.031132  0  0  0.138715  0  1.028734  0  0  0.123812  0.132613  0  1.032979  0
H  H11  1  0.61108260  0.89480617  0.52635436  1  0  0.126243  0  0.970671  0  0  0.135232  0  1.031106  0  0  0.138775  0  1.028706  0  0  0.123821  0.132661  0  1.032957  0
H  H12  1  0.11098294  0.97363607  0.27589956  1  0  0.094356  0  0.959147  0  0  0.10496  0  1.020669  0  0  0.106713  0  1.020597  0  0  0.113635  0.103748  0  1.020782  0
H  H13  1  0.88901549  0.02636646  0.72410164  1  0  0.094386  0  0.959132  0  0  0.104957  0  1.020682  0  0  0.106709  0  1.020613  0  0  0.113649  0.103752  0  1.020788  0
H  H14  1  0.58147377  0.19340474  0.27381957  1  0  0.094934  0  0.954582  0  0  0.105292  0  1.015547  0  0  0.108537  0  1.013719  0  0  0.101164  0.10287  0  1.017045  0
H  H15  1  0.41852350  0.80659282  0.72617786  1  0  0.094975  0  0.954529  0  0  0.105325  0  1.015497  0  0  0.108569  0  1.01367  0  0  0.101167  0.102906  0  1.016997  0
H  H16  1  0.48943186  0.36696702  0.19198446  1  0  0.099902  0  0.983848  0  0  0.106998  0  1.051221  0  0  0.110546  0  1.049625  0  0  0.100196  0.104068  0  1.05299  0
H  H17  1  0.51056676  0.63302757  0.80801121  1  0  0.099879  0  0.983787  0  0  0.106965  0  1.051181  0  0  0.110513  0  1.049583  0  0  0.1002  0.104036  0  1.052948  0
H  H18  1  0.13522673  0.07366175  0.90370554  1  0  0.09135  0  0.952717  0  0  0.101833  0  1.015959  0  0  0.104835  0  1.014523  0  0  0.101583  0.099546  0  1.017466  0
H  H19  1  0.86477238  0.92633383  0.09629338  1  0  0.091381  0  0.952717  0  0  0.101874  0  1.015943  0  0  0.104874  0  1.014508  0  0  0.101602  0.09959  0  1.017446  0
H  H20  1  0.22507171  0.89991538  0.98854508  1  0  0.103489  0  0.934346  0  0  0.11477  0  0.990857  0  0  0.118225  0  0.989101  0  0  0.105962  0.112424  0  0.992006  0
H  H21  1  0.77492154  0.10008021  0.01145553  1  0  0.10349  0  0.934349  0  0  0.114784  0  0.990841  0  0  0.118237  0  0.989091  0  0  0.105998  0.112456  0  0.991964  0
H  H22  1  0.20957759  0.62343947  0.99518598  1  0  0.127134  0  0.951009  0  0  0.136391  0  1.009369  0  0  0.13987  0  1.007099  0  0  0.125146  0.134472  0  1.009685  0
H  H23  1  0.79042361  0.37656006  0.00481670  1  0  0.127101  0  0.95102  0  0  0.136338  0  1.009408  0  0  0.139815  0  1.007142  0  0  0.125141  0.13442  0  1.009719  0
H  H24  1  0.12861760  0.46467943  0.79195093  1  0  0.094614  0  0.961248  0  0  0.105976  0  1.021864  0  0  0.107953  0  1.021264  0  0  0.113208  0.104358  0  1.022779  0
H  H25  1  0.87137737  0.53532211  0.20804979  1  0  0.094605  0  0.961288  0  0  0.105978  0  1.02189  0  0  0.107956  0  1.021288  0  0  0.113203  0.104365  0  1.022798  0
H  H26  1  0.28506578  0.95716196  0.60148231  1  0  0.314705  0  0.924461  0  0  0.294519  0  0.988718  0  0  0.303014  0  0.981828  0  0  0.312059  0.288494  0  0.993621  0
H  H27  1  0.71493797  0.04283956  0.39851779  1  0  0.314584  0  0.924344  0  0  0.294437  0  0.988576  0  0  0.302929  0  0.98169  0  0  0.312011  0.288413  0  0.99348  0
H  H28  1  0.30635134  0.48688695  0.12521332  1  0  0.316642  0  0.935135  0  0  0.294991  0  1.000335  0  0  0.303853  0  0.993087  0  0  0.310181  0.288618  0  1.005646  0
H  H29  1  0.69365068  0.51310862  0.87478667  1  0  0.316623  0  0.935168  0  0  0.294958  0  1.000367  0  0  0.303818  0  0.993119  0  0  0.310187  0.288592  0  1.005667  0
C  C30  1  0.74586902  0.50911706  0.61051290  1  0  -0.069119  0  3.767624  0  0  -0.046506  0  4.001953  0  0  -0.053779  0  4.02416  0  0  -0.019756  -0.042621  0  3.987606  0
C  C31  1  0.25412650  0.49088547  0.38948646  1  0  -0.069118  0  3.767507  0  0  -0.046555  0  4.001914  0  0  -0.053827  0  4.024118  0  0  -0.019714  -0.042672  0  3.987568  0
C  C32  1  0.86694478  0.63422438  0.67486940  1  0  -0.070373  0  3.748433  0  0  -0.09095  0  3.993737  0  0  -0.090604  0  4.01344  0  0  -0.087769  -0.090768  0  3.98069  0
C  C33  1  0.13305218  0.36577814  0.32513241  1  0  -0.070334  0  3.748457  0  0  -0.090905  0  3.993799  0  0  -0.09056  0  4.013504  0  0  -0.087772  -0.090725  0  3.980755  0
C  C34  1  0.96963800  0.73615050  0.63005608  1  0  -0.109822  0  3.733402  0  0  -0.129048  0  3.980704  0  0  -0.132295  0  4.000832  0  0  -0.091035  -0.127716  0  3.967867  0
C  C35  1  0.03036481  0.26385201  0.36994481  1  0  -0.109902  0  3.73339  0  0  -0.129135  0  3.980721  0  0  -0.132381  0  4.000849  0  0  -0.091076  -0.127794  0  3.967888  0
C  C36  1  0.94988359  0.71551682  0.51871680  1  0  0.006109  0  3.799163  0  0  0.021526  0  4.038351  0  0  0.021144  0  4.059822  0  0  -0.001207  0.022173  0  4.023221  0
C  C37  1  0.05012065  0.28448569  0.48128654  1  0  0.006175  0  3.799099  0  0  0.021561  0  4.038301  0  0  0.021175  0  4.059773  0  0  -0.001196  0.022206  0  4.023167  0
C  C38  1  0.83298357  0.58888292  0.45506161  1  0  -0.091076  0  3.739686  0  0  -0.113987  0  3.993207  0  0  -0.117051  0  4.014435  0  0  -0.087276  -0.110995  0  3.977366  0
C  C39  1  0.16701871  0.41111860  0.54493911  1  0  -0.090998  0  3.739699  0  0  -0.113874  0  3.993195  0  0  -0.116935  0  4.014425  0  0  -0.087245  -0.110879  0  3.977347  0
C  C40  1  0.73344836  0.48706134  0.50032765  1  0  -0.054231  0  3.735411  0  0  -0.077854  0  3.985397  0  0  -0.077999  0  4.006248  0  0  -0.078827  -0.077351  0  3.970964  0
C  C41  1  0.26654818  0.51294316  0.49967513  1  0  -0.054213  0  3.735312  0  0  -0.077834  0  3.985326  0  0  -0.077981  0  4.006181  0  0  -0.078862  -0.077324  0  3.970895  0
C  C42  1  0.61543207  0.40333821  0.65450185  1  0  0.636006  0  3.921947  0  0  0.586223  0  4.210962  0  0  0.620262  0  4.204474  0  0  0.196278  0.563188  0  4.214741  0
C  C43  1  0.38456729  0.59666332  0.34549857  1  0  0.636028  0  3.922019  0  0  0.586268  0  4.211025  0  0  0.62031  0  4.204537  0  0  0.196291  0.563235  0  4.214805  0
C  C44  1  0.04620844  0.82268129  0.46918318  1  0  0.325388  0  3.747111  0  0  0.291275  0  4.010825  0  0  0.306102  0  4.02594  0  0  0.216888  0.281874  0  3.999825  0
C  C45  1  0.95379530  0.17732023  0.53081769  1  0  0.32517  0  3.74722  0  0  0.291114  0  4.010895  0  0  0.305947  0  4.026  0  0  0.21683  0.281715  0  3.999892  0
C  C46  1  0.26393606  0.01050246  0.44877411  1  0  0.011423  0  3.655894  0  0  -0.030397  0  3.922375  0  0  -0.028697  0  3.941141  0  0  0.005836  -0.031466  0  3.909646  0
C  C47  1  0.73606423  0.98949808  0.55122629  1  0  0.01148  0  3.655866  0  0  -0.030423  0  3.9223  0  0  -0.028726  0  3.941065  0  0  0.005846  -0.031479  0  3.909565  0
C  C48  1  0.12402744  0.94469936  0.35259078  1  0  0.004654  0  3.751679  0  0  -0.03025  0  4.023352  0  0  -0.02935  0  4.045769  0  0  -0.007717  -0.030929  0  4.00811  0
C  C49  1  0.87597192  0.05530217  0.64740963  1  0  0.004595  0  3.751705  0  0  -0.030292  0  4.023427  0  0  -0.02939  0  4.04584  0  0  -0.007765  -0.030982  0  4.008186  0
C  C50  1  0.40928989  0.03541880  0.13598033  1  0  -0.072084  0  3.775485  0  0  -0.049822  0  4.00915  0  0  -0.057222  0  4.031709  0  0  -0.022353  -0.044398  0  3.993695  0
C  C51  1  0.59070681  0.96457777  0.86402075  1  0  -0.072084  0  3.775487  0  0  -0.049814  0  4.009137  0  0  -0.057213  0  4.031694  0  0  -0.022322  -0.044382  0  3.993682  0
C  C52  1  0.48153626  0.16728221  0.19316283  1  0  -0.068123  0  3.744737  0  0  -0.088387  0  3.987797  0  0  -0.088118  0  4.007545  0  0  -0.086445  -0.088454  0  3.974031  0
C  C53  1  0.51845996  0.83271337  0.80683425  1  0  -0.068213  0  3.744699  0  0  -0.088449  0  3.987724  0  0  -0.08818  0  4.007469  0  0  -0.086447  -0.088526  0  3.973965  0
C  C54  1  0.43131550  0.26492073  0.14672293  1  0  -0.110866  0  3.74369  0  0  -0.131742  0  3.993371  0  0  -0.134999  0  4.013908  0  0  -0.09244  -0.128678  0  3.979053  0
C  C55  1  0.56868124  0.73507585  0.85327432  1  0  -0.110824  0  3.743646  0  0  -0.131684  0  3.993335  0  0  -0.13494  0  4.013873  0  0  -0.092435  -0.128622  0  3.979017  0
C  C56  1  0.31002118  0.23303138  0.04067266  1  0  0.004039  0  3.803976  0  0  0.020369  0  4.041775  0  0  0.020179  0  4.063142  0  0  -0.003849  0.020097  0  4.027389  0
C  C57  1  0.68997453  0.76696321  0.95932271  1  0  0.004157  0  3.803787  0  0  0.020413  0  4.041671  0  0  0.020222  0  4.063041  0  0  -0.003871  0.020143  0  4.027279  0
C  C58  1  0.23356602  0.10018093  0.98470669  1  0  -0.08892  0  3.738577  0  0  -0.110252  0  3.989649  0  0  -0.113246  0  4.010512  0  0  -0.085642  -0.109113  0  3.977107  0
C  C59  1  0.76643509  0.89981563  0.01529255  1  0  -0.089051  0  3.738424  0  0  -0.110371  0  3.989521  0  0  -0.113363  0  4.010382  0  0  -0.085651  -0.109233  0  3.97699  0
C  C60  1  0.28161198  0.00270510  0.03201832  1  0  -0.059203  0  3.739994  0  0  -0.082222  0  3.989482  0  0  -0.082179  0  4.009936  0  0  -0.079478  -0.082803  0  3.976833  0
C  C61  1  0.71838076  0.99728950  0.96798058  1  0  -0.059192  0  3.740033  0  0  -0.08223  0  3.989546  0  0  -0.082187  0  4.009999  0  0  -0.07956  -0.08283  0  3.976885  0
C  C62  1  0.47976620  0.93222994  0.17955678  1  0  0.630383  0  3.933609  0  0  0.580669  0  4.225065  0  0  0.614439  0  4.219783  0  0  0.193893  0.558095  0  4.227188  0
C  C63  1  0.52023252  0.06776762  0.82044233  1  0  0.630436  0  3.933546  0  0  0.580698  0  4.225041  0  0  0.614465  0  4.219758  0  0  0.193887  0.558115  0  4.227169  0
C  C64  1  0.26439542  0.33527769  0.98905704  1  0  0.316895  0  3.754288  0  0  0.283884  0  4.018027  0  0  0.298041  0  4.033607  0  0  0.212061  0.27464  0  4.007019  0
C  C65  1  0.73560823  0.66472085  0.01094040  1  0  0.316923  0  3.75424  0  0  0.283944  0  4.017908  0  0  0.298098  0  4.033491  0  0  0.21208  0.274704  0  4.006899  0
C  C66  1  0.21273137  0.52448487  0.96958545  1  0  0.011863  0  3.677006  0  0  -0.028716  0  3.944554  0  0  -0.026797  0  3.963397  0  0  0.009083  -0.029934  0  3.931469  0
C  C67  1  0.78726984  0.47551467  0.03041646  1  0  0.011954  0  3.676985  0  0  -0.02864  0  3.944534  0  0  -0.026721  0  3.963375  0  0  0.009127  -0.029853  0  3.931446  0
C  C68  1  0.17610973  0.44518146  0.87049789  1  0  -0.000596  0  3.753501  0  0  -0.034688  0  4.024693  0  0  -0.033775  0  4.046086  0  0  -0.008505  -0.036032  0  4.011598  0
C  C69  1  0.82389162  0.55482106  0.12950361  1  0  -0.00057  0  3.753495  0  0  -0.034677  0  4.024693  0  0  -0.03376  0  4.046073  0  0  -0.008505  -0.036033  0  4.011614  0
N  N70  1  0.98840639  0.82897496  0.36589864  1  0  -0.448453  0  3.201553  0  0  -0.374286  0  3.479865  0  0  -0.39695  0  3.497344  0  0  -0.361362  -0.358717  0  3.467299  0
N  N71  1  0.01159534  0.17102556  0.63410344  1  0  -0.44836  0  3.201512  0  0  -0.374204  0  3.479792  0  0  -0.39687  0  3.497266  0  0  -0.361307  -0.358635  0  3.467226  0
N  N72  1  0.21262666  0.93243145  0.52058684  1  0  -0.31349  0  3.412642  0  0  -0.2476  0  3.642356  0  0  -0.263784  0  3.656522  0  0  -0.369984  -0.236636  0  3.632506  0
N  N73  1  0.78737708  0.06757007  0.47941403  1  0  -0.313263  0  3.41241  0  0  -0.247446  0  3.64214  0  0  -0.263628  0  3.656301  0  0  -0.369913  -0.236479  0  3.632287  0
N  N74  1  0.21029776  0.32848865  0.88295369  1  0  -0.444167  0  3.181382  0  0  -0.373652  0  3.46095  0  0  -0.395242  0  3.477804  0  0  -0.359825  -0.359142  0  3.449577  0
N  N75  1  0.78970455  0.67151287  0.11704473  1  0  -0.444316  0  3.181381  0  0  -0.37383  0  3.460973  0  0  -0.395418  0  3.477824  0  0  -0.359875  -0.359318  0  3.449605  0
N  N76  1  0.26699283  0.45369926  0.04260599  1  0  -0.322708  0  3.421771  0  0  -0.256774  0  3.653394  0  0  -0.273458  0  3.668587  0  0  -0.374292  -0.24555  0  3.643274  0
N  N77  1  0.73301079  0.54629928  0.95739374  1  0  -0.3227  0  3.421876  0  0  -0.256698  0  3.653404  0  0  -0.273377  0  3.668599  0  0  -0.374317  -0.245482  0  3.643278  0
O  O78  1  0.53793604  0.28511576  0.60272102  1  0  -0.604501  0  1.931068  0  0  -0.551455  0  2.161259  0  0  -0.576752  0  2.153316  0  0  -0.315286  -0.534255  0  2.166626  0
O  O79  1  0.46206333  0.71488576  0.39727863  1  0  -0.604487  0  1.931017  0  0  -0.551477  0  2.161232  0  0  -0.576765  0  2.153266  0  0  -0.315305  -0.534275  0  2.166597  0
O  O80  1  0.57417037  0.44004228  0.74491378  1  0  -0.676896  0  2.066051  0  0  -0.601521  0  2.312075  0  0  -0.631622  0  2.302081  0  0  -0.334527  -0.580188  0  2.318403  0
O  O81  1  0.42583032  0.55995627  0.25508719  1  0  -0.67692  0  2.066041  0  0  -0.601558  0  2.312059  0  0  -0.631661  0  2.302064  0  0  -0.334527  -0.580226  0  2.318387  0
O  O82  1  0.39421861  0.81142568  0.13344436  1  0  -0.609252  0  1.936591  0  0  -0.553735  0  2.168879  0  0  -0.579989  0  2.160827  0  0  -0.319917  -0.53475  0  2.172577  0
O  O83  1  0.60578408  0.18857386  0.86655540  1  0  -0.609275  0  1.936527  0  0  -0.553736  0  2.168803  0  0  -0.579986  0  2.160749  0  0  -0.319913  -0.534748  0  2.172501  0
O  O84  1  0.63881948  0.97111210  0.26120644  1  0  -0.67844  0  2.028927  0  0  -0.609282  0  2.276489  0  0  -0.638611  0  2.266366  0  0  -0.336194  -0.588016  0  2.28215  0
O  O85  1  0.36118428  0.02888943  0.73879290  1  0  -0.678445  0  2.028943  0  0  -0.609273  0  2.276508  0  0  -0.638611  0  2.266416  0  0  -0.336177  -0.58801  0  2.282181  0
