# generated using pymatgen
data_Er4H36C57(O11F6)3
_symmetry_space_group_name_H-M   'P 1'
_cell_length_a   7.87794356
_cell_length_b   21.28973680
_cell_length_c   22.88966535
_cell_angle_alpha   82.75839039
_cell_angle_beta   82.35157433
_cell_angle_gamma   80.13087405
_symmetry_Int_Tables_number   1
_chemical_formula_structural   Er4H36C57(O11F6)3
_chemical_formula_sum   'Er8 H72 C114 O66 F36'
_cell_volume   3727.56749100
_cell_formula_units_Z   2
loop_
 _symmetry_equiv_pos_site_id
 _symmetry_equiv_pos_as_xyz
  1  'x, y, z'
loop_
 _atom_site_type_symbol
 _atom_site_label
 _atom_site_symmetry_multiplicity
 _atom_site_fract_x
 _atom_site_fract_y
 _atom_site_fract_z
 _atom_site_occupancy
 _atom_site_pbe_bader_charge
 _atom_site_pbe_bader_spin_density
 _atom_site_pbe_cm5_charge
 _atom_site_pbe_ddec_charge
 _atom_site_pbe_ddec_spin_density
 _atom_site_pbe_ddec_sum_bond_order
 _atom_site_pbe_magmom
Er  Er0  1  0.19651136  0.57746417  0.71252893  1  2.179972  0  1.503321  2.088153  0  2.098382  0
Er  Er1  1  0.61981147  0.52827789  0.56577272  1  2.184  0  1.52288  2.096732  0  2.066092  0
Er  Er2  1  0.53133645  0.75269457  0.90314056  1  2.190864  0  1.504469  2.104175  0  2.065482  0
Er  Er3  1  0.76768294  0.90536668  0.96364160  1  2.187401  0  1.532871  2.124791  0  2.126217  0
Er  Er4  1  0.80348090  0.42253730  0.28746665  1  2.180006  0  1.503247  2.088154  0  2.098317  0
Er  Er5  1  0.38019181  0.47171879  0.43423427  1  2.18406  0  1.522946  2.096661  0  2.06637  0
Er  Er6  1  0.46865550  0.24731074  0.09685895  1  2.190801  0  1.504472  2.104133  0  2.065446  0
Er  Er7  1  0.23232047  0.09463575  0.03635990  1  2.18731  0  1.532834  2.124767  0  2.126315  0
H  H8  1  0.49741692  0.58263813  0.77733874  1  0.652433  0  0.302446  0.401298  0  0.930583  0
H  H9  1  0.37149501  0.53772350  0.81502333  1  0.660984  0  0.327741  0.423317  0  0.866232  0
H  H10  1  0.99046038  0.54631002  0.83292379  1  0.622043  0  0.339541  0.432182  0  0.842166  0
H  H11  1  0.07382288  0.60936535  0.83285223  1  0.65319  0  0.29301  0.378603  0  0.964741  0
H  H12  1  0.80413367  0.59782577  0.74080121  1  0.648731  0  0.300635  0.401931  0  0.927291  0
H  H13  1  0.85069492  0.54598722  0.69534281  1  0.628066  0  0.336473  0.435175  0  0.852833  0
H  H14  1  0.92171929  0.57651153  0.59731951  1  0.643988  0  0.308562  0.396217  0  0.930614  0
H  H15  1  0.00320868  0.53234645  0.54834598  1  0.651039  0  0.305676  0.416711  0  0.905473  0
H  H16  1  0.15383892  0.73810984  0.94801795  1  0.65691  0  0.295936  0.405079  0  0.925924  0
H  H17  1  0.18235095  0.73022320  0.87829743  1  0.651526  0  0.296931  0.395941  0  0.93621  0
H  H18  1  0.89107808  0.69180806  0.89024274  1  0.621647  0  0.300452  0.396536  0  0.935146  0
H  H19  1  0.86364206  0.69456310  0.95861370  1  0.643196  0  0.304611  0.406982  0  0.913619  0
H  H20  1  0.55664384  0.63149438  0.86082325  1  0.617333  0  0.292039  0.373365  0  0.967885  0
H  H21  1  0.39256271  0.63919243  0.90805588  1  0.603996  0  0.319968  0.403481  0  0.894442  0
H  H22  1  0.09119975  0.96670998  0.94759407  1  0.656109  0  0.30412  0.412921  0  0.915714  0
H  H23  1  0.12793133  0.89962305  0.91874064  1  0.640688  0  0.328703  0.422304  0  0.879197  0
H  H24  1  0.61331059  0.04187311  0.92328781  1  0.653357  0  0.305967  0.416546  0  0.905023  0
H  H25  1  0.81695548  0.04054096  0.91833657  1  0.626062  0  0.337384  0.428467  0  0.846629  0
H  H26  1  0.43091452  0.36098504  0.75560741  1  0.092859  0  0.108601  0.118716  0  0.993132  0
H  H27  1  0.45908822  0.28688714  0.55794893  1  0.113304  0  0.106514  0.115467  0  1.018773  0
H  H28  1  0.55704303  0.20976338  0.64003814  1  0.101341  0  0.100682  0.11284  0  1.01793  0
H  H29  1  0.63281382  0.23334706  0.87785087  1  0.109792  0  0.103796  0.115165  0  1.014992  0
H  H30  1  0.00675937  0.25412948  0.85593412  1  0.099723  0  0.100214  0.107178  0  1.022711  0
H  H31  1  0.21943693  0.25646534  0.76656398  1  0.097085  0  0.106062  0.112252  0  0.999756  0
H  H32  1  0.67147058  0.71173748  0.56357662  1  0.11246  0  0.113611  0.127219  0  1.00304  0
H  H33  1  0.67155927  0.81769781  0.74387465  1  0.132922  0  0.108205  0.11447  0  1.021035  0
H  H34  1  0.77488090  0.87053475  0.64672310  1  0.09958  0  0.098043  0.111041  0  1.022264  0
H  H35  1  0.02529561  0.73301935  0.58875784  1  0.102931  0  0.108662  0.118989  0  1.006494  0
H  H36  1  0.01309414  0.68533276  0.38329102  1  0.100252  0  0.107409  0.115303  0  0.99165  0
H  H37  1  0.84740258  0.78692610  0.41619595  1  0.100484  0  0.098911  0.11004  0  1.014527  0
H  H38  1  0.35557862  0.90334739  0.78409444  1  0.116924  0  0.113163  0.12381  0  1.005659  0
H  H39  1  0.16252349  0.12444455  0.83828250  1  0.091659  0  0.101747  0.106402  0  1.020997  0
H  H40  1  0.09886555  0.09720864  0.74319640  1  0.083088  0  0.100804  0.110666  0  1.015176  0
H  H41  1  0.96681747  0.93277525  0.79188022  1  0.121026  0  0.11033  0.122949  0  1.008703  0
H  H42  1  0.24075005  0.75231316  0.67812678  1  0.144347  0  0.109771  0.117652  0  1.02033  0
H  H43  1  0.30026726  0.86113520  0.64111880  1  0.113864  0  0.100691  0.113031  0  1.012566  0
H  H44  1  0.50258297  0.41736046  0.22266032  1  0.652404  0  0.302461  0.401271  0  0.930615  0
H  H45  1  0.62848815  0.46228133  0.18497139  1  0.660971  0  0.327831  0.423357  0  0.866152  0
H  H46  1  0.00955077  0.45368617  0.16707766  1  0.622034  0  0.339495  0.432159  0  0.842194  0
H  H47  1  0.92616637  0.39063421  0.16715071  1  0.653175  0  0.292994  0.378598  0  0.964738  0
H  H48  1  0.19587724  0.40217714  0.25920382  1  0.648726  0  0.300677  0.402028  0  0.927164  0
H  H49  1  0.14929364  0.45402911  0.30464768  1  0.628439  0  0.336479  0.435176  0  0.852802  0
H  H50  1  0.07831095  0.42348175  0.40266741  1  0.643608  0  0.308684  0.396291  0  0.930464  0
H  H51  1  0.99681612  0.46765068  0.45164380  1  0.651266  0  0.305761  0.41691  0  0.905215  0
H  H52  1  0.84615661  0.26190218  0.05198059  1  0.656872  0  0.295956  0.405072  0  0.925926  0
H  H53  1  0.81763310  0.26978260  0.12170239  1  0.651546  0  0.296923  0.395914  0  0.936252  0
H  H54  1  0.10890975  0.30819486  0.10975855  1  0.621483  0  0.300469  0.3965  0  0.935165  0
H  H55  1  0.13634139  0.30544413  0.04138554  1  0.643175  0  0.304593  0.406856  0  0.913809  0
H  H56  1  0.44334049  0.36850471  0.13918215  1  0.617216  0  0.29213  0.373457  0  0.967699  0
H  H57  1  0.60742277  0.36081002  0.09194776  1  0.604135  0  0.319899  0.403354  0  0.894623  0
H  H58  1  0.90880661  0.03329149  0.05240435  1  0.656101  0  0.304101  0.412893  0  0.915765  0
H  H59  1  0.87206274  0.10038321  0.08124949  1  0.640628  0  0.328719  0.422245  0  0.879233  0
H  H60  1  0.38668250  0.95812645  0.07671277  1  0.653421  0  0.305976  0.416593  0  0.90496  0
H  H61  1  0.18303246  0.95946484  0.08167311  1  0.626079  0  0.337464  0.428564  0  0.846562  0
H  H62  1  0.56908685  0.63901307  0.24439164  1  0.092779  0  0.108567  0.118699  0  0.993194  0
H  H63  1  0.54092261  0.71311289  0.44205383  1  0.113607  0  0.106472  0.115367  0  1.018856  0
H  H64  1  0.44296631  0.79023713  0.35996419  1  0.100988  0  0.100668  0.112786  0  1.017926  0
H  H65  1  0.36717444  0.76666401  0.12215468  1  0.109795  0  0.103776  0.115133  0  1.015029  0
H  H66  1  0.99323277  0.74586624  0.14406913  1  0.099782  0  0.100218  0.107221  0  1.022678  0
H  H67  1  0.78055056  0.74353231  0.23343838  1  0.096897  0  0.106077  0.112301  0  0.999837  0
H  H68  1  0.32856773  0.28825199  0.43642349  1  0.111699  0  0.113615  0.127148  0  1.003198  0
H  H69  1  0.32843455  0.18230606  0.25612013  1  0.132804  0  0.108212  0.114482  0  1.02094  0
H  H70  1  0.22509745  0.12946625  0.35326881  1  0.099531  0  0.098014  0.111053  0  1.022182  0
H  H71  1  0.97471620  0.26697828  0.41123729  1  0.102922  0  0.108663  0.11908  0  1.006507  0
H  H72  1  0.98690883  0.31467062  0.61669903  1  0.100637  0  0.107394  0.115329  0  0.991486  0
H  H73  1  0.15259326  0.21307298  0.58380280  1  0.100388  0  0.098985  0.11022  0  1.014586  0
H  H74  1  0.64444911  0.09665502  0.21590070  1  0.116926  0  0.113195  0.123898  0  1.005559  0
H  H75  1  0.83745402  0.87555550  0.16171786  1  0.091716  0  0.101713  0.106394  0  1.020987  0
H  H76  1  0.90110924  0.90278566  0.25680258  1  0.083356  0  0.100838  0.1107  0  1.015174  0
H  H77  1  0.03317459  0.06722670  0.20811749  1  0.121  0  0.110296  0.122914  0  1.008761  0
H  H78  1  0.75927071  0.24768160  0.32188269  1  0.14433  0  0.109789  0.117734  0  1.020395  0
H  H79  1  0.69975693  0.13886050  0.35888603  1  0.113788  0  0.100685  0.113006  0  1.012647  0
C  C80  1  0.56974958  0.23541237  0.75808451  1  0.062184  0  -0.010056  -0.270537  0  3.862648  0
C  C81  1  0.50411170  0.27972176  0.70455573  1  -0.066217  0  -0.016852  0.07977  0  3.968797  0
C  C82  1  0.44258592  0.34425465  0.71195517  1  0.020312  0  -0.080325  -0.14143  0  3.912147  0
C  C83  1  0.39830784  0.38897197  0.66399930  1  0.042167  0  0.008238  -0.004717  0  3.877661  0
C  C84  1  0.40525145  0.36787150  0.60777005  1  -0.012776  0  0.004332  -0.026449  0  3.900761  0
C  C85  1  0.45656410  0.30272943  0.60143781  1  0.000363  0  -0.076303  -0.076735  0  3.963611  0
C  C86  1  0.51029134  0.25920290  0.64841881  1  -0.081071  0  -0.092418  -0.131133  0  3.977705  0
C  C87  1  0.34036888  0.45684005  0.67806060  1  1.558275  0  0.22196  0.635044  0  4.130984  0
C  C88  1  0.37284943  0.41007346  0.55184022  1  1.57239  0  0.216929  0.623082  0  4.168508  0
C  C89  1  0.44310755  0.24281857  0.81489109  1  -0.018636  0  -0.018047  0.071914  0  3.962452  0
C  C90  1  0.49705669  0.23715933  0.87134902  1  -0.017803  0  -0.080749  -0.129081  0  3.925453  0
C  C91  1  0.37682242  0.23397006  0.92196227  1  0.001328  0  -0.006324  -0.04005  0  3.948428  0
C  C92  1  0.19952383  0.23758817  0.91690703  1  -0.021919  0  0.002944  -0.034174  0  3.923914  0
C  C93  1  0.14436540  0.24826830  0.86051692  1  -0.005322  0  -0.085365  -0.097887  0  3.976191  0
C  C94  1  0.26474863  0.25005371  0.81019408  1  -0.065003  0  -0.080549  -0.105771  0  3.953066  0
C  C95  1  0.43315772  0.22744400  0.98211883  1  1.535364  0  0.210399  0.608558  0  4.1839  0
C  C96  1  0.07157015  0.22828841  0.97123007  1  1.61139  0  0.227012  0.634324  0  4.196585  0
C  C97  1  0.75208228  0.25122858  0.76456642  1  1.701199  0  0.304304  0.676711  0  3.963568  0
C  C98  1  0.59260081  0.16316870  0.74753375  1  1.715888  0  0.301128  0.676242  0  3.972294  0
C  C99  1  0.80056320  0.82191724  0.53448082  1  0.039954  0  -0.00938  -0.272536  0  3.851067  0
C  C100  1  0.73090210  0.79543411  0.59734282  1  -0.01302  0  -0.010855  0.091499  0  3.943498  0
C  C101  1  0.67138308  0.73625311  0.60258563  1  -0.030408  0  -0.079922  -0.139098  0  3.9136  0
C  C102  1  0.61522214  0.70629255  0.65758883  1  -0.035815  0  -0.006072  -0.040506  0  3.939639  0
C  C103  1  0.61635280  0.73551661  0.70924228  1  -0.022838  0  -0.009385  -0.05443  0  3.938712  0
C  C104  1  0.67082366  0.79526821  0.70380526  1  -0.076008  0  -0.075881  -0.069926  0  3.941261  0
C  C105  1  0.72948356  0.82483437  0.64863779  1  0.060816  0  -0.09223  -0.129013  0  3.969988  0
C  C106  1  0.54391476  0.64531629  0.65840442  1  1.610797  0  0.240306  0.661694  0  4.163581  0
C  C107  1  0.57159030  0.70345571  0.76995550  1  1.565886  0  0.235273  0.631693  0  4.136832  0
C  C108  1  0.92003970  0.76646553  0.50562077  1  -0.023799  0  -0.016334  0.086252  0  3.958769  0
C  C109  1  0.02305640  0.72373843  0.54317693  1  -0.034051  0  -0.084167  -0.141815  0  3.940472  0
C  C110  1  0.11575663  0.66666024  0.52479337  1  -0.014581  0  -0.002615  -0.038488  0  3.913924  0
C  C111  1  0.10812247  0.65224070  0.46699153  1  -0.034418  0  -8e-06  -0.021826  0  3.922548  0
C  C112  1  0.01716111  0.69710901  0.42797365  1  0.033824  0  -0.073178  -0.064744  0  3.941109  0
C  C113  1  0.92292572  0.75404873  0.44693162  1  -0.043301  0  -0.089668  -0.130619  0  3.965962  0
C  C114  1  0.21800818  0.62294221  0.56901946  1  1.620134  0  0.244377  0.677071  0  4.122707  0
C  C115  1  0.18007117  0.58693678  0.45030629  1  1.546947  0  0.195681  0.581288  0  4.197583  0
C  C116  1  0.63965029  0.84885037  0.50087875  1  1.717551  0  0.301187  0.677902  0  3.980596  0
C  C117  1  0.90927344  0.87667484  0.53390103  1  1.718112  0  0.298062  0.676283  0  3.979547  0
C  C118  1  0.17886721  0.97496864  0.69969808  1  0.058306  0  -0.012432  -0.275683  0  3.858541  0
C  C119  1  0.22084506  0.99784235  0.75649023  1  -0.071721  0  -0.013288  0.083236  0  3.948997  0
C  C120  1  0.31440446  0.95249768  0.79459579  1  0.031066  0  -0.074646  -0.1155  0  3.912497  0
C  C121  1  0.34927420  0.96745751  0.84885211  1  -0.026054  0  -0.013973  -0.065635  0  3.951987  0
C  C122  1  0.29443094  0.02993861  0.86478121  1  -0.030594  0  -0.001461  -0.021577  0  3.922293  0
C  C123  1  0.20684480  0.07609194  0.82579911  1  -0.007489  0  -0.084435  -0.093249  0  3.954494  0
C  C124  1  0.16990031  0.06031858  0.77203097  1  0.024455  0  -0.084389  -0.106505  0  3.954017  0
C  C125  1  0.42969797  0.91505738  0.89128751  1  1.575284  0  0.237377  0.646811  0  4.165457  0
C  C126  1  0.29417443  0.04591379  0.92654107  1  1.550288  0  0.215283  0.59762  0  4.207665  0
C  C127  1  0.14072806  0.90573466  0.71429690  1  -0.044999  0  -0.011704  0.086564  0  3.946711  0
C  C128  1  0.02792796  0.89396460  0.76576853  1  -0.083027  0  -0.080456  -0.134258  0  3.9237  0
C  C129  1  0.99197713  0.83268160  0.78626889  1  0.059601  0  -0.008147  -0.04959  0  3.932691  0
C  C130  1  0.07239243  0.78058384  0.75493787  1  0.002068  0  -0.003405  -0.041081  0  3.913111  0
C  C131  1  0.17916650  0.79274415  0.70224124  1  -0.061537  0  -0.07471  -0.072228  0  3.91835  0
C  C132  1  0.21372256  0.85446422  0.68181118  1  -0.018204  0  -0.081916  -0.11026  0  3.937677  0
C  C133  1  0.85786999  0.82775993  0.83878613  1  1.608574  0  0.244646  0.670133  0  4.141811  0
C  C134  1  0.06197489  0.71174936  0.77672165  1  1.559264  0  0.235873  0.634291  0  4.138996  0
C  C135  1  0.33900654  0.98175768  0.65302380  1  1.729523  0  0.302609  0.679725  0  3.982285  0
C  C136  1  0.01481833  0.01593952  0.67515152  1  1.725954  0  0.300875  0.676669  0  3.979986  0
C  C137  1  0.43024655  0.76458911  0.24191918  1  0.062296  0  -0.010049  -0.270495  0  3.862507  0
C  C138  1  0.49588180  0.72027684  0.29544799  1  -0.066254  0  -0.016777  0.079869  0  3.968577  0
C  C139  1  0.55741308  0.65574299  0.28804274  1  0.020535  0  -0.080316  -0.141523  0  3.912162  0
C  C140  1  0.60168228  0.61102855  0.33600217  1  0.04195  0  0.008207  -0.004664  0  3.877727  0
C  C141  1  0.59474984  0.63212373  0.39222716  1  -0.012719  0  0.004285  -0.026568  0  3.900536  0
C  C142  1  0.54344336  0.69727252  0.39856575  1  -0.000134  0  -0.076124  -0.076426  0  3.963174  0
C  C143  1  0.48970337  0.74079283  0.35158520  1  -0.080543  0  -0.092446  -0.131135  0  3.977733  0
C  C144  1  0.65961010  0.54315952  0.32193844  1  1.558313  0  0.222186  0.635213  0  4.130894  0
C  C145  1  0.62717096  0.58992512  0.44815877  1  1.572733  0  0.217122  0.623247  0  4.168583  0
C  C146  1  0.55688629  0.75718531  0.18511199  1  -0.019333  0  -0.018083  0.071853  0  3.962392  0
C  C147  1  0.50292859  0.76284359  0.12865500  1  -0.017314  0  -0.080751  -0.129159  0  3.925072  0
C  C148  1  0.62316561  0.76603237  0.07803732  1  0.000268  0  -0.006305  -0.039867  0  3.947801  0
C  C149  1  0.80046595  0.76241618  0.08309269  1  -0.021828  0  0.002916  -0.034355  0  3.923836  0
C  C150  1  0.85562741  0.75172886  0.13948526  1  -0.005259  0  -0.085387  -0.097887  0  3.975762  0
C  C151  1  0.73524804  0.74994345  0.18981054  1  -0.064659  0  -0.08052  -0.10582  0  3.95295  0
C  C152  1  0.56683077  0.77256035  0.01787745  1  1.53565  0  0.210552  0.608619  0  4.183777  0
C  C153  1  0.92841203  0.77171883  0.02877185  1  1.611141  0  0.227064  0.63455  0  4.196338  0
C  C154  1  0.24790457  0.74877674  0.23544205  1  1.701002  0  0.304213  0.676941  0  3.963378  0
C  C155  1  0.40740599  0.83683182  0.25247393  1  1.716196  0  0.301053  0.675999  0  3.972803  0
C  C156  1  0.19945515  0.17807702  0.46551659  1  0.040299  0  -0.009346  -0.27252  0  3.851098  0
C  C157  1  0.26911409  0.20455920  0.40265436  1  -0.0134  0  -0.010915  0.091371  0  3.943633  0
C  C158  1  0.32864526  0.26373876  0.39741465  1  -0.029119  0  -0.079901  -0.138976  0  3.913797  0
C  C159  1  0.38478565  0.29370557  0.34241341  1  -0.035778  0  -0.006138  -0.040638  0  3.939631  0
C  C160  1  0.38365652  0.26448389  0.29075481  1  -0.022691  0  -0.009288  -0.054298  0  3.938343  0
C  C161  1  0.32918586  0.20473181  0.29619013  1  -0.075933  0  -0.075872  -0.070004  0  3.941131  0
C  C162  1  0.27052204  0.17516278  0.35135506  1  0.060711  0  -0.092212  -0.12892  0  3.969602  0
C  C163  1  0.45608452  0.35468375  0.34159537  1  1.610546  0  0.24027  0.661574  0  4.163474  0
C  C164  1  0.42842152  0.29654191  0.23004181  1  1.566009  0  0.235297  0.631878  0  4.136785  0
C  C165  1  0.07996866  0.23353114  0.49437419  1  -0.024199  0  -0.016382  0.086099  0  3.959202  0
C  C166  1  0.97696539  0.27625679  0.45681845  1  -0.033915  0  -0.084261  -0.141924  0  3.940753  0
C  C167  1  0.88424856  0.33333786  0.47519982  1  -0.014936  0  -0.002438  -0.038279  0  3.913491  0
C  C168  1  0.89188232  0.34775837  0.53300331  1  -0.034244  0  5.8e-05  -0.021807  0  3.922399  0
C  C169  1  0.98283920  0.30289148  0.57201162  1  0.033841  0  -0.073325  -0.064893  0  3.941139  0
C  C170  1  0.07709277  0.24594218  0.55306662  1  -0.043251  0  -0.089613  -0.130665  0  3.965714  0
C  C171  1  0.78199565  0.37705302  0.43097370  1  1.620155  0  0.244254  0.676817  0  4.122743  0
C  C172  1  0.81993214  0.41306276  0.54968901  1  1.546984  0  0.195584  0.581336  0  4.197949  0
C  C173  1  0.36036046  0.15114678  0.49912260  1  1.717642  0  0.301169  0.677917  0  3.980516  0
C  C174  1  0.09073913  0.12331800  0.46610074  1  1.71748  0  0.298041  0.676236  0  3.979616  0
C  C175  1  0.82112392  0.02502948  0.30030363  1  0.05822  0  -0.01249  -0.276201  0  3.859026  0
C  C176  1  0.77914033  0.00215722  0.24350938  1  -0.071694  0  -0.013213  0.083473  0  3.94876  0
C  C177  1  0.68559542  0.04750091  0.20540284  1  0.031511  0  -0.074732  -0.115723  0  3.912593  0
C  C178  1  0.65071996  0.03254253  0.15114835  1  -0.026094  0  -0.013946  -0.065464  0  3.951876  0
C  C179  1  0.70555324  0.97006383  0.13521943  1  -0.030427  0  -0.001459  -0.021644  0  3.922186  0
C  C180  1  0.79313210  0.92390955  0.17420068  1  -0.007202  0  -0.084426  -0.093301  0  3.954574  0
C  C181  1  0.83008609  0.93967858  0.22796845  1  0.02354  0  -0.084451  -0.106613  0  3.954165  0
C  C182  1  0.57030611  0.08494649  0.10871247  1  1.575435  0  0.237452  0.64702  0  4.165348  0
C  C183  1  0.70581535  0.95409056  0.07345733  1  1.549715  0  0.215314  0.597773  0  4.207264  0
C  C184  1  0.85927352  0.09426298  0.28570307  1  -0.044978  0  -0.011691  0.08674  0  3.946773  0
C  C185  1  0.97207086  0.10603352  0.23423369  1  -0.083253  0  -0.08049  -0.134324  0  3.923763  0
C  C186  1  0.00803054  0.16731987  0.21373602  1  0.059832  0  -0.008071  -0.049565  0  3.932466  0
C  C187  1  0.92762224  0.21941618  0.24506514  1  0.002417  0  -0.003334  -0.040958  0  3.912985  0
C  C188  1  0.82085177  0.20725348  0.29776801  1  -0.061779  0  -0.074903  -0.07252  0  3.918209  0
C  C189  1  0.78629529  0.14553437  0.31819448  1  -0.017996  0  -0.08185  -0.110216  0  3.937607  0
C  C190  1  0.14212533  0.17224347  0.16121476  1  1.608315  0  0.244781  0.670429  0  4.14125  0
C  C191  1  0.93803211  0.28825068  0.22328477  1  1.559125  0  0.235983  0.634544  0  4.139199  0
C  C192  1  0.66098109  0.01824572  0.34697919  1  1.729307  0  0.302833  0.680394  0  3.981633  0
C  C193  1  0.98517291  0.98405524  0.32484446  1  1.726198  0  0.30086  0.676819  0  3.980192  0
O  O194  1  0.21337624  0.46725136  0.71847049  1  -1.165085  0  -0.394299  -0.629651  0  2.115182  0
O  O195  1  0.41671372  0.50338639  0.65301758  1  -1.187466  0  -0.387824  -0.716783  0  2.3593  0
O  O196  1  0.43648422  0.46244207  0.54105220  1  -1.191189  0  -0.420447  -0.720641  0  2.466924  0
O  O197  1  0.29623094  0.39196346  0.51323308  1  -1.157938  0  -0.356034  -0.602417  0  2.176798  0
O  O198  1  0.35428616  0.19332256  0.02450585  1  -1.211064  0  -0.411924  -0.770155  0  2.463409  0
O  O199  1  0.54799621  0.25792527  0.99345606  1  -1.159843  0  -0.369583  -0.588866  0  2.100019  0
O  O200  1  0.04732216  0.17046442  0.98757629  1  -1.187017  0  -0.418198  -0.690011  0  2.253452  0
O  O201  1  0.99680285  0.27652822  0.99665798  1  -1.177293  0  -0.296547  -0.532778  0  2.143905  0
O  O202  1  0.39088804  0.64443967  0.68401739  1  -1.190789  0  -0.404025  -0.672918  0  2.362914  0
O  O203  1  0.63792282  0.60038686  0.63238874  1  -1.203931  0  -0.379466  -0.656037  0  2.329957  0
O  O204  1  0.49109770  0.73856704  0.80883139  1  -1.198665  0  -0.399002  -0.652918  0  2.305319  0
O  O205  1  0.62168542  0.64260806  0.78126533  1  -1.210117  0  -0.305264  -0.587355  0  2.182349  0
O  O206  1  0.13304240  0.60922113  0.61977255  1  -1.197952  0  -0.415942  -0.698478  0  2.308746  0
O  O207  1  0.37725579  0.60563604  0.55510048  1  -1.201143  0  -0.36901  -0.638774  0  2.334859  0
O  O208  1  0.25226694  0.57751233  0.39851491  1  -1.167771  0  -0.370521  -0.613422  0  2.171374  0
O  O209  1  0.17024228  0.53981499  0.49120888  1  -1.169562  0  -0.364442  -0.616159  0  2.294425  0
O  O210  1  0.41507556  0.85774885  0.88454945  1  -1.189938  0  -0.395026  -0.672701  0  2.292634  0
O  O211  1  0.50008313  0.93153316  0.93263769  1  -1.190333  0  -0.395459  -0.657717  0  2.327178  0
O  O212  1  0.40055197  0.07866639  0.94109297  1  -1.190236  0  -0.353927  -0.630292  0  2.228118  0
O  O213  1  0.16974492  0.03001462  0.96436853  1  -1.184774  0  -0.352867  -0.623625  0  2.270743  0
O  O214  1  0.75569888  0.78745028  0.84048155  1  -1.194155  0  -0.392696  -0.672932  0  2.375054  0
O  O215  1  0.84907210  0.86700048  0.87701579  1  -1.210187  0  -0.420006  -0.68149  0  2.330444  0
O  O216  1  0.05480976  0.67477792  0.73813555  1  -1.19433  0  -0.399988  -0.659614  0  2.313419  0
O  O217  1  0.07141167  0.69188726  0.83187388  1  -1.198941  0  -0.304078  -0.582757  0  2.197617  0
O  O218  1  0.42451426  0.54948570  0.77503033  1  -1.279894  0  -0.624945  -0.82132  0  2.015811  0
O  O219  1  0.09819868  0.56379355  0.82295147  1  -1.266906  0  -0.604883  -0.833631  0  2.008092  0
O  O220  1  0.89843388  0.56469604  0.72511583  1  -1.249644  0  -0.628879  -0.853164  0  2.037382  0
O  O221  1  0.90846773  0.53712388  0.58168403  1  -1.273412  0  -0.638056  -0.855371  0  2.120775  0
O  O222  1  0.23962809  0.74061373  0.91115028  1  -1.303821  0  -0.650674  -0.88467  0  2.083882  0
O  O223  1  0.80364884  0.68749815  0.92520492  1  -1.242422  0  -0.632712  -0.826221  0  1.999269  0
O  O224  1  0.51811135  0.63773169  0.90329924  1  -1.211057  0  -0.621408  -0.806682  0  2.007357  0
O  O225  1  0.03786995  0.93400575  0.93169598  1  -1.265849  0  -0.650006  -0.85655  0  2.12951  0
O  O226  1  0.72829864  0.01400052  0.91802680  1  -1.243743  0  -0.621985  -0.833113  0  2.019623  0
O  O227  1  0.78661786  0.53274581  0.28153250  1  -1.164973  0  -0.394371  -0.629728  0  2.115293  0
O  O228  1  0.58325015  0.49661558  0.34697881  1  -1.187611  0  -0.388013  -0.716939  0  2.359304  0
O  O229  1  0.56353551  0.53755508  0.45895048  1  -1.191417  0  -0.420523  -0.72079  0  2.466765  0
O  O230  1  0.70380182  0.60803606  0.48675648  1  -1.158068  0  -0.356133  -0.602497  0  2.177109  0
O  O231  1  0.64570752  0.80667556  0.97549181  1  -1.211064  0  -0.411937  -0.770129  0  2.463389  0
O  O232  1  0.45198603  0.74208484  0.00654332  1  -1.159881  0  -0.369676  -0.588877  0  2.100121  0
O  O233  1  0.95266452  0.82953514  0.01242414  1  -1.187132  0  -0.418286  -0.690111  0  2.253822  0
O  O234  1  0.00318856  0.72347230  0.00334387  1  -1.176987  0  -0.29657  -0.532935  0  2.143292  0
O  O235  1  0.60912411  0.35555413  0.31598298  1  -1.190822  0  -0.404035  -0.672903  0  2.362579  0
O  O236  1  0.36207630  0.39961652  0.36760367  1  -1.203774  0  -0.37944  -0.655914  0  2.330028  0
O  O237  1  0.50890407  0.26143011  0.19116732  1  -1.198849  0  -0.399034  -0.652954  0  2.305279  0
O  O238  1  0.37832429  0.35739148  0.21872749  1  -1.21014  0  -0.305231  -0.587463  0  2.182368  0
O  O239  1  0.86696549  0.39077362  0.38022135  1  -1.198249  0  -0.415867  -0.698372  0  2.308645  0
O  O240  1  0.62274103  0.39436063  0.44489108  1  -1.201107  0  -0.369004  -0.638684  0  2.334748  0
O  O241  1  0.74772573  0.42248818  0.60148207  1  -1.167794  0  -0.370587  -0.613592  0  2.17141  0
O  O242  1  0.82978169  0.46018120  0.50879241  1  -1.169462  0  -0.364341  -0.616122  0  2.294683  0
O  O243  1  0.58492608  0.14225166  0.11544930  1  -1.190209  0  -0.395  -0.672774  0  2.292812  0
O  O244  1  0.49992673  0.06846303  0.06736076  1  -1.190239  0  -0.395483  -0.657822  0  2.327004  0
O  O245  1  0.59943713  0.92133652  0.05890521  1  -1.189967  0  -0.353901  -0.630356  0  2.227944  0
O  O246  1  0.83024763  0.96998925  0.03562981  1  -1.184646  0  -0.35288  -0.623648  0  2.270616  0
O  O247  1  0.24427566  0.21255983  0.15951383  1  -1.194162  0  -0.392766  -0.673007  0  2.374971  0
O  O248  1  0.15092787  0.13300100  0.12298642  1  -1.21004  0  -0.420067  -0.681651  0  2.330267  0
O  O249  1  0.94522961  0.32521826  0.26187376  1  -1.193963  0  -0.399977  -0.659723  0  2.313471  0
O  O250  1  0.92856366  0.30811808  0.16813688  1  -1.198979  0  -0.304167  -0.582963  0  2.197718  0
O  O251  1  0.57548137  0.45051386  0.22496706  1  -1.279831  0  -0.625054  -0.821353  0  2.015795  0
O  O252  1  0.90180256  0.43620792  0.17704850  1  -1.266899  0  -0.604829  -0.83358  0  2.008085  0
O  O253  1  0.10156850  0.43530878  0.27487845  1  -1.250055  0  -0.628911  -0.853265  0  2.037269  0
O  O254  1  0.09156354  0.46286702  0.41830750  1  -1.273314  0  -0.638247  -0.855565  0  2.120754  0
O  O255  1  0.76036513  0.25939158  0.08884873  1  -1.303828  0  -0.650683  -0.884613  0  2.083796  0
O  O256  1  0.19633522  0.31250764  0.07479490  1  -1.242364  0  -0.632706  -0.82606  0  1.999404  0
O  O257  1  0.48187582  0.36226980  0.09670444  1  -1.211053  0  -0.62147  -0.806612  0  2.007514  0
O  O258  1  0.96212879  0.06599860  0.06830114  1  -1.26578  0  -0.649989  -0.856451  0  2.12953  0
O  O259  1  0.27170112  0.98600143  0.08197361  1  -1.243771  0  -0.622081  -0.833254  0  2.019503  0
F  F260  1  0.85282396  0.25618425  0.71178735  1  -0.618015  0  -0.090225  -0.19484  0  1.336397  0
F  F261  1  0.84425010  0.20510264  0.80075813  1  -0.619489  0  -0.094714  -0.215672  0  1.344355  0
F  F262  1  0.73919167  0.30768011  0.78804779  1  -0.615487  0  -0.088212  -0.190844  0  1.298787  0
F  F263  1  0.72494698  0.14715736  0.70475528  1  -0.613324  0  -0.095753  -0.209509  0  1.382001  0
F  F264  1  0.44558814  0.14921916  0.73035527  1  -0.617266  0  -0.087783  -0.191728  0  1.353185  0
F  F265  1  0.62580064  0.12332349  0.79739735  1  -0.613034  0  -0.100662  -0.202619  0  1.336549  0
F  F266  1  0.55403062  0.80083081  0.49181046  1  -0.621782  0  -0.089207  -0.198483  0  1.334427  0
F  F267  1  0.52312071  0.89016919  0.53229166  1  -0.609851  0  -0.101405  -0.205615  0  1.369635  0
F  F268  1  0.68089742  0.88036473  0.44685624  1  -0.610892  0  -0.09755  -0.205698  0  1.388949  0
F  F269  1  0.98970139  0.89167097  0.47891302  1  -0.610444  0  -0.103295  -0.205478  0  1.331139  0
F  F270  1  0.81269156  0.93164482  0.55188306  1  -0.606714  0  -0.097423  -0.196403  0  1.332995  0
F  F271  1  0.03638003  0.85802179  0.57043968  1  -0.613066  0  -0.09265  -0.199481  0  1.348351  0
F  F272  1  0.38756559  0.04032172  0.65074798  1  -0.60813  0  -0.103544  -0.204817  0  1.354549  0
F  F273  1  0.47797455  0.93784331  0.66810443  1  -0.623929  0  -0.089484  -0.198242  0  1.369419  0
F  F274  1  0.31091696  0.97344679  0.59752719  1  -0.606038  0  -0.093423  -0.192403  0  1.355291  0
F  F275  1  0.03932501  0.07650249  0.65258553  1  -0.610258  0  -0.096212  -0.196608  0  1.345188  0
F  F276  1  0.87914497  0.02122641  0.71885974  1  -0.607992  0  -0.096723  -0.201408  0  1.347772  0
F  F277  1  0.96407649  0.98849631  0.63141368  1  -0.613503  0  -0.099704  -0.202806  0  1.36267  0
F  F278  1  0.14717557  0.74382442  0.28822102  1  -0.618005  0  -0.090246  -0.194976  0  1.33667  0
F  F279  1  0.15572946  0.79490173  0.19924948  1  -0.619506  0  -0.094675  -0.215746  0  1.344235  0
F  F280  1  0.26078508  0.69232187  0.21196679  1  -0.615257  0  -0.088201  -0.190868  0  1.298601  0
F  F281  1  0.27506610  0.85284651  0.29525041  1  -0.613461  0  -0.095653  -0.209393  0  1.382248  0
F  F282  1  0.55443328  0.85076793  0.26965420  1  -0.617279  0  -0.087815  -0.191683  0  1.353443  0
F  F283  1  0.37422891  0.87668085  0.20261189  1  -0.612791  0  -0.100655  -0.20257  0  1.336761  0
F  F284  1  0.44597652  0.19916587  0.50819723  1  -0.621756  0  -0.089234  -0.198492  0  1.334343  0
F  F285  1  0.47689598  0.10982604  0.46771183  1  -0.609952  0  -0.101376  -0.205565  0  1.369637  0
F  F286  1  0.31910429  0.11962955  0.55314499  1  -0.610941  0  -0.09756  -0.205744  0  1.388808  0
F  F287  1  0.01030707  0.10832858  0.52108815  1  -0.6105  0  -0.103251  -0.205457  0  1.331281  0
F  F288  1  0.18730511  0.06834324  0.44812657  1  -0.606032  0  -0.097385  -0.196347  0  1.332877  0
F  F289  1  0.96364224  0.14197535  0.42955807  1  -0.613068  0  -0.092707  -0.199498  0  1.348388  0
F  F290  1  0.61239225  0.95968554  0.34925681  1  -0.608042  0  -0.103665  -0.205007  0  1.354217  0
F  F291  1  0.52203597  0.06216967  0.33189943  1  -0.623999  0  -0.089519  -0.198356  0  1.369325  0
F  F292  1  0.68908254  0.02655276  0.40247527  1  -0.605993  0  -0.093454  -0.192552  0  1.355143  0
F  F293  1  0.96066946  0.92349371  0.34741145  1  -0.610449  0  -0.096182  -0.196601  0  1.345289  0
F  F294  1  0.12083243  0.97877075  0.28113223  1  -0.60805  0  -0.096651  -0.201405  0  1.347987  0
F  F295  1  0.03594009  0.01149604  0.36858185  1  -0.613465  0  -0.099799  -0.202888  0  1.362433  0
