# generated using pymatgen
data_ZnH20C11I2N2O9
_symmetry_space_group_name_H-M   'P 1'
_cell_length_a   7.88671271
_cell_length_b   8.04670662
_cell_length_c   14.50121721
_cell_angle_alpha   89.99931333
_cell_angle_beta   90.00044266
_cell_angle_gamma   90.00051984
_symmetry_Int_Tables_number   1
_chemical_formula_structural   ZnH20C11I2N2O9
_chemical_formula_sum   'Zn2 H40 C22 I4 N4 O18'
_cell_volume   920.27716610
_cell_formula_units_Z   2
loop_
 _symmetry_equiv_pos_site_id
 _symmetry_equiv_pos_as_xyz
  1  'x, y, z'
loop_
 _atom_site_type_symbol
 _atom_site_label
 _atom_site_symmetry_multiplicity
 _atom_site_fract_x
 _atom_site_fract_y
 _atom_site_fract_z
 _atom_site_occupancy
 _atom_site_hle17_bader_spin_density
 _atom_site_hle17_ddec_charge
 _atom_site_hle17_ddec_spin_density
 _atom_site_hle17_ddec_sum_bond_order
 _atom_site_hle17_magmom
 _atom_site_hse06_10hf_bader_spin_density
 _atom_site_hse06_10hf_ddec_charge
 _atom_site_hse06_10hf_ddec_spin_density
 _atom_site_hse06_10hf_ddec_sum_bond_order
 _atom_site_hse06_10hf_magmom
 _atom_site_hse06_bader_spin_density
 _atom_site_hse06_ddec_charge
 _atom_site_hse06_ddec_spin_density
 _atom_site_hse06_ddec_sum_bond_order
 _atom_site_hse06_magmom
 _atom_site_pbe_bader_spin_density
 _atom_site_pbe_cm5_charge
 _atom_site_pbe_ddec_charge
 _atom_site_pbe_ddec_spin_density
 _atom_site_pbe_ddec_sum_bond_order
 _atom_site_pbe_magmom
Zn  Zn0  1  0.43124106  0.72808696  0.49999720  1  0  0.896056  0  1.955728  0  0  0.760255  0  2.39317  0  0  0.809807  0  2.339328  0  0  0.462853  0.725986  0  2.429491  0
Zn  Zn1  1  0.93123334  0.27190673  0.00000243  1  0  0.895988  0  1.955697  0  0  0.760164  0  2.393172  0  0  0.809719  0  2.339335  0  0  0.462838  0.725899  0  2.429483  0
H  H2  1  0.67373450  0.65389384  0.83456849  1  0  0.129896  0  0.930946  0  0  0.137994  0  0.996995  0  0  0.141677  0  0.994091  0  0  0.117341  0.135354  0  0.999159  0
H  H3  1  0.17372889  0.34610415  0.66543508  1  0  0.129902  0  0.930832  0  0  0.137999  0  0.996898  0  0  0.141682  0  0.993993  0  0  0.117332  0.135361  0  0.999067  0
H  H4  1  0.17373414  0.34609902  0.33456975  1  0  0.129944  0  0.930856  0  0  0.13805  0  0.996921  0  0  0.141734  0  0.994016  0  0  0.117348  0.13541  0  0.999088  0
H  H5  1  0.67373988  0.65389361  0.16542535  1  0  0.130002  0  0.930896  0  0  0.138099  0  0.997006  0  0  0.141791  0  0.994104  0  0  0.117336  0.135459  0  0.99917  0
H  H6  1  0.59704321  0.86199099  0.84058920  1  0  0.122866  0  0.928363  0  0  0.130195  0  0.997039  0  0  0.133548  0  0.99472  0  0  0.112053  0.127776  0  0.998799  0
H  H7  1  0.09703561  0.13800755  0.65941542  1  0  0.122821  0  0.928427  0  0  0.130191  0  0.997073  0  0  0.133545  0  0.994754  0  0  0.112075  0.127779  0  0.998818  0
H  H8  1  0.09703461  0.13800602  0.34059046  1  0  0.122926  0  0.928339  0  0  0.130263  0  0.997015  0  0  0.133618  0  0.994695  0  0  0.112112  0.127845  0  0.998777  0
H  H9  1  0.59704851  0.86198964  0.15940293  1  0  0.122779  0  0.928423  0  0  0.130183  0  0.997077  0  0  0.133545  0  0.994757  0  0  0.112043  0.127764  0  0.998839  0
H  H10  1  0.32467350  0.91060535  0.77943222  1  0  0.139462  0  0.927993  0  0  0.148984  0  0.989495  0  0  0.151829  0  0.988082  0  0  0.130108  0.146898  0  0.990627  0
H  H11  1  0.82465710  0.08939400  0.72056577  1  0  0.139388  0  0.927889  0  0  0.14886  0  0.989422  0  0  0.151707  0  0.98801  0  0  0.130073  0.146777  0  0.990552  0
H  H12  1  0.82465397  0.08939751  0.27943866  1  0  0.139466  0  0.927892  0  0  0.148904  0  0.989394  0  0  0.151752  0  0.987979  0  0  0.13008  0.146821  0  0.990527  0
H  H13  1  0.32467586  0.91060019  0.22056465  1  0  0.139411  0  0.927891  0  0  0.14889  0  0.989461  0  0  0.151743  0  0.988044  0  0  0.130077  0.146806  0  0.990595  0
H  H14  1  0.24435161  0.85793256  0.88996984  1  0  0.132235  0  0.922433  0  0  0.142986  0  0.98242  0  0  0.145965  0  0.980392  0  0  0.124006  0.140773  0  0.984075  0
H  H15  1  0.74434426  0.14206855  0.61002367  1  0  0.132174  0  0.922468  0  0  0.142899  0  0.982427  0  0  0.145882  0  0.980401  0  0  0.123959  0.140687  0  0.984082  0
H  H16  1  0.74434777  0.14207093  0.38997939  1  0  0.13228  0  0.922489  0  0  0.142931  0  0.982456  0  0  0.145905  0  0.98043  0  0  0.123977  0.140718  0  0.984112  0
H  H17  1  0.24435493  0.85793103  0.11002704  1  0  0.132281  0  0.922457  0  0  0.14302  0  0.98243  0  0  0.145999  0  0.980401  0  0  0.124028  0.140808  0  0.984086  0
H  H18  1  0.47891281  0.46807954  0.90565997  1  0  0.097577  0  0.932179  0  0  0.10526  0  1.002569  0  0  0.107403  0  1.001323  0  0  0.109322  0.103613  0  1.003589  0
H  H19  1  0.97892276  0.53191498  0.59434005  1  0  0.097493  0  0.932201  0  0  0.105226  0  1.002613  0  0  0.107369  0  1.001366  0  0  0.109298  0.103593  0  1.003623  0
H  H20  1  0.97892522  0.53191453  0.40566002  1  0  0.097462  0  0.932246  0  0  0.105198  0  1.002656  0  0  0.10734  0  1.001408  0  0  0.109279  0.103547  0  1.003684  0
H  H21  1  0.47891337  0.46807959  0.09434187  1  0  0.097494  0  0.932206  0  0  0.10519  0  1.002592  0  0  0.107334  0  1.001345  0  0  0.109325  0.103537  0  1.003616  0
H  H22  1  0.26372342  0.53288754  0.91968709  1  0  0.082015  0  0.953675  0  0  0.09177  0  1.02391  0  0  0.093345  0  1.023381  0  0  0.100693  0.090524  0  1.024401  0
H  H23  1  0.76373258  0.46711374  0.58030788  1  0  0.082025  0  0.953559  0  0  0.091778  0  1.023862  0  0  0.093351  0  1.023331  0  0  0.100685  0.090525  0  1.024374  0
H  H24  1  0.76373397  0.46711299  0.41968895  1  0  0.082011  0  0.953579  0  0  0.091778  0  1.023859  0  0  0.093353  0  1.023329  0  0  0.100699  0.090526  0  1.02437  0
H  H25  1  0.26372379  0.53288790  0.08031411  1  0  0.081964  0  0.953699  0  0  0.091736  0  1.023927  0  0  0.093306  0  1.023411  0  0  0.100713  0.090491  0  1.024418  0
H  H26  1  0.37608253  0.79576491  0.99999833  1  0  0.073561  0  0.964657  0  0  0.087836  0  1.030538  0  0  0.089148  0  1.02991  0  0  0.089885  0.086797  0  1.031173  0
H  H27  1  0.87608053  0.20423117  0.50000194  1  0  0.073557  0  0.964623  0  0  0.087771  0  1.030556  0  0  0.089077  0  1.029929  0  0  0.089912  0.086733  0  1.031189  0
H  H28  1  0.58024448  0.70397797  0.99999907  1  0  0.082767  0  0.984717  0  0  0.094116  0  1.055754  0  0  0.095791  0  1.055838  0  0  0.0799  0.092799  0  1.055885  0
H  H29  1  0.08024620  0.29601172  0.50000273  1  0  0.082733  0  0.984726  0  0  0.094098  0  1.055698  0  0  0.095768  0  1.055802  0  0  0.079881  0.09279  0  1.05581  0
H  H30  1  0.37691305  0.59414946  0.77426485  1  0  0.286845  0  0.840518  0  0  0.267407  0  0.904385  0  0  0.275855  0  0.89707  0  0  0.327923  0.261314  0  0.909761  0
H  H31  1  0.87690723  0.40585160  0.72573336  1  0  0.286886  0  0.840464  0  0  0.267429  0  0.904326  0  0  0.275873  0  0.897019  0  0  0.327945  0.26134  0  0.909698  0
H  H32  1  0.87691543  0.40585274  0.27426643  1  0  0.286816  0  0.840486  0  0  0.267361  0  0.904383  0  0  0.275807  0  0.89707  0  0  0.327927  0.26127  0  0.909756  0
H  H33  1  0.37692563  0.59414792  0.22573504  1  0  0.286789  0  0.840526  0  0  0.267366  0  0.904409  0  0  0.27582  0  0.897082  0  0  0.327916  0.261273  0  0.909786  0
H  H34  1  0.71753234  0.83462190  0.55691680  1  0  0.4164  0  0.890627  0  0  0.382728  0  0.958988  0  0  0.394496  0  0.942041  0  0  0.285322  0.374432  0  0.970908  0
H  H35  1  0.21752141  0.16537524  0.94308557  1  0  0.416369  0  0.890728  0  0  0.382726  0  0.959037  0  0  0.394491  0  0.942089  0  0  0.285333  0.374429  0  0.970959  0
H  H36  1  0.21752525  0.16537237  0.05691927  1  0  0.416343  0  0.890724  0  0  0.382692  0  0.959047  0  0  0.39446  0  0.942094  0  0  0.285331  0.374396  0  0.970963  0
H  H37  1  0.71753787  0.83462313  0.44308084  1  0  0.416364  0  0.890642  0  0  0.382692  0  0.959036  0  0  0.394475  0  0.942071  0  0  0.285299  0.374389  0  0.970969  0
H  H38  1  0.89321124  0.81708944  0.72951033  1  0  0.403288  0  0.897679  0  0  0.367268  0  0.9822  0  0  0.380549  0  0.965427  0  0  0.297577  0.35799  0  0.991625  0
H  H39  1  0.39320690  0.18292420  0.77048657  1  0  0.403203  0  0.89784  0  0  0.3672  0  0.982343  0  0  0.38048  0  0.965536  0  0  0.297577  0.357931  0  0.991754  0
H  H40  1  0.39320178  0.18292506  0.22951681  1  0  0.403179  0  0.897956  0  0  0.367179  0  0.982431  0  0  0.380464  0  0.965579  0  0  0.29753  0.357904  0  0.991843  0
H  H41  1  0.89322192  0.81708196  0.27048265  1  0  0.403119  0  0.897971  0  0  0.367161  0  0.982395  0  0  0.380459  0  0.96557  0  0  0.29755  0.357888  0  0.991814  0
C  C42  1  0.57978554  0.74085601  0.80667172  1  0  -0.173322  0  3.506737  0  0  -0.230137  0  3.749704  0  0  -0.232083  0  3.753701  0  0  -0.064513  -0.228886  0  3.747222  0
C  C43  1  0.07977827  0.25914362  0.69333076  1  0  -0.17331  0  3.506507  0  0  -0.23025  0  3.749651  0  0  -0.232202  0  3.753646  0  0  -0.064584  -0.228994  0  3.747187  0
C  C44  1  0.07978185  0.25914282  0.30667149  1  0  -0.173463  0  3.50679  0  0  -0.230365  0  3.749866  0  0  -0.232318  0  3.753865  0  0  -0.064633  -0.229113  0  3.747389  0
C  C45  1  0.57979766  0.74085393  0.19332597  1  0  -0.17324  0  3.506668  0  0  -0.230171  0  3.74961  0  0  -0.232152  0  3.753648  0  0  -0.064387  -0.228915  0  3.747128  0
C  C46  1  0.59802694  0.75554024  0.70223772  1  0  0.701349  0  3.823902  0  0  0.64724  0  4.128103  0  0  0.682004  0  4.119628  0  0  0.220456  0.623678  0  4.133144  0
C  C47  1  0.09800834  0.24446452  0.79776897  1  0  0.701593  0  3.823568  0  0  0.647564  0  4.12768  0  0  0.682337  0  4.119184  0  0  0.220698  0.62397  0  4.132762  0
C  C48  1  0.09802185  0.24445603  0.20224104  1  0  0.70125  0  3.82399  0  0  0.647245  0  4.128065  0  0  0.682017  0  4.119583  0  0  0.220503  0.623677  0  4.133111  0
C  C49  1  0.59805703  0.75554336  0.29775788  1  0  0.70092  0  3.82427  0  0  0.647045  0  4.128313  0  0  0.681854  0  4.119811  0  0  0.220318  0.623476  0  4.133355  0
C  C50  1  0.27434438  0.80914826  0.82136272  1  0  -0.18027  0  3.529392  0  0  -0.23751  0  3.770881  0  0  -0.239588  0  3.776042  0  0  -0.061078  -0.236041  0  3.767433  0
C  C51  1  0.77434100  0.19085437  0.67863299  1  0  -0.180049  0  3.529184  0  0  -0.237069  0  3.770368  0  0  -0.23916  0  3.775542  0  0  -0.060985  -0.235602  0  3.766917  0
C  C52  1  0.77433719  0.19085449  0.32137056  1  0  -0.180359  0  3.529414  0  0  -0.237107  0  3.77035  0  0  -0.239184  0  3.775504  0  0  -0.060982  -0.23564  0  3.766899  0
C  C53  1  0.27434995  0.80914773  0.17863116  1  0  -0.180293  0  3.529056  0  0  -0.237435  0  3.770445  0  0  -0.239523  0  3.775598  0  0  -0.061091  -0.235968  0  3.767  0
C  C54  1  0.11597992  0.74296941  0.77535958  1  0  0.698899  0  3.811043  0  0  0.64332  0  4.129214  0  0  0.676894  0  4.118806  0  0  0.230817  0.620448  0  4.135818  0
C  C55  1  0.61597019  0.25705167  0.72463961  1  0  0.698569  0  3.811449  0  0  0.642977  0  4.129621  0  0  0.676547  0  4.119219  0  0  0.230789  0.620106  0  4.136222  0
C  C56  1  0.61596953  0.25705652  0.27536491  1  0  0.698758  0  3.811352  0  0  0.642994  0  4.12969  0  0  0.676567  0  4.119286  0  0  0.230794  0.620123  0  4.136294  0
C  C57  1  0.11597854  0.74295050  0.22463891  1  0  0.698759  0  3.811449  0  0  0.64312  0  4.129706  0  0  0.676694  0  4.119297  0  0  0.23074  0.620251  0  4.136313  0
C  C58  1  0.39568097  0.57600644  0.91526967  1  0  -0.002692  0  3.512811  0  0  -0.057497  0  3.761013  0  0  -0.05474  0  3.771622  0  0  -0.064054  -0.059165  0  3.753727  0
C  C59  1  0.89568853  0.42399230  0.58472655  1  0  -0.002488  0  3.512616  0  0  -0.057497  0  3.761126  0  0  -0.054733  0  3.771731  0  0  -0.064058  -0.059176  0  3.753839  0
C  C60  1  0.89569113  0.42399040  0.41527457  1  0  -0.002516  0  3.512484  0  0  -0.057556  0  3.761042  0  0  -0.054792  0  3.771644  0  0  -0.06404  -0.059221  0  3.753757  0
C  C61  1  0.39568394  0.57600546  0.08472766  1  0  -0.002445  0  3.512806  0  0  -0.057315  0  3.761096  0  0  -0.05456  0  3.771706  0  0  -0.063979  -0.058976  0  3.753817  0
C  C62  1  0.44372233  0.67626291  0.99999887  1  0  -0.158919  0  3.683358  0  0  -0.19813  0  3.932348  0  0  -0.201342  0  3.947407  0  0  -0.174236  -0.195732  0  3.921922  0
C  C63  1  0.94372523  0.32373129  0.50000169  1  0  -0.158833  0  3.683369  0  0  -0.197891  0  3.93245  0  0  -0.201099  0  3.947491  0  0  -0.174179  -0.195496  0  3.922027  0
I  I64  1  0.42639344  0.40165899  0.49999965  1  0  -0.487649  0  1.042547  0  0  -0.438262  0  1.359002  0  0  -0.458111  0  1.334733  0  0  -0.218182  -0.424191  0  1.375498  0
I  I65  1  0.92639709  0.59833879  0.00000014  1  0  -0.487653  0  1.042538  0  0  -0.438289  0  1.35904  0  0  -0.458137  0  1.334767  0  0  -0.218194  -0.424226  0  1.375531  0
I  I66  1  0.14053508  0.87821292  0.49999885  1  0  -0.494889  0  0.946564  0  0  -0.43959  0  1.245369  0  0  -0.458225  0  1.219378  0  0  -0.248548  -0.426447  0  1.263107  0
I  I67  1  0.64051964  0.12179059  0.00000025  1  0  -0.494838  0  0.946566  0  0  -0.439529  0  1.245366  0  0  -0.458159  0  1.219377  0  0  -0.248492  -0.426389  0  1.2631  0
N  N68  1  0.40591194  0.67571904  0.82771739  1  0  -0.043578  0  3.368355  0  0  0.038517  0  3.574829  0  0  0.027595  0  3.59212  0  0  -0.342068  0.045953  0  3.563041  0
N  N69  1  0.90591095  0.32428104  0.67228301  1  0  -0.043763  0  3.368289  0  0  0.03838  0  3.574765  0  0  0.02746  0  3.592052  0  0  -0.342082  0.045816  0  3.562979  0
N  N70  1  0.90591484  0.32427854  0.32771814  1  0  -0.043581  0  3.368085  0  0  0.038495  0  3.574538  0  0  0.027577  0  3.591826  0  0  -0.34212  0.045933  0  3.56275  0
N  N71  1  0.40592249  0.67571616  0.17227793  1  0  -0.043659  0  3.368048  0  0  0.038439  0  3.574599  0  0  0.027531  0  3.591883  0  0  -0.342293  0.045874  0  3.562815  0
O  O72  1  0.65322898  0.86539383  0.50000065  1  0  -0.805437  0  1.967961  0  0  -0.73984  0  2.1759  0  0  -0.762876  0  2.138193  0  0  -0.579537  -0.723663  0  2.201903  0
O  O73  1  0.15322162  0.13459737  0.00000263  1  0  -0.805366  0  1.968122  0  0  -0.739816  0  2.176101  0  0  -0.762874  0  2.138485  0  0  -0.579609  -0.723647  0  2.202099  0
O  O74  1  0.46747274  0.73248975  0.65433051  1  0  -0.606885  0  2.069801  0  0  -0.548159  0  2.324374  0  0  -0.576002  0  2.31498  0  0  -0.304859  -0.528908  0  2.330228  0
O  O75  1  0.96747116  0.26750094  0.84566946  1  0  -0.606893  0  2.070198  0  0  -0.548159  0  2.324727  0  0  -0.575999  0  2.315323  0  0  -0.304883  -0.5289  0  2.330598  0
O  O76  1  0.96746624  0.26750218  0.15433094  1  0  -0.606828  0  2.069812  0  0  -0.548088  0  2.324313  0  0  -0.575931  0  2.314914  0  0  -0.304848  -0.528836  0  2.330173  0
O  O77  1  0.46746674  0.73249184  0.34566677  1  0  -0.606942  0  2.069456  0  0  -0.548219  0  2.323892  0  0  -0.576064  0  2.314473  0  0  -0.304876  -0.52896  0  2.329749  0
O  O78  1  0.74599347  0.78959120  0.67086331  1  0  -0.632404  0  2.043333  0  0  -0.564673  0  2.266065  0  0  -0.591945  0  2.25519  0  0  -0.308829  -0.545744  0  2.272502  0
O  O79  1  0.24599909  0.21042235  0.82914125  1  0  -0.63254  0  2.042707  0  0  -0.564912  0  2.265481  0  0  -0.592183  0  2.254586  0  0  -0.30901  -0.545974  0  2.271929  0
O  O80  1  0.24599060  0.21041578  0.17086409  1  0  -0.632267  0  2.043174  0  0  -0.564631  0  2.265862  0  0  -0.591917  0  2.25498  0  0  -0.308854  -0.545694  0  2.272291  0
O  O81  1  0.74598977  0.78958370  0.32912993  1  0  -0.63177  0  2.043699  0  0  -0.564336  0  2.266548  0  0  -0.591713  0  2.255735  0  0  -0.308704  -0.545393  0  2.272981  0
O  O82  1  0.10542968  0.59834776  0.74821956  1  0  -0.566334  0  1.975767  0  0  -0.524179  0  2.211479  0  0  -0.54562  0  2.202607  0  0  -0.286215  -0.509446  0  2.217346  0
O  O83  1  0.60542927  0.40165459  0.75177407  1  0  -0.566121  0  1.976496  0  0  -0.523954  0  2.212188  0  0  -0.545395  0  2.20333  0  0  -0.286087  -0.509223  0  2.21805  0
O  O84  1  0.60542695  0.40166126  0.24823082  1  0  -0.566172  0  1.976212  0  0  -0.523992  0  2.212007  0  0  -0.545428  0  2.203134  0  0  -0.286142  -0.509263  0  2.217873  0
O  O85  1  0.10544136  0.59834814  0.25177709  1  0  -0.566073  0  1.976327  0  0  -0.523968  0  2.212147  0  0  -0.5454  0  2.203263  0  0  -0.28605  -0.509237  0  2.218012  0
O  O86  1  0.99942325  0.85863942  0.76739551  1  0  -0.558122  0  2.103846  0  0  -0.504704  0  2.33356  0  0  -0.528268  0  2.317513  0  0  -0.330046  -0.488339  0  2.342577  0
O  O87  1  0.49940404  0.14136149  0.73259770  1  0  -0.558015  0  2.103761  0  0  -0.504623  0  2.333486  0  0  -0.528185  0  2.317413  0  0  -0.330144  -0.488265  0  2.3425  0
O  O88  1  0.49940834  0.14136154  0.26740916  1  0  -0.558098  0  2.103998  0  0  -0.504653  0  2.33373  0  0  -0.528219  0  2.317626  0  0  -0.330042  -0.488286  0  2.342744  0
O  O89  1  0.99942452  0.85863152  0.23259764  1  0  -0.558159  0  2.104121  0  0  -0.504662  0  2.333724  0  0  -0.528213  0  2.317623  0  0  -0.330059  -0.488302  0  2.342743  0
