# generated using pymatgen
data_CdH20C22(NO)4
_symmetry_space_group_name_H-M   'P 1'
_cell_length_a   8.54658909
_cell_length_b   10.32750111
_cell_length_c   11.65428239
_cell_angle_alpha   85.68680692
_cell_angle_beta   88.13136880
_cell_angle_gamma   85.59743172
_symmetry_Int_Tables_number   1
_chemical_formula_structural   CdH20C22(NO)4
_chemical_formula_sum   'Cd2 H40 C44 N8 O8'
_cell_volume   1022.35156709
_cell_formula_units_Z   2
loop_
 _symmetry_equiv_pos_site_id
 _symmetry_equiv_pos_as_xyz
  1  'x, y, z'
loop_
 _atom_site_type_symbol
 _atom_site_label
 _atom_site_symmetry_multiplicity
 _atom_site_fract_x
 _atom_site_fract_y
 _atom_site_fract_z
 _atom_site_occupancy
 _atom_site_hle17_bader_spin_density
 _atom_site_hle17_ddec_charge
 _atom_site_hle17_ddec_spin_density
 _atom_site_hle17_ddec_sum_bond_order
 _atom_site_hle17_magmom
 _atom_site_hse06_10hf_bader_spin_density
 _atom_site_hse06_10hf_ddec_charge
 _atom_site_hse06_10hf_ddec_spin_density
 _atom_site_hse06_10hf_ddec_sum_bond_order
 _atom_site_hse06_10hf_magmom
 _atom_site_hse06_bader_spin_density
 _atom_site_hse06_ddec_charge
 _atom_site_hse06_ddec_spin_density
 _atom_site_hse06_ddec_sum_bond_order
 _atom_site_hse06_magmom
 _atom_site_pbe_bader_spin_density
 _atom_site_pbe_cm5_charge
 _atom_site_pbe_ddec_charge
 _atom_site_pbe_ddec_spin_density
 _atom_site_pbe_ddec_sum_bond_order
 _atom_site_pbe_magmom
Cd  Cd0  1  0.74901069  0.76070816  0.26048388  1  0  1.082435  0  1.72315  0  0  0.888191  0  2.181739  0  0  0.946392  0  2.129816  0  0  0.764497  0.847219  0  2.21684  0
Cd  Cd1  1  0.25098924  0.23929331  0.73951508  1  0  1.082449  0  1.72314  0  0  0.888205  0  2.181728  0  0  0.946406  0  2.129804  0  0  0.764504  0.847233  0  2.21683  0
H  H2  1  0.51321046  0.50681364  0.23079525  1  0  0.095398  0  0.927691  0  0  0.110544  0  0.982989  0  0  0.112459  0  0.980376  0  0  0.142546  0.109097  0  0.984832  0
H  H3  1  0.48679101  0.49318391  0.76920561  1  0  0.095398  0  0.927715  0  0  0.110543  0  0.983004  0  0  0.112455  0  0.980397  0  0  0.14256  0.109096  0  0.984847  0
H  H4  1  0.13902734  0.55080904  0.57367765  1  0  0.119149  0  0.960894  0  0  0.129435  0  1.021451  0  0  0.132868  0  1.01909  0  0  0.108568  0.126934  0  1.023256  0
H  H5  1  0.86097396  0.44919046  0.42632310  1  0  0.119162  0  0.960875  0  0  0.12945  0  1.021429  0  0  0.132884  0  1.019065  0  0  0.108565  0.12695  0  1.023233  0
H  H6  1  0.16791972  0.73094389  0.69915074  1  0  0.085696  0  0.965326  0  0  0.097416  0  1.024841  0  0  0.099913  0  1.024526  0  0  0.097492  0.095601  0  1.025194  0
H  H7  1  0.83207906  0.26905756  0.30084997  1  0  0.085697  0  0.96538  0  0  0.097428  0  1.024878  0  0  0.099926  0  1.024564  0  0  0.097489  0.095614  0  1.02523  0
H  H8  1  0.36381238  0.89184268  0.65432319  1  0  0.088205  0  0.974727  0  0  0.096569  0  1.039242  0  0  0.098582  0  1.039766  0  0  0.095532  0.095152  0  1.038883  0
H  H9  1  0.63618749  0.10815973  0.34567829  1  0  0.088235  0  0.974741  0  0  0.096599  0  1.039248  0  0  0.098613  0  1.039771  0  0  0.09555  0.095183  0  1.038889  0
H  H10  1  0.55293303  0.87097623  0.48642359  1  0  0.116034  0  0.959807  0  0  0.126332  0  1.020619  0  0  0.129769  0  1.018739  0  0  0.104847  0.123731  0  1.022301  0
H  H11  1  0.44706603  0.12902228  0.51357899  1  0  0.115975  0  0.959867  0  0  0.126286  0  1.020666  0  0  0.129714  0  1.018802  0  0  0.104818  0.123684  0  1.022348  0
H  H12  1  0.12594260  0.46090995  0.34903240  1  0  0.088939  0  0.937352  0  0  0.104862  0  0.99757  0  0  0.105917  0  0.996726  0  0  0.110461  0.103935  0  0.998394  0
H  H13  1  0.87405508  0.53909054  0.65096667  1  0  0.088943  0  0.937421  0  0  0.104882  0  0.997622  0  0  0.105935  0  0.996783  0  0  0.110478  0.103956  0  0.998445  0
H  H14  1  0.25141445  0.35444330  0.43961750  1  0  0.086993  0  0.931047  0  0  0.101383  0  0.995829  0  0  0.101989  0  0.995929  0  0  0.11032  0.100922  0  0.995739  0
H  H15  1  0.74858079  0.64555817  0.56038073  1  0  0.087038  0  0.931174  0  0  0.101437  0  0.995936  0  0  0.102043  0  0.996037  0  0  0.110378  0.100976  0  0.995845  0
H  H16  1  0.42144546  0.30659042  0.26225685  1  0  0.061885  0  0.970936  0  0  0.075378  0  1.042597  0  0  0.075504  0  1.044722  0  0  0.087695  0.075211  0  1.041223  0
H  H17  1  0.57855585  0.69340907  0.73774561  1  0  0.061844  0  0.970989  0  0  0.075359  0  1.042619  0  0  0.075486  0  1.044741  0  0  0.087697  0.075194  0  1.041243  0
H  H18  1  0.28075758  0.40134635  0.17627834  1  0  0.061423  0  0.942032  0  0  0.079978  0  1.00683  0  0  0.080228  0  1.00733  0  0  0.089412  0.079661  0  1.006651  0
H  H19  1  0.71924379  0.59865219  0.82372161  1  0  0.061484  0  0.942018  0  0  0.08001  0  1.006845  0  0  0.080258  0  1.007346  0  0  0.089444  0.079693  0  1.006666  0
H  H20  1  0.21578866  0.16176289  0.33838333  1  0  0.079158  0  0.94826  0  0  0.095982  0  1.011077  0  0  0.09723  0  1.011016  0  0  0.094373  0.095015  0  1.011181  0
H  H21  1  0.78421391  0.83823562  0.66161830  1  0  0.079157  0  0.948171  0  0  0.095976  0  1.010999  0  0  0.097224  0  1.01094  0  0  0.094375  0.095011  0  1.011104  0
H  H22  1  0.07338443  0.25428229  0.25643568  1  0  0.075357  0  0.941811  0  0  0.096892  0  0.997682  0  0  0.09721  0  0.998559  0  0  0.096782  0.096546  0  0.997204  0
H  H23  1  0.92661679  0.74571817  0.74356673  1  0  0.075335  0  0.941823  0  0  0.096904  0  0.997655  0  0  0.09722  0  0.998535  0  0  0.096804  0.096557  0  0.997178  0
H  H24  1  0.15667888  0.05671541  0.16201766  1  0  0.085476  0  0.933531  0  0  0.098137  0  1.002545  0  0  0.099175  0  1.002112  0  0  0.11116  0.097277  0  1.002947  0
H  H25  1  0.84331989  0.94328605  0.83798219  1  0  0.085463  0  0.933537  0  0  0.098117  0  1.002557  0  0  0.099156  0  1.002125  0  0  0.111158  0.097257  0  1.002959  0
H  H26  1  0.20939528  0.19539008  0.07269353  1  0  0.092999  0  0.949931  0  0  0.107099  0  1.014995  0  0  0.108819  0  1.013613  0  0  0.110439  0.105746  0  1.016097  0
H  H27  1  0.79060341  0.80461234  0.92730712  1  0  0.092967  0  0.949882  0  0  0.107062  0  1.014947  0  0  0.108783  0  1.013565  0  0  0.110431  0.105709  0  1.016048  0
H  H28  1  0.37019537  0.90417683  0.25216796  1  0  0.101817  0  0.925979  0  0  0.11211  0  0.988102  0  0  0.114635  0  0.984861  0  0  0.14059  0.110192  0  0.990473  0
H  H29  1  0.62980349  0.09582365  0.74783194  1  0  0.101831  0  0.925959  0  0  0.112113  0  0.988094  0  0  0.114635  0  0.984855  0  0  0.140598  0.110195  0  0.990465  0
H  H30  1  0.43650568  0.31553702  0.99710938  1  0  0.113366  0  0.967918  0  0  0.122121  0  1.030914  0  0  0.125776  0  1.02868  0  0  0.102364  0.119517  0  1.032511  0
H  H31  1  0.56349561  0.68446249  0.00289051  1  0  0.113343  0  0.967937  0  0  0.122114  0  1.030903  0  0  0.125772  0  1.02867  0  0  0.102361  0.119511  0  1.032499  0
H  H32  1  0.70631858  0.35706824  0.91930293  1  0  0.080691  0  0.96456  0  0  0.092214  0  1.024829  0  0  0.094425  0  1.024793  0  0  0.093169  0.090563  0  1.024981  0
H  H33  1  0.29367902  0.64293323  0.08069609  1  0  0.080756  0  0.964511  0  0  0.092275  0  1.024781  0  0  0.094488  0  1.024743  0  0  0.093186  0.090625  0  1.024933  0
H  H34  1  0.93392114  0.20362279  0.96492206  1  0  0.095727  0  0.966121  0  0  0.106525  0  1.027593  0  0  0.109003  0  1.027101  0  0  0.098922  0.104726  0  1.028017  0
H  H35  1  0.06607769  0.79637772  0.03507527  1  0  0.095683  0  0.966075  0  0  0.106479  0  1.02757  0  0  0.108957  0  1.027078  0  0  0.098914  0.104679  0  1.027995  0
H  H36  1  0.90370683  0.00087469  0.09531096  1  0  0.112217  0  0.961059  0  0  0.123277  0  1.022612  0  0  0.126099  0  1.021306  0  0  0.105988  0.121245  0  1.023654  0
H  H37  1  0.09629084  0.99912581  0.90468725  1  0  0.1122  0  0.961075  0  0  0.123258  0  1.022636  0  0  0.126079  0  1.021331  0  0  0.105977  0.121225  0  1.023678  0
H  H38  1  0.02717062  0.38763643  0.09328389  1  0  0.113685  0  0.962351  0  0  0.121873  0  1.027508  0  0  0.125314  0  1.026049  0  0  0.107807  0.119426  0  1.028684  0
H  H39  1  0.97282745  0.61236012  0.90671970  1  0  0.113707  0  0.962332  0  0  0.121854  0  1.02752  0  0  0.125291  0  1.026067  0  0  0.107817  0.119407  0  1.028697  0
H  H40  1  0.15858503  0.97872383  0.43497815  1  0  0.108216  0  0.958058  0  0  0.11556  0  1.023354  0  0  0.11901  0  1.021853  0  0  0.10268  0.113067  0  1.024626  0
H  H41  1  0.84141635  0.02127470  0.56502265  1  0  0.108221  0  0.958049  0  0  0.11557  0  1.023336  0  0  0.11902  0  1.021836  0  0  0.102687  0.113077  0  1.024607  0
C  C42  1  0.47035298  0.56039287  0.30333934  1  0  0.206263  0  3.681322  0  0  0.13981  0  3.954866  0  0  0.157902  0  3.965915  0  0  0.159913  0.128057  0  3.946976  0
C  C43  1  0.52964823  0.43960761  0.69666135  1  0  0.206194  0  3.681311  0  0  0.13976  0  3.954848  0  0  0.157852  0  3.965897  0  0  0.159903  0.128007  0  3.946959  0
C  C44  1  0.44651058  0.70130805  0.43363108  1  0  0.141318  0  3.839855  0  0  0.138649  0  4.086625  0  0  0.142471  0  4.110722  0  0  0.081385  0.135965  0  4.070486  0
C  C45  1  0.55349199  0.29869045  0.56637141  1  0  0.141402  0  3.839775  0  0  0.138701  0  4.086576  0  0  0.142521  0  4.110673  0  0  0.081448  0.136016  0  4.070435  0
C  C46  1  0.32849945  0.61311602  0.45721865  1  0  0.10187  0  3.769024  0  0  0.091124  0  4.011148  0  0  0.094677  0  4.033663  0  0  0.09197  0.088685  0  3.99607  0
C  C47  1  0.67150196  0.38688248  0.54278387  1  0  0.101801  0  3.768977  0  0  0.091114  0  4.01105  0  0  0.094666  0  4.033568  0  0  0.091946  0.088677  0  3.995973  0
C  C48  1  0.22559458  0.62127241  0.55226159  1  0  -0.137653  0  3.746711  0  0  -0.159091  0  4.002367  0  0  -0.161445  0  4.021939  0  0  -0.092926  -0.157388  0  3.989088  0
C  C49  1  0.77440313  0.37872806  0.44774006  1  0  -0.137665  0  3.746684  0  0  -0.159125  0  4.002348  0  0  -0.161476  0  4.021921  0  0  -0.092913  -0.157418  0  3.989057  0
C  C50  1  0.24334597  0.72222703  0.62253054  1  0  -0.069798  0  3.776863  0  0  -0.086852  0  4.033872  0  0  -0.089765  0  4.057187  0  0  -0.09606  -0.084856  0  4.017976  0
C  C51  1  0.75665535  0.27777245  0.37747192  1  0  -0.06983  0  3.777013  0  0  -0.08689  0  4.034018  0  0  -0.089805  0  4.057335  0  0  -0.096084  -0.084892  0  4.018123  0
C  C52  1  0.35738746  0.81280649  0.59813161  1  0  -0.077746  0  3.788556  0  0  -0.091167  0  4.042289  0  0  -0.093116  0  4.065279  0  0  -0.099896  -0.089698  0  4.026619  0
C  C53  1  0.64261500  0.18719301  0.40186911  1  0  -0.077764  0  3.788578  0  0  -0.091182  0  4.042313  0  0  -0.093129  0  4.065299  0  0  -0.099876  -0.089715  0  4.026643  0
C  C54  1  0.46115923  0.80383138  0.50391447  1  0  -0.154255  0  3.738274  0  0  -0.17112  0  3.986875  0  0  -0.17443  0  4.006469  0  0  -0.097055  -0.168935  0  3.973923  0
C  C55  1  0.53883883  0.19616518  0.49608826  1  0  -0.154226  0  3.738223  0  0  -0.171097  0  3.98683  0  0  -0.1744  0  4.006434  0  0  -0.097067  -0.168916  0  3.973888  0
C  C56  1  0.24709911  0.41825165  0.35964001  1  0  -0.000184  0  3.610307  0  0  -0.060869  0  3.867848  0  0  -0.05668  0  3.879004  0  0  -0.053146  -0.063512  0  3.860093  0
C  C57  1  0.75289732  0.58174981  0.64035991  1  0  -0.000339  0  3.61052  0  0  -0.061044  0  3.868096  0  0  -0.056858  0  3.879254  0  0  -0.053244  -0.063691  0  3.860346  0
C  C58  1  0.29626027  0.33983635  0.25719413  1  0  -0.126961  0  3.699883  0  0  -0.172259  0  3.967594  0  0  -0.173274  0  3.981713  0  0  -0.166357  -0.171384  0  3.957742  0
C  C59  1  0.70373869  0.66016314  0.74280755  1  0  -0.126922  0  3.699833  0  0  -0.172212  0  3.967565  0  0  -0.173224  0  3.981678  0  0  -0.166348  -0.171339  0  3.957717  0
C  C60  1  0.19906673  0.22175346  0.25702853  1  0  -0.123222  0  3.662312  0  0  -0.162351  0  3.921146  0  0  -0.163942  0  3.934661  0  0  -0.160279  -0.161001  0  3.911704  0
C  C61  1  0.80093582  0.77824507  0.74297224  1  0  -0.123221  0  3.662104  0  0  -0.162375  0  3.92095  0  0  -0.163963  0  3.934461  0  0  -0.160323  -0.161025  0  3.911508  0
C  C62  1  0.23232050  0.13839480  0.15464750  1  0  -0.005545  0  3.606562  0  0  -0.070955  0  3.86694  0  0  -0.066779  0  3.877714  0  0  -0.055685  -0.073554  0  3.85956  0
C  C63  1  0.76767836  0.86160568  0.84535240  1  0  -0.005467  0  3.606459  0  0  -0.070857  0  3.866812  0  0  -0.066684  0  3.877592  0  0  -0.055645  -0.073454  0  3.85943  0
C  C64  1  0.44828273  0.96705178  0.20302055  1  0  0.208203  0  3.663101  0  0  0.142103  0  3.938806  0  0  0.159981  0  3.949465  0  0  0.162459  0.13059  0  3.931096  0
C  C65  1  0.55171619  0.03294776  0.79697683  1  0  0.208108  0  3.663124  0  0  0.142007  0  3.938836  0  0  0.159887  0  3.949494  0  0  0.162414  0.130495  0  3.931125  0
C  C66  1  0.65340251  0.04623120  0.11740638  1  0  0.146448  0  3.832516  0  0  0.141575  0  4.081815  0  0  0.145481  0  4.104794  0  0  0.083518  0.138876  0  4.066361  0
C  C67  1  0.34659506  0.95377029  0.88259007  1  0  0.146409  0  3.832585  0  0  0.141535  0  4.081873  0  0  0.145446  0  4.104852  0  0  0.083522  0.138836  0  4.066421  0
C  C68  1  0.52292008  0.13565965  0.09137633  1  0  0.101596  0  3.758472  0  0  0.092838  0  3.999982  0  0  0.096747  0  4.022227  0  0  0.09189  0.090158  0  3.98512  0
C  C69  1  0.47708093  0.86434279  0.90862167  1  0  0.101542  0  3.75851  0  0  0.092794  0  4.000019  0  0  0.096689  0  4.02228  0  0  0.091896  0.090115  0  3.985155  0
C  C70  1  0.53802424  0.24924813  0.01977339  1  0  -0.154721  0  3.767783  0  0  -0.173904  0  4.021977  0  0  -0.177141  0  4.042562  0  0  -0.100729  -0.171676  0  4.008059  0
C  C71  1  0.46198152  0.75075336  0.98022282  1  0  -0.15465  0  3.767865  0  0  -0.173848  0  4.022024  0  0  -0.177095  0  4.042635  0  0  -0.100747  -0.171622  0  4.008107  0
C  C72  1  0.68838164  0.27040217  0.97605842  1  0  -0.07901  0  3.803229  0  0  -0.093643  0  4.056344  0  0  -0.096589  0  4.080826  0  0  -0.102288  -0.091495  0  4.039659  0
C  C73  1  0.31162178  0.72959932  0.02393786  1  0  -0.079099  0  3.803283  0  0  -0.093725  0  4.056393  0  0  -0.096673  0  4.080876  0  0  -0.102255  -0.091579  0  4.039712  0
C  C74  1  0.81923705  0.18252817  0.00230356  1  0  -0.07856  0  3.781741  0  0  -0.094981  0  4.03537  0  0  -0.097493  0  4.058693  0  0  -0.100971  -0.093186  0  4.019403  0
C  C75  1  0.18076295  0.81747235  0.99769287  1  0  -0.078503  0  3.781619  0  0  -0.094929  0  4.035252  0  0  -0.097439  0  4.058574  0  0  -0.100998  -0.093133  0  4.019284  0
C  C76  1  0.80393091  0.06955957  0.07344577  1  0  -0.143555  0  3.732901  0  0  -0.16079  0  3.980773  0  0  -0.163286  0  4.000927  0  0  -0.093414  -0.158999  0  3.96702  0
C  C77  1  0.19606901  0.93044191  0.92655146  1  0  -0.143539  0  3.732947  0  0  -0.160777  0  3.980818  0  0  -0.163271  0  4.00097  0  0  -0.093402  -0.158981  0  3.967055  0
C  C78  1  0.89931596  0.57283756  0.13334645  1  0  0.654148  0  3.955395  0  0  0.615106  0  4.232938  0  0  0.649212  0  4.226322  0  0  0.186886  0.592111  0  4.236427  0
C  C79  1  0.10068443  0.42715901  0.86665536  1  0  0.654289  0  3.955224  0  0  0.615234  0  4.232765  0  0  0.64934  0  4.226145  0  0  0.186901  0.59224  0  4.236257  0
C  C80  1  0.98450708  0.48294843  0.05556624  1  0  -0.159049  0  3.672332  0  0  -0.178373  0  3.92617  0  0  -0.183275  0  3.939965  0  0  -0.082974  -0.175267  0  3.917004  0
C  C81  1  0.01548998  0.51704619  0.94443663  1  0  -0.159098  0  3.672277  0  0  -0.178367  0  3.92614  0  0  -0.18326  0  3.939929  0  0  -0.082975  -0.175262  0  3.916973  0
C  C82  1  0.94888214  0.88782738  0.38424292  1  0  0.665832  0  3.944018  0  0  0.626158  0  4.223338  0  0  0.660776  0  4.216306  0  0  0.18412  0.602765  0  4.227078  0
C  C83  1  0.05111798  0.11217213  0.61575700  1  0  0.665845  0  3.943907  0  0  0.626173  0  4.22322  0  0  0.660802  0  4.216173  0  0  0.184107  0.60278  0  4.226963  0
C  C84  1  0.03514453  0.96811276  0.45703312  1  0  -0.157801  0  3.675003  0  0  -0.175665  0  3.926056  0  0  -0.180985  0  3.940959  0  0  -0.085466  -0.17225  0  3.916077  0
C  C85  1  0.96485686  0.03188576  0.54296768  1  0  -0.157795  0  3.674987  0  0  -0.175651  0  3.926029  0  0  -0.180977  0  3.94093  0  0  -0.085443  -0.172237  0  3.916052  0
N  N86  1  0.53338810  0.66472710  0.33675182  1  0  -0.449995  0  3.21941  0  0  -0.38185  0  3.513644  0  0  -0.405339  0  3.528344  0  0  -0.362786  -0.365823  0  3.503135  0
N  N87  1  0.46661321  0.33527239  0.66324978  1  0  -0.449987  0  3.219375  0  0  -0.381839  0  3.513614  0  0  -0.405329  0  3.52832  0  0  -0.36279  -0.365811  0  3.503107  0
N  N88  1  0.34686325  0.52529973  0.37201444  1  0  -0.108238  0  3.49648  0  0  -0.017739  0  3.717562  0  0  -0.034002  0  3.741414  0  0  -0.23314  -0.006999  0  3.701268  0
N  N89  1  0.65313444  0.47470075  0.62798550  1  0  -0.108096  0  3.496303  0  0  -0.017633  0  3.7174  0  0  -0.033891  0  3.741252  0  0  -0.233159  -0.006893  0  3.701107  0
N  N90  1  0.60207240  0.94201576  0.18730996  1  0  -0.44719  0  3.215886  0  0  -0.379065  0  3.508552  0  0  -0.401989  0  3.522856  0  0  -0.359754  -0.363456  0  3.498305  0
N  N91  1  0.39792870  0.05798572  0.81268810  1  0  -0.447133  0  3.215858  0  0  -0.379002  0  3.508516  0  0  -0.401924  0  3.522817  0  0  -0.359757  -0.363395  0  3.49827  0
N  N92  1  0.39459713  0.08200246  0.14825303  1  0  -0.116068  0  3.503452  0  0  -0.024046  0  3.723972  0  0  -0.040907  0  3.748467  0  0  -0.237258  -0.012955  0  3.707261  0
N  N93  1  0.60540279  0.91799903  0.85174421  1  0  -0.116009  0  3.503502  0  0  -0.023988  0  3.724012  0  0  -0.040845  0  3.748513  0  0  -0.237264  -0.012898  0  3.7073  0
O  O94  1  0.81665432  0.67233131  0.08855645  1  0  -0.65624  0  1.977344  0  0  -0.588854  0  2.219537  0  0  -0.618201  0  2.208649  0  0  -0.336844  -0.568337  0  2.226132  0
O  O95  1  0.18334697  0.32766819  0.91144430  1  0  -0.65632  0  1.977366  0  0  -0.588945  0  2.219589  0  0  -0.618294  0  2.208698  0  0  -0.336879  -0.568422  0  2.226168  0
O  O96  1  0.91363308  0.54982317  0.24112755  1  0  -0.623594  0  1.916433  0  0  -0.566284  0  2.141678  0  0  -0.592893  0  2.132064  0  0  -0.32043  -0.54763  0  2.147557  0
O  O97  1  0.08636697  0.45017729  0.75887404  1  0  -0.62361  0  1.916321  0  0  -0.56629  0  2.141555  0  0  -0.592898  0  2.13194  0  0  -0.32038  -0.547635  0  2.147433  0
O  O98  1  0.82484337  0.83735011  0.42732274  1  0  -0.657483  0  1.962408  0  0  -0.591421  0  2.206256  0  0  -0.621232  0  2.19602  0  0  -0.340841  -0.570522  0  2.212329  0
O  O99  1  0.17515423  0.16265136  0.57267628  1  0  -0.657487  0  1.962378  0  0  -0.591418  0  2.206218  0  0  -0.621234  0  2.195975  0  0  -0.340832  -0.57052  0  2.21229  0
O  O100  1  0.99766654  0.87552609  0.28106877  1  0  -0.643697  0  1.863796  0  0  -0.587999  0  2.084066  0  0  -0.614837  0  2.0742  0  0  -0.33952  -0.56911  0  2.090016  0
O  O101  1  0.00233467  0.12447438  0.71893193  1  0  -0.643701  0  1.863727  0  0  -0.588006  0  2.083995  0  0  -0.614846  0  2.074122  0  0  -0.339509  -0.569119  0  2.08995  0
